data_str_m2_o1_o17_pcu_sym.24
_audit_creation_date              2020-01-03
_audit_creation_method            'Materials Studio'
_symmetry_space_group_name_H-M    'P1'
_symmetry_Int_Tables_number       1
_symmetry_cell_setting            triclinic
loop_
_symmetry_equiv_pos_as_xyz
  x,y,z
_cell_length_a                    32.8363
_cell_length_b                    28.5470
_cell_length_c                    30.1361
_cell_angle_alpha                 89.7892
_cell_angle_beta                  89.7606
_cell_angle_gamma                 89.8905
loop_
_atom_site_label
_atom_site_type_symbol
_atom_site_fract_x
_atom_site_fract_y
_atom_site_fract_z
_atom_site_U_iso_or_equiv
_atom_site_adp_type
_atom_site_occupancy
C1     C     0.08742   0.16658   0.24951   0.00000  Uiso   1.00
C2     C     0.04273   0.16605   0.24879   0.00000  Uiso   1.00
C3     C     0.14902   0.02497   0.21620   0.00000  Uiso   1.00
C4     C     0.18429   0.30836   0.28382   0.00000  Uiso   1.00
C5     C     0.18410   0.02460   0.28391   0.00000  Uiso   1.00
C6     C     0.14919   0.30873   0.21612   0.00000  Uiso   1.00
C7     C     0.16685   0.16672   0.16460   0.00000  Uiso   1.00
C8     C     0.16668   0.16676   0.33546   0.00000  Uiso   1.00
C9     C     0.20457   0.17278   0.40598   0.00000  Uiso   1.00
C10    C     0.12990   0.16771   0.09355   0.00000  Uiso   1.00
C11    C     0.16722   0.16801   0.38390   0.00000  Uiso   1.00
C12    C     0.24589   0.16665   0.25004   0.00000  Uiso   1.00
C13    C     0.16698   0.16730   0.11629   0.00000  Uiso   1.00
C14    C     0.13023   0.17146   0.40701   0.00000  Uiso   1.00
C15    C     0.20409   0.17045   0.09358   0.00000  Uiso   1.00
C16    C     0.13026   0.17861   0.45331   0.00000  Uiso   1.00
C17    C     0.20430   0.17655   0.04712   0.00000  Uiso   1.00
C18    C     0.16763   0.17645   0.47660   0.00000  Uiso   1.00
C19    C     0.16714   0.17622   0.02362   0.00000  Uiso   1.00
C20    C     0.20540   0.17437   0.45308   0.00000  Uiso   1.00
C21    C     0.12952   0.17578   0.04708   0.00000  Uiso   1.00
C22    C     0.09414   0.18942   0.47706   0.00000  Uiso   1.00
C23    C     0.09337   0.18594   0.02338   0.00000  Uiso   1.00
C24    C     0.24087   0.18380   0.02344   0.00000  Uiso   1.00
C25    C     0.24072   0.18091   0.37911   0.00000  Uiso   1.00
C26    C     0.09349   0.15433   0.11804   0.00000  Uiso   1.00
C27    C     0.09244   0.16729   0.38257   0.00000  Uiso   1.00
C28    C     0.24146   0.16112   0.11775   0.00000  Uiso   1.00
C29    C     0.06220   0.25334   0.44800   0.00000  Uiso   1.00
C30    C     0.02768   0.26907   0.41740   0.00000  Uiso   1.00
C31    C     0.02732   0.32218   0.41142   0.00000  Uiso   1.00
C32    C     0.27148   0.24719   0.05560   0.00000  Uiso   1.00
C33    C     0.28650   0.27856   0.01757   0.00000  Uiso   1.00
C34    C     0.24219   0.17631   0.47779   0.00000  Uiso   1.00
C35    C     0.28451   0.33024   0.03013   0.00000  Uiso   1.00
C36    C     0.05599   0.19838   0.04586   0.00000  Uiso   1.00
C37    C     0.28208   0.16786   0.45880   0.00000  Uiso   1.00
C38    C     0.04240   0.09217   0.29400   0.00000  Uiso   1.00
C39    C     0.29051   0.23759   0.20093   0.00000  Uiso   1.00
C40    C     0.29084   0.09671   0.29997   0.00000  Uiso   1.00
C41    C     0.04258   0.23546   0.19812   0.00000  Uiso   1.00
C42    C     0.02123   0.13012   0.27132   0.00000  Uiso   1.00
C43    C     0.31198   0.20166   0.22604   0.00000  Uiso   1.00
C44    C     0.31200   0.13111   0.27270   0.00000  Uiso   1.00
C45    C     0.02128   0.20122   0.22540   0.00000  Uiso   1.00
C46    C     0.29055   0.16662   0.24978   0.00000  Uiso   1.00
Cu47   Cu    0.16667   0.21355   0.25000   0.00000  Uiso   1.00
Cu48   Cu    0.16667   0.11978   0.25000   0.00000  Uiso   1.00
H49    H     0.13470   0.04367   0.18917   0.00000  Uiso   1.00
H50    H     0.00215   0.33238   0.38884   0.00000  Uiso   1.00
H51    H     0.05658   0.00088   0.39672   0.00000  Uiso   1.00
H52    H     0.29046   0.25394   0.08531   0.00000  Uiso   1.00
H53    H     0.23981   0.25725   0.06524   0.00000  Uiso   1.00
H54    H     0.31848   0.26933   0.00935   0.00000  Uiso   1.00
H55    H     0.26748   0.27287   0.48769   0.00000  Uiso   1.00
H56    H     0.25268   0.00718   0.03809   0.00000  Uiso   1.00
H57    H     0.29539   0.01863   0.00186   0.00000  Uiso   1.00
H58    H     0.30417   0.00380   0.05928   0.00000  Uiso   1.00
H59    H     0.19859   0.28966   0.31086   0.00000  Uiso   1.00
H60    H     0.19778   0.04301   0.31126   0.00000  Uiso   1.00
H61    H     0.13545   0.29032   0.18879   0.00000  Uiso   1.00
H62    H     0.09167   0.26298   0.43183   0.00000  Uiso   1.00
H63    H     0.05951   0.27223   0.48014   0.00000  Uiso   1.00
H64    H     0.03148   0.25238   0.38440   0.00000  Uiso   1.00
H65    H     0.33126   0.25779   0.43137   0.00000  Uiso   1.00
H66    H     0.02252   0.00637   0.44388   0.00000  Uiso   1.00
N67    N     0.16667   0.28402   0.25000   0.00000  Uiso   1.00
N68    N     0.27348   0.26620   0.18094   0.00000  Uiso   1.00
N69    N     0.27441   0.06930   0.32199   0.00000  Uiso   1.00
N70    N     0.05917   0.26273   0.17609   0.00000  Uiso   1.00
N71    N     0.16667   0.04931   0.25000   0.00000  Uiso   1.00
N72    N     0.26930   0.18798   0.35751   0.00000  Uiso   1.00
N73    N     0.06471   0.14316   0.13768   0.00000  Uiso   1.00
N74    N     0.06217   0.16433   0.36332   0.00000  Uiso   1.00
N75    N     0.27121   0.15315   0.13680   0.00000  Uiso   1.00
N76    N     0.02639   0.20848   0.06435   0.00000  Uiso   1.00
N77    N     0.31403   0.16052   0.44402   0.00000  Uiso   1.00
N78    N     0.05914   0.06192   0.31204   0.00000  Uiso   1.00
O79    O     0.10655   0.20625   0.24999   0.00000  Uiso   1.00
O80    O     0.27584   0.19908   0.04448   0.00000  Uiso   1.00
O81    O     0.22679   0.12709   0.25000   0.00000  Uiso   1.00
O82    O     0.22679   0.20625   0.25000   0.00000  Uiso   1.00
O83    O     0.10655   0.12709   0.24999   0.00000  Uiso   1.00
O84    O     0.16666   0.20627   0.18513   0.00000  Uiso   1.00
O85    O     0.16668   0.12707   0.31487   0.00000  Uiso   1.00
O86    O     0.16668   0.20627   0.31487   0.00000  Uiso   1.00
O87    O     0.16666   0.12707   0.18513   0.00000  Uiso   1.00
O88    O     0.05935   0.20446   0.45529   0.00000  Uiso   1.00
C89    C     0.42076   0.16658   0.24951   0.00000  Uiso   1.00
C90    C     0.37606   0.16605   0.24879   0.00000  Uiso   1.00
C91    C     0.48235   0.02497   0.21620   0.00000  Uiso   1.00
C92    C     0.51762   0.30836   0.28382   0.00000  Uiso   1.00
C93    C     0.51743   0.02460   0.28391   0.00000  Uiso   1.00
C94    C     0.48253   0.30873   0.21612   0.00000  Uiso   1.00
C95    C     0.50019   0.16672   0.16460   0.00000  Uiso   1.00
C96    C     0.50002   0.16676   0.33546   0.00000  Uiso   1.00
C97    C     0.53790   0.17278   0.40598   0.00000  Uiso   1.00
C98    C     0.46323   0.16771   0.09355   0.00000  Uiso   1.00
C99    C     0.50055   0.16801   0.38390   0.00000  Uiso   1.00
C100   C     0.57922   0.16665   0.25004   0.00000  Uiso   1.00
C101   C     0.50032   0.16730   0.11629   0.00000  Uiso   1.00
C102   C     0.46356   0.17146   0.40701   0.00000  Uiso   1.00
C103   C     0.53742   0.17045   0.09358   0.00000  Uiso   1.00
C104   C     0.46360   0.17861   0.45331   0.00000  Uiso   1.00
C105   C     0.53764   0.17655   0.04712   0.00000  Uiso   1.00
C106   C     0.50097   0.17645   0.47660   0.00000  Uiso   1.00
C107   C     0.50047   0.17622   0.02362   0.00000  Uiso   1.00
C108   C     0.53873   0.17437   0.45308   0.00000  Uiso   1.00
C109   C     0.46285   0.17578   0.04708   0.00000  Uiso   1.00
C110   C     0.42747   0.18942   0.47706   0.00000  Uiso   1.00
C111   C     0.42671   0.18594   0.02338   0.00000  Uiso   1.00
C112   C     0.57421   0.18380   0.02344   0.00000  Uiso   1.00
C113   C     0.57406   0.18091   0.37911   0.00000  Uiso   1.00
C114   C     0.42682   0.15433   0.11804   0.00000  Uiso   1.00
C115   C     0.42577   0.16729   0.38257   0.00000  Uiso   1.00
C116   C     0.57479   0.16112   0.11775   0.00000  Uiso   1.00
C117   C     0.39554   0.25334   0.44800   0.00000  Uiso   1.00
C118   C     0.36101   0.26907   0.41740   0.00000  Uiso   1.00
C119   C     0.36065   0.32218   0.41142   0.00000  Uiso   1.00
C120   C     0.60482   0.24719   0.05560   0.00000  Uiso   1.00
C121   C     0.61984   0.27856   0.01757   0.00000  Uiso   1.00
C122   C     0.57552   0.17631   0.47779   0.00000  Uiso   1.00
C123   C     0.61784   0.33024   0.03013   0.00000  Uiso   1.00
C124   C     0.38932   0.19838   0.04586   0.00000  Uiso   1.00
C125   C     0.61541   0.16786   0.45880   0.00000  Uiso   1.00
C126   C     0.37574   0.09217   0.29400   0.00000  Uiso   1.00
C127   C     0.62384   0.23759   0.20093   0.00000  Uiso   1.00
C128   C     0.62417   0.09671   0.29997   0.00000  Uiso   1.00
C129   C     0.37591   0.23546   0.19812   0.00000  Uiso   1.00
C130   C     0.35456   0.13012   0.27132   0.00000  Uiso   1.00
C131   C     0.64531   0.20166   0.22604   0.00000  Uiso   1.00
C132   C     0.64533   0.13111   0.27270   0.00000  Uiso   1.00
C133   C     0.35461   0.20122   0.22540   0.00000  Uiso   1.00
C134   C     0.62388   0.16662   0.24978   0.00000  Uiso   1.00
Cu135  Cu    0.50000   0.21355   0.25000   0.00000  Uiso   1.00
Cu136  Cu    0.50000   0.11978   0.25000   0.00000  Uiso   1.00
H137   H     0.46803   0.04367   0.18917   0.00000  Uiso   1.00
H138   H     0.33548   0.33238   0.38884   0.00000  Uiso   1.00
H139   H     0.38991   0.00088   0.39672   0.00000  Uiso   1.00
H140   H     0.62379   0.25394   0.08531   0.00000  Uiso   1.00
H141   H     0.57315   0.25725   0.06524   0.00000  Uiso   1.00
H142   H     0.65181   0.26933   0.00935   0.00000  Uiso   1.00
H143   H     0.60081   0.27287   0.48769   0.00000  Uiso   1.00
H144   H     0.58601   0.00718   0.03809   0.00000  Uiso   1.00
H145   H     0.62873   0.01863   0.00186   0.00000  Uiso   1.00
H146   H     0.63750   0.00380   0.05928   0.00000  Uiso   1.00
H147   H     0.53192   0.28966   0.31086   0.00000  Uiso   1.00
H148   H     0.53112   0.04301   0.31126   0.00000  Uiso   1.00
H149   H     0.46878   0.29032   0.18879   0.00000  Uiso   1.00
H150   H     0.42500   0.26298   0.43183   0.00000  Uiso   1.00
H151   H     0.39284   0.27223   0.48014   0.00000  Uiso   1.00
H152   H     0.36482   0.25238   0.38440   0.00000  Uiso   1.00
H153   H     0.66459   0.25779   0.43137   0.00000  Uiso   1.00
H154   H     0.35585   0.00637   0.44388   0.00000  Uiso   1.00
N155   N     0.50000   0.28402   0.25000   0.00000  Uiso   1.00
N156   N     0.60681   0.26620   0.18094   0.00000  Uiso   1.00
N157   N     0.60775   0.06930   0.32199   0.00000  Uiso   1.00
N158   N     0.39250   0.26273   0.17609   0.00000  Uiso   1.00
N159   N     0.50000   0.04931   0.25000   0.00000  Uiso   1.00
N160   N     0.60263   0.18798   0.35751   0.00000  Uiso   1.00
N161   N     0.39804   0.14316   0.13768   0.00000  Uiso   1.00
N162   N     0.39551   0.16433   0.36332   0.00000  Uiso   1.00
N163   N     0.60455   0.15315   0.13680   0.00000  Uiso   1.00
N164   N     0.35972   0.20848   0.06435   0.00000  Uiso   1.00
N165   N     0.64736   0.16052   0.44402   0.00000  Uiso   1.00
N166   N     0.39247   0.06192   0.31204   0.00000  Uiso   1.00
O167   O     0.43988   0.20625   0.24999   0.00000  Uiso   1.00
O168   O     0.60917   0.19908   0.04448   0.00000  Uiso   1.00
O169   O     0.56012   0.12709   0.25000   0.00000  Uiso   1.00
O170   O     0.56012   0.20625   0.25000   0.00000  Uiso   1.00
O171   O     0.43988   0.12709   0.24999   0.00000  Uiso   1.00
O172   O     0.49999   0.20627   0.18513   0.00000  Uiso   1.00
O173   O     0.50001   0.12707   0.31487   0.00000  Uiso   1.00
O174   O     0.50001   0.20627   0.31487   0.00000  Uiso   1.00
O175   O     0.49999   0.12707   0.18513   0.00000  Uiso   1.00
O176   O     0.39268   0.20446   0.45529   0.00000  Uiso   1.00
C177   C     0.75409   0.16658   0.24951   0.00000  Uiso   1.00
C178   C     0.70940   0.16605   0.24879   0.00000  Uiso   1.00
C179   C     0.81569   0.02497   0.21620   0.00000  Uiso   1.00
C180   C     0.85095   0.30836   0.28382   0.00000  Uiso   1.00
C181   C     0.85077   0.02460   0.28391   0.00000  Uiso   1.00
C182   C     0.81586   0.30873   0.21612   0.00000  Uiso   1.00
C183   C     0.83352   0.16672   0.16460   0.00000  Uiso   1.00
C184   C     0.83335   0.16676   0.33546   0.00000  Uiso   1.00
C185   C     0.87124   0.17278   0.40598   0.00000  Uiso   1.00
C186   C     0.79656   0.16771   0.09355   0.00000  Uiso   1.00
C187   C     0.83389   0.16801   0.38390   0.00000  Uiso   1.00
C188   C     0.91256   0.16665   0.25004   0.00000  Uiso   1.00
C189   C     0.83365   0.16730   0.11629   0.00000  Uiso   1.00
C190   C     0.79689   0.17146   0.40701   0.00000  Uiso   1.00
C191   C     0.87075   0.17045   0.09358   0.00000  Uiso   1.00
C192   C     0.79693   0.17861   0.45331   0.00000  Uiso   1.00
C193   C     0.87097   0.17655   0.04712   0.00000  Uiso   1.00
C194   C     0.83430   0.17645   0.47660   0.00000  Uiso   1.00
C195   C     0.83380   0.17622   0.02362   0.00000  Uiso   1.00
C196   C     0.87206   0.17437   0.45308   0.00000  Uiso   1.00
C197   C     0.79618   0.17578   0.04708   0.00000  Uiso   1.00
C198   C     0.76080   0.18942   0.47706   0.00000  Uiso   1.00
C199   C     0.76004   0.18594   0.02338   0.00000  Uiso   1.00
C200   C     0.90754   0.18380   0.02344   0.00000  Uiso   1.00
C201   C     0.90739   0.18091   0.37911   0.00000  Uiso   1.00
C202   C     0.76015   0.15433   0.11804   0.00000  Uiso   1.00
C203   C     0.75911   0.16729   0.38257   0.00000  Uiso   1.00
C204   C     0.90812   0.16112   0.11775   0.00000  Uiso   1.00
C205   C     0.72887   0.25334   0.44800   0.00000  Uiso   1.00
C206   C     0.69434   0.26907   0.41740   0.00000  Uiso   1.00
C207   C     0.69398   0.32218   0.41142   0.00000  Uiso   1.00
C208   C     0.93815   0.24719   0.05560   0.00000  Uiso   1.00
C209   C     0.95317   0.27856   0.01757   0.00000  Uiso   1.00
C210   C     0.90886   0.17631   0.47779   0.00000  Uiso   1.00
C211   C     0.95118   0.33024   0.03013   0.00000  Uiso   1.00
C212   C     0.72266   0.19838   0.04586   0.00000  Uiso   1.00
C213   C     0.94875   0.16786   0.45880   0.00000  Uiso   1.00
C214   C     0.70907   0.09217   0.29400   0.00000  Uiso   1.00
C215   C     0.95718   0.23759   0.20093   0.00000  Uiso   1.00
C216   C     0.95751   0.09671   0.29997   0.00000  Uiso   1.00
C217   C     0.70924   0.23546   0.19812   0.00000  Uiso   1.00
C218   C     0.68789   0.13012   0.27132   0.00000  Uiso   1.00
C219   C     0.97865   0.20166   0.22604   0.00000  Uiso   1.00
C220   C     0.97867   0.13111   0.27270   0.00000  Uiso   1.00
C221   C     0.68794   0.20122   0.22540   0.00000  Uiso   1.00
C222   C     0.95722   0.16662   0.24978   0.00000  Uiso   1.00
Cu223  Cu    0.83333   0.21355   0.25000   0.00000  Uiso   1.00
Cu224  Cu    0.83333   0.11978   0.25000   0.00000  Uiso   1.00
H225   H     0.80136   0.04367   0.18917   0.00000  Uiso   1.00
H226   H     0.66882   0.33238   0.38884   0.00000  Uiso   1.00
H227   H     0.72324   0.00088   0.39672   0.00000  Uiso   1.00
H228   H     0.95712   0.25394   0.08531   0.00000  Uiso   1.00
H229   H     0.90648   0.25725   0.06524   0.00000  Uiso   1.00
H230   H     0.98514   0.26933   0.00935   0.00000  Uiso   1.00
H231   H     0.93415   0.27287   0.48769   0.00000  Uiso   1.00
H232   H     0.91934   0.00718   0.03809   0.00000  Uiso   1.00
H233   H     0.96206   0.01863   0.00186   0.00000  Uiso   1.00
H234   H     0.97083   0.00380   0.05928   0.00000  Uiso   1.00
H235   H     0.86526   0.28966   0.31086   0.00000  Uiso   1.00
H236   H     0.86445   0.04301   0.31126   0.00000  Uiso   1.00
H237   H     0.80212   0.29032   0.18879   0.00000  Uiso   1.00
H238   H     0.75833   0.26298   0.43183   0.00000  Uiso   1.00
H239   H     0.72617   0.27223   0.48014   0.00000  Uiso   1.00
H240   H     0.69815   0.25238   0.38440   0.00000  Uiso   1.00
H241   H     0.99793   0.25779   0.43137   0.00000  Uiso   1.00
H242   H     0.68919   0.00637   0.44388   0.00000  Uiso   1.00
N243   N     0.83333   0.28402   0.25000   0.00000  Uiso   1.00
N244   N     0.94014   0.26620   0.18094   0.00000  Uiso   1.00
N245   N     0.94108   0.06930   0.32199   0.00000  Uiso   1.00
N246   N     0.72583   0.26273   0.17609   0.00000  Uiso   1.00
N247   N     0.83333   0.04931   0.25000   0.00000  Uiso   1.00
N248   N     0.93597   0.18798   0.35751   0.00000  Uiso   1.00
N249   N     0.73138   0.14316   0.13768   0.00000  Uiso   1.00
N250   N     0.72884   0.16433   0.36332   0.00000  Uiso   1.00
N251   N     0.93788   0.15315   0.13680   0.00000  Uiso   1.00
N252   N     0.69305   0.20848   0.06435   0.00000  Uiso   1.00
N253   N     0.98069   0.16052   0.44402   0.00000  Uiso   1.00
N254   N     0.72580   0.06192   0.31204   0.00000  Uiso   1.00
O255   O     0.77321   0.20625   0.24999   0.00000  Uiso   1.00
O256   O     0.94250   0.19908   0.04448   0.00000  Uiso   1.00
O257   O     0.89345   0.12709   0.25000   0.00000  Uiso   1.00
O258   O     0.89345   0.20625   0.25000   0.00000  Uiso   1.00
O259   O     0.77321   0.12709   0.24999   0.00000  Uiso   1.00
O260   O     0.83332   0.20627   0.18513   0.00000  Uiso   1.00
O261   O     0.83334   0.12707   0.31487   0.00000  Uiso   1.00
O262   O     0.83334   0.20627   0.31487   0.00000  Uiso   1.00
O263   O     0.83332   0.12707   0.18513   0.00000  Uiso   1.00
O264   O     0.72602   0.20446   0.45529   0.00000  Uiso   1.00
C265   C     0.08742   0.49992   0.24951   0.00000  Uiso   1.00
C266   C     0.04273   0.49939   0.24879   0.00000  Uiso   1.00
C267   C     0.14902   0.35830   0.21620   0.00000  Uiso   1.00
C268   C     0.18429   0.64170   0.28382   0.00000  Uiso   1.00
C269   C     0.18410   0.35793   0.28391   0.00000  Uiso   1.00
C270   C     0.14919   0.64207   0.21612   0.00000  Uiso   1.00
C271   C     0.16685   0.50005   0.16460   0.00000  Uiso   1.00
C272   C     0.16668   0.50009   0.33546   0.00000  Uiso   1.00
C273   C     0.20457   0.50611   0.40598   0.00000  Uiso   1.00
C274   C     0.12990   0.50105   0.09355   0.00000  Uiso   1.00
C275   C     0.16722   0.50134   0.38390   0.00000  Uiso   1.00
C276   C     0.24589   0.49999   0.25004   0.00000  Uiso   1.00
C277   C     0.16698   0.50063   0.11629   0.00000  Uiso   1.00
C278   C     0.13023   0.50479   0.40701   0.00000  Uiso   1.00
C279   C     0.20409   0.50378   0.09358   0.00000  Uiso   1.00
C280   C     0.13026   0.51194   0.45331   0.00000  Uiso   1.00
C281   C     0.20430   0.50988   0.04712   0.00000  Uiso   1.00
C282   C     0.16763   0.50979   0.47660   0.00000  Uiso   1.00
C283   C     0.16714   0.50955   0.02362   0.00000  Uiso   1.00
C284   C     0.20540   0.50770   0.45308   0.00000  Uiso   1.00
C285   C     0.12952   0.50912   0.04708   0.00000  Uiso   1.00
C286   C     0.09414   0.52275   0.47706   0.00000  Uiso   1.00
C287   C     0.09337   0.51927   0.02338   0.00000  Uiso   1.00
C288   C     0.24087   0.51714   0.02344   0.00000  Uiso   1.00
C289   C     0.24072   0.51424   0.37911   0.00000  Uiso   1.00
C290   C     0.09349   0.48766   0.11804   0.00000  Uiso   1.00
C291   C     0.09244   0.50063   0.38257   0.00000  Uiso   1.00
C292   C     0.24146   0.49445   0.11775   0.00000  Uiso   1.00
C293   C     0.06220   0.58668   0.44800   0.00000  Uiso   1.00
C294   C     0.02768   0.60240   0.41740   0.00000  Uiso   1.00
C295   C     0.02732   0.65551   0.41142   0.00000  Uiso   1.00
C296   C     0.27148   0.58052   0.05560   0.00000  Uiso   1.00
C297   C     0.28650   0.61189   0.01757   0.00000  Uiso   1.00
C298   C     0.24219   0.50964   0.47779   0.00000  Uiso   1.00
C299   C     0.28451   0.66357   0.03013   0.00000  Uiso   1.00
C300   C     0.05599   0.53171   0.04586   0.00000  Uiso   1.00
C301   C     0.28208   0.50119   0.45880   0.00000  Uiso   1.00
C302   C     0.04240   0.42551   0.29400   0.00000  Uiso   1.00
C303   C     0.29051   0.57092   0.20093   0.00000  Uiso   1.00
C304   C     0.29084   0.43004   0.29997   0.00000  Uiso   1.00
C305   C     0.04258   0.56880   0.19812   0.00000  Uiso   1.00
C306   C     0.02123   0.46345   0.27132   0.00000  Uiso   1.00
C307   C     0.31198   0.53499   0.22604   0.00000  Uiso   1.00
C308   C     0.31200   0.46444   0.27270   0.00000  Uiso   1.00
C309   C     0.02128   0.53456   0.22540   0.00000  Uiso   1.00
C310   C     0.29055   0.49995   0.24978   0.00000  Uiso   1.00
Cu311  Cu    0.16667   0.54689   0.25000   0.00000  Uiso   1.00
Cu312  Cu    0.16667   0.45311   0.25000   0.00000  Uiso   1.00
H313   H     0.13470   0.37701   0.18917   0.00000  Uiso   1.00
H314   H     0.00215   0.66572   0.38884   0.00000  Uiso   1.00
H315   H     0.05658   0.33422   0.39672   0.00000  Uiso   1.00
H316   H     0.29046   0.58727   0.08531   0.00000  Uiso   1.00
H317   H     0.23981   0.59059   0.06524   0.00000  Uiso   1.00
H318   H     0.31848   0.60267   0.00935   0.00000  Uiso   1.00
H319   H     0.26748   0.60620   0.48769   0.00000  Uiso   1.00
H320   H     0.25268   0.34051   0.03809   0.00000  Uiso   1.00
H321   H     0.29539   0.35197   0.00186   0.00000  Uiso   1.00
H322   H     0.30417   0.33713   0.05928   0.00000  Uiso   1.00
H323   H     0.19859   0.62299   0.31086   0.00000  Uiso   1.00
H324   H     0.19778   0.37634   0.31126   0.00000  Uiso   1.00
H325   H     0.13545   0.62365   0.18879   0.00000  Uiso   1.00
H326   H     0.09167   0.59631   0.43183   0.00000  Uiso   1.00
H327   H     0.05951   0.60557   0.48014   0.00000  Uiso   1.00
H328   H     0.03148   0.58571   0.38440   0.00000  Uiso   1.00
H329   H     0.33126   0.59112   0.43137   0.00000  Uiso   1.00
H330   H     0.02252   0.33970   0.44388   0.00000  Uiso   1.00
N331   N     0.16667   0.61736   0.25000   0.00000  Uiso   1.00
N332   N     0.27348   0.59953   0.18094   0.00000  Uiso   1.00
N333   N     0.27441   0.40263   0.32199   0.00000  Uiso   1.00
N334   N     0.05917   0.59606   0.17609   0.00000  Uiso   1.00
N335   N     0.16667   0.38264   0.25000   0.00000  Uiso   1.00
N336   N     0.26930   0.52131   0.35751   0.00000  Uiso   1.00
N337   N     0.06471   0.47649   0.13768   0.00000  Uiso   1.00
N338   N     0.06217   0.49766   0.36332   0.00000  Uiso   1.00
N339   N     0.27121   0.48648   0.13680   0.00000  Uiso   1.00
N340   N     0.02639   0.54181   0.06435   0.00000  Uiso   1.00
N341   N     0.31403   0.49385   0.44402   0.00000  Uiso   1.00
N342   N     0.05914   0.39526   0.31204   0.00000  Uiso   1.00
O343   O     0.10655   0.53958   0.24999   0.00000  Uiso   1.00
O344   O     0.27584   0.53242   0.04448   0.00000  Uiso   1.00
O345   O     0.22679   0.46042   0.25000   0.00000  Uiso   1.00
O346   O     0.22679   0.53958   0.25000   0.00000  Uiso   1.00
O347   O     0.10655   0.46042   0.24999   0.00000  Uiso   1.00
O348   O     0.16666   0.53960   0.18513   0.00000  Uiso   1.00
O349   O     0.16668   0.46040   0.31487   0.00000  Uiso   1.00
O350   O     0.16668   0.53960   0.31487   0.00000  Uiso   1.00
O351   O     0.16666   0.46040   0.18513   0.00000  Uiso   1.00
O352   O     0.05935   0.53779   0.45529   0.00000  Uiso   1.00
C353   C     0.42076   0.49992   0.24951   0.00000  Uiso   1.00
C354   C     0.37606   0.49939   0.24879   0.00000  Uiso   1.00
C355   C     0.48235   0.35830   0.21620   0.00000  Uiso   1.00
C356   C     0.51762   0.64170   0.28382   0.00000  Uiso   1.00
C357   C     0.51743   0.35793   0.28391   0.00000  Uiso   1.00
C358   C     0.48253   0.64207   0.21612   0.00000  Uiso   1.00
C359   C     0.50019   0.50005   0.16460   0.00000  Uiso   1.00
C360   C     0.50002   0.50009   0.33546   0.00000  Uiso   1.00
C361   C     0.53790   0.50611   0.40598   0.00000  Uiso   1.00
C362   C     0.46323   0.50105   0.09355   0.00000  Uiso   1.00
C363   C     0.50055   0.50134   0.38390   0.00000  Uiso   1.00
C364   C     0.57922   0.49999   0.25004   0.00000  Uiso   1.00
C365   C     0.50032   0.50063   0.11629   0.00000  Uiso   1.00
C366   C     0.46356   0.50479   0.40701   0.00000  Uiso   1.00
C367   C     0.53742   0.50378   0.09358   0.00000  Uiso   1.00
C368   C     0.46360   0.51194   0.45331   0.00000  Uiso   1.00
C369   C     0.53764   0.50988   0.04712   0.00000  Uiso   1.00
C370   C     0.50097   0.50979   0.47660   0.00000  Uiso   1.00
C371   C     0.50047   0.50955   0.02362   0.00000  Uiso   1.00
C372   C     0.53873   0.50770   0.45308   0.00000  Uiso   1.00
C373   C     0.46285   0.50912   0.04708   0.00000  Uiso   1.00
C374   C     0.42747   0.52275   0.47706   0.00000  Uiso   1.00
C375   C     0.42671   0.51927   0.02338   0.00000  Uiso   1.00
C376   C     0.57421   0.51714   0.02344   0.00000  Uiso   1.00
C377   C     0.57406   0.51424   0.37911   0.00000  Uiso   1.00
C378   C     0.42682   0.48766   0.11804   0.00000  Uiso   1.00
C379   C     0.42577   0.50063   0.38257   0.00000  Uiso   1.00
C380   C     0.57479   0.49445   0.11775   0.00000  Uiso   1.00
C381   C     0.39554   0.58668   0.44800   0.00000  Uiso   1.00
C382   C     0.36101   0.60240   0.41740   0.00000  Uiso   1.00
C383   C     0.36065   0.65551   0.41142   0.00000  Uiso   1.00
C384   C     0.60482   0.58052   0.05560   0.00000  Uiso   1.00
C385   C     0.61984   0.61189   0.01757   0.00000  Uiso   1.00
C386   C     0.57552   0.50964   0.47779   0.00000  Uiso   1.00
C387   C     0.61784   0.66357   0.03013   0.00000  Uiso   1.00
C388   C     0.38932   0.53171   0.04586   0.00000  Uiso   1.00
C389   C     0.61541   0.50119   0.45880   0.00000  Uiso   1.00
C390   C     0.37574   0.42551   0.29400   0.00000  Uiso   1.00
C391   C     0.62384   0.57092   0.20093   0.00000  Uiso   1.00
C392   C     0.62417   0.43004   0.29997   0.00000  Uiso   1.00
C393   C     0.37591   0.56880   0.19812   0.00000  Uiso   1.00
C394   C     0.35456   0.46345   0.27132   0.00000  Uiso   1.00
C395   C     0.64531   0.53499   0.22604   0.00000  Uiso   1.00
C396   C     0.64533   0.46444   0.27270   0.00000  Uiso   1.00
C397   C     0.35461   0.53456   0.22540   0.00000  Uiso   1.00
C398   C     0.62388   0.49995   0.24978   0.00000  Uiso   1.00
Cu399  Cu    0.50000   0.54689   0.25000   0.00000  Uiso   1.00
Cu400  Cu    0.50000   0.45311   0.25000   0.00000  Uiso   1.00
H401   H     0.46803   0.37701   0.18917   0.00000  Uiso   1.00
H402   H     0.33548   0.66572   0.38884   0.00000  Uiso   1.00
H403   H     0.38991   0.33422   0.39672   0.00000  Uiso   1.00
H404   H     0.62379   0.58727   0.08531   0.00000  Uiso   1.00
H405   H     0.57315   0.59059   0.06524   0.00000  Uiso   1.00
H406   H     0.65181   0.60267   0.00935   0.00000  Uiso   1.00
H407   H     0.60081   0.60620   0.48769   0.00000  Uiso   1.00
H408   H     0.58601   0.34051   0.03809   0.00000  Uiso   1.00
H409   H     0.62873   0.35197   0.00186   0.00000  Uiso   1.00
H410   H     0.63750   0.33713   0.05928   0.00000  Uiso   1.00
H411   H     0.53192   0.62299   0.31086   0.00000  Uiso   1.00
H412   H     0.53112   0.37634   0.31126   0.00000  Uiso   1.00
H413   H     0.46878   0.62365   0.18879   0.00000  Uiso   1.00
H414   H     0.42500   0.59631   0.43183   0.00000  Uiso   1.00
H415   H     0.39284   0.60557   0.48014   0.00000  Uiso   1.00
H416   H     0.36482   0.58571   0.38440   0.00000  Uiso   1.00
H417   H     0.66459   0.59112   0.43137   0.00000  Uiso   1.00
H418   H     0.35585   0.33970   0.44388   0.00000  Uiso   1.00
N419   N     0.50000   0.61736   0.25000   0.00000  Uiso   1.00
N420   N     0.60681   0.59953   0.18094   0.00000  Uiso   1.00
N421   N     0.60775   0.40263   0.32199   0.00000  Uiso   1.00
N422   N     0.39250   0.59606   0.17609   0.00000  Uiso   1.00
N423   N     0.50000   0.38264   0.25000   0.00000  Uiso   1.00
N424   N     0.60263   0.52131   0.35751   0.00000  Uiso   1.00
N425   N     0.39804   0.47649   0.13768   0.00000  Uiso   1.00
N426   N     0.39551   0.49766   0.36332   0.00000  Uiso   1.00
N427   N     0.60455   0.48648   0.13680   0.00000  Uiso   1.00
N428   N     0.35972   0.54181   0.06435   0.00000  Uiso   1.00
N429   N     0.64736   0.49385   0.44402   0.00000  Uiso   1.00
N430   N     0.39247   0.39526   0.31204   0.00000  Uiso   1.00
O431   O     0.43988   0.53958   0.24999   0.00000  Uiso   1.00
O432   O     0.60917   0.53242   0.04448   0.00000  Uiso   1.00
O433   O     0.56012   0.46042   0.25000   0.00000  Uiso   1.00
O434   O     0.56012   0.53958   0.25000   0.00000  Uiso   1.00
O435   O     0.43988   0.46042   0.24999   0.00000  Uiso   1.00
O436   O     0.49999   0.53960   0.18513   0.00000  Uiso   1.00
O437   O     0.50001   0.46040   0.31487   0.00000  Uiso   1.00
O438   O     0.50001   0.53960   0.31487   0.00000  Uiso   1.00
O439   O     0.49999   0.46040   0.18513   0.00000  Uiso   1.00
O440   O     0.39268   0.53779   0.45529   0.00000  Uiso   1.00
C441   C     0.75409   0.49992   0.24951   0.00000  Uiso   1.00
C442   C     0.70940   0.49939   0.24879   0.00000  Uiso   1.00
C443   C     0.81569   0.35830   0.21620   0.00000  Uiso   1.00
C444   C     0.85095   0.64170   0.28382   0.00000  Uiso   1.00
C445   C     0.85077   0.35793   0.28391   0.00000  Uiso   1.00
C446   C     0.81586   0.64207   0.21612   0.00000  Uiso   1.00
C447   C     0.83352   0.50005   0.16460   0.00000  Uiso   1.00
C448   C     0.83335   0.50009   0.33546   0.00000  Uiso   1.00
C449   C     0.87124   0.50611   0.40598   0.00000  Uiso   1.00
C450   C     0.79656   0.50105   0.09355   0.00000  Uiso   1.00
C451   C     0.83389   0.50134   0.38390   0.00000  Uiso   1.00
C452   C     0.91256   0.49999   0.25004   0.00000  Uiso   1.00
C453   C     0.83365   0.50063   0.11629   0.00000  Uiso   1.00
C454   C     0.79689   0.50479   0.40701   0.00000  Uiso   1.00
C455   C     0.87075   0.50378   0.09358   0.00000  Uiso   1.00
C456   C     0.79693   0.51194   0.45331   0.00000  Uiso   1.00
C457   C     0.87097   0.50988   0.04712   0.00000  Uiso   1.00
C458   C     0.83430   0.50979   0.47660   0.00000  Uiso   1.00
C459   C     0.83380   0.50955   0.02362   0.00000  Uiso   1.00
C460   C     0.87206   0.50770   0.45308   0.00000  Uiso   1.00
C461   C     0.79618   0.50912   0.04708   0.00000  Uiso   1.00
C462   C     0.76080   0.52275   0.47706   0.00000  Uiso   1.00
C463   C     0.76004   0.51927   0.02338   0.00000  Uiso   1.00
C464   C     0.90754   0.51714   0.02344   0.00000  Uiso   1.00
C465   C     0.90739   0.51424   0.37911   0.00000  Uiso   1.00
C466   C     0.76015   0.48766   0.11804   0.00000  Uiso   1.00
C467   C     0.75911   0.50063   0.38257   0.00000  Uiso   1.00
C468   C     0.90812   0.49445   0.11775   0.00000  Uiso   1.00
C469   C     0.72887   0.58668   0.44800   0.00000  Uiso   1.00
C470   C     0.69434   0.60240   0.41740   0.00000  Uiso   1.00
C471   C     0.69398   0.65551   0.41142   0.00000  Uiso   1.00
C472   C     0.93815   0.58052   0.05560   0.00000  Uiso   1.00
C473   C     0.95317   0.61189   0.01757   0.00000  Uiso   1.00
C474   C     0.90886   0.50964   0.47779   0.00000  Uiso   1.00
C475   C     0.95118   0.66357   0.03013   0.00000  Uiso   1.00
C476   C     0.72266   0.53171   0.04586   0.00000  Uiso   1.00
C477   C     0.94875   0.50119   0.45880   0.00000  Uiso   1.00
C478   C     0.70907   0.42551   0.29400   0.00000  Uiso   1.00
C479   C     0.95718   0.57092   0.20093   0.00000  Uiso   1.00
C480   C     0.95751   0.43004   0.29997   0.00000  Uiso   1.00
C481   C     0.70924   0.56880   0.19812   0.00000  Uiso   1.00
C482   C     0.68789   0.46345   0.27132   0.00000  Uiso   1.00
C483   C     0.97865   0.53499   0.22604   0.00000  Uiso   1.00
C484   C     0.97867   0.46444   0.27270   0.00000  Uiso   1.00
C485   C     0.68794   0.53456   0.22540   0.00000  Uiso   1.00
C486   C     0.95722   0.49995   0.24978   0.00000  Uiso   1.00
Cu487  Cu    0.83333   0.54689   0.25000   0.00000  Uiso   1.00
Cu488  Cu    0.83333   0.45311   0.25000   0.00000  Uiso   1.00
H489   H     0.80136   0.37701   0.18917   0.00000  Uiso   1.00
H490   H     0.66882   0.66572   0.38884   0.00000  Uiso   1.00
H491   H     0.72324   0.33422   0.39672   0.00000  Uiso   1.00
H492   H     0.95712   0.58727   0.08531   0.00000  Uiso   1.00
H493   H     0.90648   0.59059   0.06524   0.00000  Uiso   1.00
H494   H     0.98514   0.60267   0.00935   0.00000  Uiso   1.00
H495   H     0.93415   0.60620   0.48769   0.00000  Uiso   1.00
H496   H     0.91934   0.34051   0.03809   0.00000  Uiso   1.00
H497   H     0.96206   0.35197   0.00186   0.00000  Uiso   1.00
H498   H     0.97083   0.33713   0.05928   0.00000  Uiso   1.00
H499   H     0.86526   0.62299   0.31086   0.00000  Uiso   1.00
H500   H     0.86445   0.37634   0.31126   0.00000  Uiso   1.00
H501   H     0.80212   0.62365   0.18879   0.00000  Uiso   1.00
H502   H     0.75833   0.59631   0.43183   0.00000  Uiso   1.00
H503   H     0.72617   0.60557   0.48014   0.00000  Uiso   1.00
H504   H     0.69815   0.58571   0.38440   0.00000  Uiso   1.00
H505   H     0.99793   0.59112   0.43137   0.00000  Uiso   1.00
H506   H     0.68919   0.33970   0.44388   0.00000  Uiso   1.00
N507   N     0.83333   0.61736   0.25000   0.00000  Uiso   1.00
N508   N     0.94014   0.59953   0.18094   0.00000  Uiso   1.00
N509   N     0.94108   0.40263   0.32199   0.00000  Uiso   1.00
N510   N     0.72583   0.59606   0.17609   0.00000  Uiso   1.00
N511   N     0.83333   0.38264   0.25000   0.00000  Uiso   1.00
N512   N     0.93597   0.52131   0.35751   0.00000  Uiso   1.00
N513   N     0.73138   0.47649   0.13768   0.00000  Uiso   1.00
N514   N     0.72884   0.49766   0.36332   0.00000  Uiso   1.00
N515   N     0.93788   0.48648   0.13680   0.00000  Uiso   1.00
N516   N     0.69305   0.54181   0.06435   0.00000  Uiso   1.00
N517   N     0.98069   0.49385   0.44402   0.00000  Uiso   1.00
N518   N     0.72580   0.39526   0.31204   0.00000  Uiso   1.00
O519   O     0.77321   0.53958   0.24999   0.00000  Uiso   1.00
O520   O     0.94250   0.53242   0.04448   0.00000  Uiso   1.00
O521   O     0.89345   0.46042   0.25000   0.00000  Uiso   1.00
O522   O     0.89345   0.53958   0.25000   0.00000  Uiso   1.00
O523   O     0.77321   0.46042   0.24999   0.00000  Uiso   1.00
O524   O     0.83332   0.53960   0.18513   0.00000  Uiso   1.00
O525   O     0.83334   0.46040   0.31487   0.00000  Uiso   1.00
O526   O     0.83334   0.53960   0.31487   0.00000  Uiso   1.00
O527   O     0.83332   0.46040   0.18513   0.00000  Uiso   1.00
O528   O     0.72602   0.53779   0.45529   0.00000  Uiso   1.00
C529   C     0.08742   0.83325   0.24951   0.00000  Uiso   1.00
C530   C     0.04273   0.83272   0.24879   0.00000  Uiso   1.00
C531   C     0.14902   0.69163   0.21620   0.00000  Uiso   1.00
C532   C     0.18429   0.97503   0.28382   0.00000  Uiso   1.00
C533   C     0.18410   0.69126   0.28391   0.00000  Uiso   1.00
C534   C     0.14919   0.97540   0.21612   0.00000  Uiso   1.00
C535   C     0.16685   0.83338   0.16460   0.00000  Uiso   1.00
C536   C     0.16668   0.83343   0.33546   0.00000  Uiso   1.00
C537   C     0.20457   0.83945   0.40598   0.00000  Uiso   1.00
C538   C     0.12990   0.83438   0.09355   0.00000  Uiso   1.00
C539   C     0.16722   0.83467   0.38390   0.00000  Uiso   1.00
C540   C     0.24589   0.83332   0.25004   0.00000  Uiso   1.00
C541   C     0.16698   0.83397   0.11629   0.00000  Uiso   1.00
C542   C     0.13023   0.83812   0.40701   0.00000  Uiso   1.00
C543   C     0.20409   0.83711   0.09358   0.00000  Uiso   1.00
C544   C     0.13026   0.84528   0.45331   0.00000  Uiso   1.00
C545   C     0.20430   0.84322   0.04712   0.00000  Uiso   1.00
C546   C     0.16763   0.84312   0.47660   0.00000  Uiso   1.00
C547   C     0.16714   0.84289   0.02362   0.00000  Uiso   1.00
C548   C     0.20540   0.84104   0.45308   0.00000  Uiso   1.00
C549   C     0.12952   0.84245   0.04708   0.00000  Uiso   1.00
C550   C     0.09414   0.85609   0.47706   0.00000  Uiso   1.00
C551   C     0.09337   0.85261   0.02338   0.00000  Uiso   1.00
C552   C     0.24087   0.85047   0.02344   0.00000  Uiso   1.00
C553   C     0.24072   0.84757   0.37911   0.00000  Uiso   1.00
C554   C     0.09349   0.82099   0.11804   0.00000  Uiso   1.00
C555   C     0.09244   0.83396   0.38257   0.00000  Uiso   1.00
C556   C     0.24146   0.82778   0.11775   0.00000  Uiso   1.00
C557   C     0.06220   0.92001   0.44800   0.00000  Uiso   1.00
C558   C     0.02768   0.93574   0.41740   0.00000  Uiso   1.00
C559   C     0.02732   0.98885   0.41142   0.00000  Uiso   1.00
C560   C     0.27148   0.91385   0.05560   0.00000  Uiso   1.00
C561   C     0.28650   0.94522   0.01757   0.00000  Uiso   1.00
C562   C     0.24219   0.84298   0.47779   0.00000  Uiso   1.00
C563   C     0.28451   0.99690   0.03013   0.00000  Uiso   1.00
C564   C     0.05599   0.86504   0.04586   0.00000  Uiso   1.00
C565   C     0.28208   0.83452   0.45880   0.00000  Uiso   1.00
C566   C     0.04240   0.75884   0.29400   0.00000  Uiso   1.00
C567   C     0.29051   0.90426   0.20093   0.00000  Uiso   1.00
C568   C     0.29084   0.76338   0.29997   0.00000  Uiso   1.00
C569   C     0.04258   0.90213   0.19812   0.00000  Uiso   1.00
C570   C     0.02123   0.79679   0.27132   0.00000  Uiso   1.00
C571   C     0.31198   0.86832   0.22604   0.00000  Uiso   1.00
C572   C     0.31200   0.79777   0.27270   0.00000  Uiso   1.00
C573   C     0.02128   0.86789   0.22540   0.00000  Uiso   1.00
C574   C     0.29055   0.83328   0.24978   0.00000  Uiso   1.00
Cu575  Cu    0.16667   0.88022   0.25000   0.00000  Uiso   1.00
Cu576  Cu    0.16667   0.78645   0.25000   0.00000  Uiso   1.00
H577   H     0.13470   0.71034   0.18917   0.00000  Uiso   1.00
H578   H     0.00215   0.99905   0.38884   0.00000  Uiso   1.00
H579   H     0.05658   0.66755   0.39672   0.00000  Uiso   1.00
H580   H     0.29046   0.92060   0.08531   0.00000  Uiso   1.00
H581   H     0.23981   0.92392   0.06524   0.00000  Uiso   1.00
H582   H     0.31848   0.93600   0.00935   0.00000  Uiso   1.00
H583   H     0.26748   0.93953   0.48769   0.00000  Uiso   1.00
H584   H     0.25268   0.67385   0.03809   0.00000  Uiso   1.00
H585   H     0.29539   0.68530   0.00186   0.00000  Uiso   1.00
H586   H     0.30417   0.67047   0.05928   0.00000  Uiso   1.00
H587   H     0.19859   0.95632   0.31086   0.00000  Uiso   1.00
H588   H     0.19778   0.70968   0.31126   0.00000  Uiso   1.00
H589   H     0.13545   0.95698   0.18879   0.00000  Uiso   1.00
H590   H     0.09167   0.92965   0.43183   0.00000  Uiso   1.00
H591   H     0.05951   0.93890   0.48014   0.00000  Uiso   1.00
H592   H     0.03148   0.91905   0.38440   0.00000  Uiso   1.00
H593   H     0.33126   0.92445   0.43137   0.00000  Uiso   1.00
H594   H     0.02252   0.67303   0.44388   0.00000  Uiso   1.00
N595   N     0.16667   0.95069   0.25000   0.00000  Uiso   1.00
N596   N     0.27348   0.93287   0.18094   0.00000  Uiso   1.00
N597   N     0.27441   0.73597   0.32199   0.00000  Uiso   1.00
N598   N     0.05917   0.92940   0.17609   0.00000  Uiso   1.00
N599   N     0.16667   0.71598   0.25000   0.00000  Uiso   1.00
N600   N     0.26930   0.85464   0.35751   0.00000  Uiso   1.00
N601   N     0.06471   0.80982   0.13768   0.00000  Uiso   1.00
N602   N     0.06217   0.83099   0.36332   0.00000  Uiso   1.00
N603   N     0.27121   0.81982   0.13680   0.00000  Uiso   1.00
N604   N     0.02639   0.87514   0.06435   0.00000  Uiso   1.00
N605   N     0.31403   0.82718   0.44402   0.00000  Uiso   1.00
N606   N     0.05914   0.72859   0.31204   0.00000  Uiso   1.00
O607   O     0.10655   0.87291   0.24999   0.00000  Uiso   1.00
O608   O     0.27584   0.86575   0.04448   0.00000  Uiso   1.00
O609   O     0.22679   0.79375   0.25000   0.00000  Uiso   1.00
O610   O     0.22679   0.87291   0.25000   0.00000  Uiso   1.00
O611   O     0.10655   0.79375   0.24999   0.00000  Uiso   1.00
O612   O     0.16666   0.87293   0.18513   0.00000  Uiso   1.00
O613   O     0.16668   0.79373   0.31487   0.00000  Uiso   1.00
O614   O     0.16668   0.87293   0.31487   0.00000  Uiso   1.00
O615   O     0.16666   0.79373   0.18513   0.00000  Uiso   1.00
O616   O     0.05935   0.87112   0.45529   0.00000  Uiso   1.00
C617   C     0.42076   0.83325   0.24951   0.00000  Uiso   1.00
C618   C     0.37606   0.83272   0.24879   0.00000  Uiso   1.00
C619   C     0.48235   0.69163   0.21620   0.00000  Uiso   1.00
C620   C     0.51762   0.97503   0.28382   0.00000  Uiso   1.00
C621   C     0.51743   0.69126   0.28391   0.00000  Uiso   1.00
C622   C     0.48253   0.97540   0.21612   0.00000  Uiso   1.00
C623   C     0.50019   0.83338   0.16460   0.00000  Uiso   1.00
C624   C     0.50002   0.83343   0.33546   0.00000  Uiso   1.00
C625   C     0.53790   0.83945   0.40598   0.00000  Uiso   1.00
C626   C     0.46323   0.83438   0.09355   0.00000  Uiso   1.00
C627   C     0.50055   0.83467   0.38390   0.00000  Uiso   1.00
C628   C     0.57922   0.83332   0.25004   0.00000  Uiso   1.00
C629   C     0.50032   0.83397   0.11629   0.00000  Uiso   1.00
C630   C     0.46356   0.83812   0.40701   0.00000  Uiso   1.00
C631   C     0.53742   0.83711   0.09358   0.00000  Uiso   1.00
C632   C     0.46360   0.84528   0.45331   0.00000  Uiso   1.00
C633   C     0.53764   0.84322   0.04712   0.00000  Uiso   1.00
C634   C     0.50097   0.84312   0.47660   0.00000  Uiso   1.00
C635   C     0.50047   0.84289   0.02362   0.00000  Uiso   1.00
C636   C     0.53873   0.84104   0.45308   0.00000  Uiso   1.00
C637   C     0.46285   0.84245   0.04708   0.00000  Uiso   1.00
C638   C     0.42747   0.85609   0.47706   0.00000  Uiso   1.00
C639   C     0.42671   0.85261   0.02338   0.00000  Uiso   1.00
C640   C     0.57421   0.85047   0.02344   0.00000  Uiso   1.00
C641   C     0.57406   0.84757   0.37911   0.00000  Uiso   1.00
C642   C     0.42682   0.82099   0.11804   0.00000  Uiso   1.00
C643   C     0.42577   0.83396   0.38257   0.00000  Uiso   1.00
C644   C     0.57479   0.82778   0.11775   0.00000  Uiso   1.00
C645   C     0.39554   0.92001   0.44800   0.00000  Uiso   1.00
C646   C     0.36101   0.93574   0.41740   0.00000  Uiso   1.00
C647   C     0.36065   0.98885   0.41142   0.00000  Uiso   1.00
C648   C     0.60482   0.91385   0.05560   0.00000  Uiso   1.00
C649   C     0.61984   0.94522   0.01757   0.00000  Uiso   1.00
C650   C     0.57552   0.84298   0.47779   0.00000  Uiso   1.00
C651   C     0.61784   0.99690   0.03013   0.00000  Uiso   1.00
C652   C     0.38932   0.86504   0.04586   0.00000  Uiso   1.00
C653   C     0.61541   0.83452   0.45880   0.00000  Uiso   1.00
C654   C     0.37574   0.75884   0.29400   0.00000  Uiso   1.00
C655   C     0.62384   0.90426   0.20093   0.00000  Uiso   1.00
C656   C     0.62417   0.76338   0.29997   0.00000  Uiso   1.00
C657   C     0.37591   0.90213   0.19812   0.00000  Uiso   1.00
C658   C     0.35456   0.79679   0.27132   0.00000  Uiso   1.00
C659   C     0.64531   0.86832   0.22604   0.00000  Uiso   1.00
C660   C     0.64533   0.79777   0.27270   0.00000  Uiso   1.00
C661   C     0.35461   0.86789   0.22540   0.00000  Uiso   1.00
C662   C     0.62388   0.83328   0.24978   0.00000  Uiso   1.00
Cu663  Cu    0.50000   0.88022   0.25000   0.00000  Uiso   1.00
Cu664  Cu    0.50000   0.78645   0.25000   0.00000  Uiso   1.00
H665   H     0.46803   0.71034   0.18917   0.00000  Uiso   1.00
H666   H     0.33548   0.99905   0.38884   0.00000  Uiso   1.00
H667   H     0.38991   0.66755   0.39672   0.00000  Uiso   1.00
H668   H     0.62379   0.92060   0.08531   0.00000  Uiso   1.00
H669   H     0.57315   0.92392   0.06524   0.00000  Uiso   1.00
H670   H     0.65181   0.93600   0.00935   0.00000  Uiso   1.00
H671   H     0.60081   0.93953   0.48769   0.00000  Uiso   1.00
H672   H     0.58601   0.67385   0.03809   0.00000  Uiso   1.00
H673   H     0.62873   0.68530   0.00186   0.00000  Uiso   1.00
H674   H     0.63750   0.67047   0.05928   0.00000  Uiso   1.00
H675   H     0.53192   0.95632   0.31086   0.00000  Uiso   1.00
H676   H     0.53112   0.70968   0.31126   0.00000  Uiso   1.00
H677   H     0.46878   0.95698   0.18879   0.00000  Uiso   1.00
H678   H     0.42500   0.92965   0.43183   0.00000  Uiso   1.00
H679   H     0.39284   0.93890   0.48014   0.00000  Uiso   1.00
H680   H     0.36482   0.91905   0.38440   0.00000  Uiso   1.00
H681   H     0.66459   0.92445   0.43137   0.00000  Uiso   1.00
H682   H     0.35585   0.67303   0.44388   0.00000  Uiso   1.00
N683   N     0.50000   0.95069   0.25000   0.00000  Uiso   1.00
N684   N     0.60681   0.93287   0.18094   0.00000  Uiso   1.00
N685   N     0.60775   0.73597   0.32199   0.00000  Uiso   1.00
N686   N     0.39250   0.92940   0.17609   0.00000  Uiso   1.00
N687   N     0.50000   0.71598   0.25000   0.00000  Uiso   1.00
N688   N     0.60263   0.85464   0.35751   0.00000  Uiso   1.00
N689   N     0.39804   0.80982   0.13768   0.00000  Uiso   1.00
N690   N     0.39551   0.83099   0.36332   0.00000  Uiso   1.00
N691   N     0.60455   0.81982   0.13680   0.00000  Uiso   1.00
N692   N     0.35972   0.87514   0.06435   0.00000  Uiso   1.00
N693   N     0.64736   0.82718   0.44402   0.00000  Uiso   1.00
N694   N     0.39247   0.72859   0.31204   0.00000  Uiso   1.00
O695   O     0.43988   0.87291   0.24999   0.00000  Uiso   1.00
O696   O     0.60917   0.86575   0.04448   0.00000  Uiso   1.00
O697   O     0.56012   0.79375   0.25000   0.00000  Uiso   1.00
O698   O     0.56012   0.87291   0.25000   0.00000  Uiso   1.00
O699   O     0.43988   0.79375   0.24999   0.00000  Uiso   1.00
O700   O     0.49999   0.87293   0.18513   0.00000  Uiso   1.00
O701   O     0.50001   0.79373   0.31487   0.00000  Uiso   1.00
O702   O     0.50001   0.87293   0.31487   0.00000  Uiso   1.00
O703   O     0.49999   0.79373   0.18513   0.00000  Uiso   1.00
O704   O     0.39268   0.87112   0.45529   0.00000  Uiso   1.00
C705   C     0.75409   0.83325   0.24951   0.00000  Uiso   1.00
C706   C     0.70940   0.83272   0.24879   0.00000  Uiso   1.00
C707   C     0.81569   0.69163   0.21620   0.00000  Uiso   1.00
C708   C     0.85095   0.97503   0.28382   0.00000  Uiso   1.00
C709   C     0.85077   0.69126   0.28391   0.00000  Uiso   1.00
C710   C     0.81586   0.97540   0.21612   0.00000  Uiso   1.00
C711   C     0.83352   0.83338   0.16460   0.00000  Uiso   1.00
C712   C     0.83335   0.83343   0.33546   0.00000  Uiso   1.00
C713   C     0.87124   0.83945   0.40598   0.00000  Uiso   1.00
C714   C     0.79656   0.83438   0.09355   0.00000  Uiso   1.00
C715   C     0.83389   0.83467   0.38390   0.00000  Uiso   1.00
C716   C     0.91256   0.83332   0.25004   0.00000  Uiso   1.00
C717   C     0.83365   0.83397   0.11629   0.00000  Uiso   1.00
C718   C     0.79689   0.83812   0.40701   0.00000  Uiso   1.00
C719   C     0.87075   0.83711   0.09358   0.00000  Uiso   1.00
C720   C     0.79693   0.84528   0.45331   0.00000  Uiso   1.00
C721   C     0.87097   0.84322   0.04712   0.00000  Uiso   1.00
C722   C     0.83430   0.84312   0.47660   0.00000  Uiso   1.00
C723   C     0.83380   0.84289   0.02362   0.00000  Uiso   1.00
C724   C     0.87206   0.84104   0.45308   0.00000  Uiso   1.00
C725   C     0.79618   0.84245   0.04708   0.00000  Uiso   1.00
C726   C     0.76080   0.85609   0.47706   0.00000  Uiso   1.00
C727   C     0.76004   0.85261   0.02338   0.00000  Uiso   1.00
C728   C     0.90754   0.85047   0.02344   0.00000  Uiso   1.00
C729   C     0.90739   0.84757   0.37911   0.00000  Uiso   1.00
C730   C     0.76015   0.82099   0.11804   0.00000  Uiso   1.00
C731   C     0.75911   0.83396   0.38257   0.00000  Uiso   1.00
C732   C     0.90812   0.82778   0.11775   0.00000  Uiso   1.00
C733   C     0.72887   0.92001   0.44800   0.00000  Uiso   1.00
C734   C     0.69434   0.93574   0.41740   0.00000  Uiso   1.00
C735   C     0.69398   0.98885   0.41142   0.00000  Uiso   1.00
C736   C     0.93815   0.91385   0.05560   0.00000  Uiso   1.00
C737   C     0.95317   0.94522   0.01757   0.00000  Uiso   1.00
C738   C     0.90886   0.84298   0.47779   0.00000  Uiso   1.00
C739   C     0.95118   0.99690   0.03013   0.00000  Uiso   1.00
C740   C     0.72266   0.86504   0.04586   0.00000  Uiso   1.00
C741   C     0.94875   0.83452   0.45880   0.00000  Uiso   1.00
C742   C     0.70907   0.75884   0.29400   0.00000  Uiso   1.00
C743   C     0.95718   0.90426   0.20093   0.00000  Uiso   1.00
C744   C     0.95751   0.76338   0.29997   0.00000  Uiso   1.00
C745   C     0.70924   0.90213   0.19812   0.00000  Uiso   1.00
C746   C     0.68789   0.79679   0.27132   0.00000  Uiso   1.00
C747   C     0.97865   0.86832   0.22604   0.00000  Uiso   1.00
C748   C     0.97867   0.79777   0.27270   0.00000  Uiso   1.00
C749   C     0.68794   0.86789   0.22540   0.00000  Uiso   1.00
C750   C     0.95722   0.83328   0.24978   0.00000  Uiso   1.00
Cu751  Cu    0.83333   0.88022   0.25000   0.00000  Uiso   1.00
Cu752  Cu    0.83333   0.78645   0.25000   0.00000  Uiso   1.00
H753   H     0.80136   0.71034   0.18917   0.00000  Uiso   1.00
H754   H     0.66882   0.99905   0.38884   0.00000  Uiso   1.00
H755   H     0.72324   0.66755   0.39672   0.00000  Uiso   1.00
H756   H     0.95712   0.92060   0.08531   0.00000  Uiso   1.00
H757   H     0.90648   0.92392   0.06524   0.00000  Uiso   1.00
H758   H     0.98514   0.93600   0.00935   0.00000  Uiso   1.00
H759   H     0.93415   0.93953   0.48769   0.00000  Uiso   1.00
H760   H     0.91934   0.67385   0.03809   0.00000  Uiso   1.00
H761   H     0.96206   0.68530   0.00186   0.00000  Uiso   1.00
H762   H     0.97083   0.67047   0.05928   0.00000  Uiso   1.00
H763   H     0.86526   0.95632   0.31086   0.00000  Uiso   1.00
H764   H     0.86445   0.70968   0.31126   0.00000  Uiso   1.00
H765   H     0.80212   0.95698   0.18879   0.00000  Uiso   1.00
H766   H     0.75833   0.92965   0.43183   0.00000  Uiso   1.00
H767   H     0.72617   0.93890   0.48014   0.00000  Uiso   1.00
H768   H     0.69815   0.91905   0.38440   0.00000  Uiso   1.00
H769   H     0.99793   0.92445   0.43137   0.00000  Uiso   1.00
H770   H     0.68919   0.67303   0.44388   0.00000  Uiso   1.00
N771   N     0.83333   0.95069   0.25000   0.00000  Uiso   1.00
N772   N     0.94014   0.93287   0.18094   0.00000  Uiso   1.00
N773   N     0.94108   0.73597   0.32199   0.00000  Uiso   1.00
N774   N     0.72583   0.92940   0.17609   0.00000  Uiso   1.00
N775   N     0.83333   0.71598   0.25000   0.00000  Uiso   1.00
N776   N     0.93597   0.85464   0.35751   0.00000  Uiso   1.00
N777   N     0.73138   0.80982   0.13768   0.00000  Uiso   1.00
N778   N     0.72884   0.83099   0.36332   0.00000  Uiso   1.00
N779   N     0.93788   0.81982   0.13680   0.00000  Uiso   1.00
N780   N     0.69305   0.87514   0.06435   0.00000  Uiso   1.00
N781   N     0.98069   0.82718   0.44402   0.00000  Uiso   1.00
N782   N     0.72580   0.72859   0.31204   0.00000  Uiso   1.00
O783   O     0.77321   0.87291   0.24999   0.00000  Uiso   1.00
O784   O     0.94250   0.86575   0.04448   0.00000  Uiso   1.00
O785   O     0.89345   0.79375   0.25000   0.00000  Uiso   1.00
O786   O     0.89345   0.87291   0.25000   0.00000  Uiso   1.00
O787   O     0.77321   0.79375   0.24999   0.00000  Uiso   1.00
O788   O     0.83332   0.87293   0.18513   0.00000  Uiso   1.00
O789   O     0.83334   0.79373   0.31487   0.00000  Uiso   1.00
O790   O     0.83334   0.87293   0.31487   0.00000  Uiso   1.00
O791   O     0.83332   0.79373   0.18513   0.00000  Uiso   1.00
O792   O     0.72602   0.87112   0.45529   0.00000  Uiso   1.00
C793   C     0.08742   0.16658   0.74951   0.00000  Uiso   1.00
C794   C     0.04273   0.16605   0.74879   0.00000  Uiso   1.00
C795   C     0.14902   0.02497   0.71620   0.00000  Uiso   1.00
C796   C     0.18429   0.30836   0.78382   0.00000  Uiso   1.00
C797   C     0.18410   0.02460   0.78391   0.00000  Uiso   1.00
C798   C     0.14919   0.30873   0.71612   0.00000  Uiso   1.00
C799   C     0.16685   0.16672   0.66460   0.00000  Uiso   1.00
C800   C     0.16668   0.16676   0.83546   0.00000  Uiso   1.00
C801   C     0.20457   0.17278   0.90598   0.00000  Uiso   1.00
C802   C     0.12990   0.16771   0.59355   0.00000  Uiso   1.00
C803   C     0.16722   0.16801   0.88390   0.00000  Uiso   1.00
C804   C     0.24589   0.16665   0.75004   0.00000  Uiso   1.00
C805   C     0.16698   0.16730   0.61629   0.00000  Uiso   1.00
C806   C     0.13023   0.17146   0.90701   0.00000  Uiso   1.00
C807   C     0.20409   0.17045   0.59358   0.00000  Uiso   1.00
C808   C     0.13026   0.17861   0.95331   0.00000  Uiso   1.00
C809   C     0.20430   0.17655   0.54712   0.00000  Uiso   1.00
C810   C     0.16763   0.17645   0.97660   0.00000  Uiso   1.00
C811   C     0.16714   0.17622   0.52362   0.00000  Uiso   1.00
C812   C     0.20540   0.17437   0.95308   0.00000  Uiso   1.00
C813   C     0.12952   0.17578   0.54708   0.00000  Uiso   1.00
C814   C     0.09414   0.18942   0.97706   0.00000  Uiso   1.00
C815   C     0.09337   0.18594   0.52338   0.00000  Uiso   1.00
C816   C     0.24087   0.18380   0.52344   0.00000  Uiso   1.00
C817   C     0.24072   0.18091   0.87911   0.00000  Uiso   1.00
C818   C     0.09349   0.15433   0.61804   0.00000  Uiso   1.00
C819   C     0.09244   0.16729   0.88257   0.00000  Uiso   1.00
C820   C     0.24146   0.16112   0.61775   0.00000  Uiso   1.00
C821   C     0.06220   0.25334   0.94800   0.00000  Uiso   1.00
C822   C     0.02768   0.26907   0.91740   0.00000  Uiso   1.00
C823   C     0.02732   0.32218   0.91142   0.00000  Uiso   1.00
C824   C     0.27148   0.24719   0.55560   0.00000  Uiso   1.00
C825   C     0.28650   0.27856   0.51757   0.00000  Uiso   1.00
C826   C     0.24219   0.17631   0.97779   0.00000  Uiso   1.00
C827   C     0.28451   0.33024   0.53013   0.00000  Uiso   1.00
C828   C     0.05599   0.19838   0.54586   0.00000  Uiso   1.00
C829   C     0.28208   0.16786   0.95880   0.00000  Uiso   1.00
C830   C     0.04240   0.09217   0.79400   0.00000  Uiso   1.00
C831   C     0.29051   0.23759   0.70093   0.00000  Uiso   1.00
C832   C     0.29084   0.09671   0.79997   0.00000  Uiso   1.00
C833   C     0.04258   0.23546   0.69812   0.00000  Uiso   1.00
C834   C     0.02123   0.13012   0.77132   0.00000  Uiso   1.00
C835   C     0.31198   0.20166   0.72604   0.00000  Uiso   1.00
C836   C     0.31200   0.13111   0.77270   0.00000  Uiso   1.00
C837   C     0.02128   0.20122   0.72540   0.00000  Uiso   1.00
C838   C     0.29055   0.16662   0.74978   0.00000  Uiso   1.00
Cu839  Cu    0.16667   0.21355   0.75000   0.00000  Uiso   1.00
Cu840  Cu    0.16667   0.11978   0.75000   0.00000  Uiso   1.00
H841   H     0.13470   0.04367   0.68917   0.00000  Uiso   1.00
H842   H     0.00215   0.33238   0.88884   0.00000  Uiso   1.00
H843   H     0.05658   0.00088   0.89672   0.00000  Uiso   1.00
H844   H     0.29046   0.25394   0.58531   0.00000  Uiso   1.00
H845   H     0.23981   0.25725   0.56524   0.00000  Uiso   1.00
H846   H     0.31848   0.26933   0.50935   0.00000  Uiso   1.00
H847   H     0.26748   0.27287   0.98769   0.00000  Uiso   1.00
H848   H     0.25268   0.00718   0.53809   0.00000  Uiso   1.00
H849   H     0.29539   0.01863   0.50186   0.00000  Uiso   1.00
H850   H     0.30417   0.00380   0.55928   0.00000  Uiso   1.00
H851   H     0.19859   0.28966   0.81086   0.00000  Uiso   1.00
H852   H     0.19778   0.04301   0.81126   0.00000  Uiso   1.00
H853   H     0.13545   0.29032   0.68879   0.00000  Uiso   1.00
H854   H     0.09167   0.26298   0.93183   0.00000  Uiso   1.00
H855   H     0.05951   0.27223   0.98014   0.00000  Uiso   1.00
H856   H     0.03148   0.25238   0.88440   0.00000  Uiso   1.00
H857   H     0.33126   0.25779   0.93137   0.00000  Uiso   1.00
H858   H     0.02252   0.00637   0.94388   0.00000  Uiso   1.00
N859   N     0.16667   0.28402   0.75000   0.00000  Uiso   1.00
N860   N     0.27348   0.26620   0.68094   0.00000  Uiso   1.00
N861   N     0.27441   0.06930   0.82199   0.00000  Uiso   1.00
N862   N     0.05917   0.26273   0.67609   0.00000  Uiso   1.00
N863   N     0.16667   0.04931   0.75000   0.00000  Uiso   1.00
N864   N     0.26930   0.18798   0.85751   0.00000  Uiso   1.00
N865   N     0.06471   0.14316   0.63768   0.00000  Uiso   1.00
N866   N     0.06217   0.16433   0.86332   0.00000  Uiso   1.00
N867   N     0.27121   0.15315   0.63680   0.00000  Uiso   1.00
N868   N     0.02639   0.20848   0.56435   0.00000  Uiso   1.00
N869   N     0.31403   0.16052   0.94402   0.00000  Uiso   1.00
N870   N     0.05914   0.06192   0.81204   0.00000  Uiso   1.00
O871   O     0.10655   0.20625   0.74999   0.00000  Uiso   1.00
O872   O     0.27584   0.19908   0.54448   0.00000  Uiso   1.00
O873   O     0.22679   0.12709   0.75000   0.00000  Uiso   1.00
O874   O     0.22679   0.20625   0.75000   0.00000  Uiso   1.00
O875   O     0.10655   0.12709   0.74999   0.00000  Uiso   1.00
O876   O     0.16666   0.20627   0.68513   0.00000  Uiso   1.00
O877   O     0.16668   0.12707   0.81487   0.00000  Uiso   1.00
O878   O     0.16668   0.20627   0.81487   0.00000  Uiso   1.00
O879   O     0.16666   0.12707   0.68513   0.00000  Uiso   1.00
O880   O     0.05935   0.20446   0.95529   0.00000  Uiso   1.00
C881   C     0.42076   0.16658   0.74951   0.00000  Uiso   1.00
C882   C     0.37606   0.16605   0.74879   0.00000  Uiso   1.00
C883   C     0.48235   0.02497   0.71620   0.00000  Uiso   1.00
C884   C     0.51762   0.30836   0.78382   0.00000  Uiso   1.00
C885   C     0.51743   0.02460   0.78391   0.00000  Uiso   1.00
C886   C     0.48253   0.30873   0.71612   0.00000  Uiso   1.00
C887   C     0.50019   0.16672   0.66460   0.00000  Uiso   1.00
C888   C     0.50002   0.16676   0.83546   0.00000  Uiso   1.00
C889   C     0.53790   0.17278   0.90598   0.00000  Uiso   1.00
C890   C     0.46323   0.16771   0.59355   0.00000  Uiso   1.00
C891   C     0.50055   0.16801   0.88390   0.00000  Uiso   1.00
C892   C     0.57922   0.16665   0.75004   0.00000  Uiso   1.00
C893   C     0.50032   0.16730   0.61629   0.00000  Uiso   1.00
C894   C     0.46356   0.17146   0.90701   0.00000  Uiso   1.00
C895   C     0.53742   0.17045   0.59358   0.00000  Uiso   1.00
C896   C     0.46360   0.17861   0.95331   0.00000  Uiso   1.00
C897   C     0.53764   0.17655   0.54712   0.00000  Uiso   1.00
C898   C     0.50097   0.17645   0.97660   0.00000  Uiso   1.00
C899   C     0.50047   0.17622   0.52362   0.00000  Uiso   1.00
C900   C     0.53873   0.17437   0.95308   0.00000  Uiso   1.00
C901   C     0.46285   0.17578   0.54708   0.00000  Uiso   1.00
C902   C     0.42747   0.18942   0.97706   0.00000  Uiso   1.00
C903   C     0.42671   0.18594   0.52338   0.00000  Uiso   1.00
C904   C     0.57421   0.18380   0.52344   0.00000  Uiso   1.00
C905   C     0.57406   0.18091   0.87911   0.00000  Uiso   1.00
C906   C     0.42682   0.15433   0.61804   0.00000  Uiso   1.00
C907   C     0.42577   0.16729   0.88257   0.00000  Uiso   1.00
C908   C     0.57479   0.16112   0.61775   0.00000  Uiso   1.00
C909   C     0.39554   0.25334   0.94800   0.00000  Uiso   1.00
C910   C     0.36101   0.26907   0.91740   0.00000  Uiso   1.00
C911   C     0.36065   0.32218   0.91142   0.00000  Uiso   1.00
C912   C     0.60482   0.24719   0.55560   0.00000  Uiso   1.00
C913   C     0.61984   0.27856   0.51757   0.00000  Uiso   1.00
C914   C     0.57552   0.17631   0.97779   0.00000  Uiso   1.00
C915   C     0.61784   0.33024   0.53013   0.00000  Uiso   1.00
C916   C     0.38932   0.19838   0.54586   0.00000  Uiso   1.00
C917   C     0.61541   0.16786   0.95880   0.00000  Uiso   1.00
C918   C     0.37574   0.09217   0.79400   0.00000  Uiso   1.00
C919   C     0.62384   0.23759   0.70093   0.00000  Uiso   1.00
C920   C     0.62417   0.09671   0.79997   0.00000  Uiso   1.00
C921   C     0.37591   0.23546   0.69812   0.00000  Uiso   1.00
C922   C     0.35456   0.13012   0.77132   0.00000  Uiso   1.00
C923   C     0.64531   0.20166   0.72604   0.00000  Uiso   1.00
C924   C     0.64533   0.13111   0.77270   0.00000  Uiso   1.00
C925   C     0.35461   0.20122   0.72540   0.00000  Uiso   1.00
C926   C     0.62388   0.16662   0.74978   0.00000  Uiso   1.00
Cu927  Cu    0.50000   0.21355   0.75000   0.00000  Uiso   1.00
Cu928  Cu    0.50000   0.11978   0.75000   0.00000  Uiso   1.00
H929   H     0.46803   0.04367   0.68917   0.00000  Uiso   1.00
H930   H     0.33548   0.33238   0.88884   0.00000  Uiso   1.00
H931   H     0.38991   0.00088   0.89672   0.00000  Uiso   1.00
H932   H     0.62379   0.25394   0.58531   0.00000  Uiso   1.00
H933   H     0.57315   0.25725   0.56524   0.00000  Uiso   1.00
H934   H     0.65181   0.26933   0.50935   0.00000  Uiso   1.00
H935   H     0.60081   0.27287   0.98769   0.00000  Uiso   1.00
H936   H     0.58601   0.00718   0.53809   0.00000  Uiso   1.00
H937   H     0.62873   0.01863   0.50186   0.00000  Uiso   1.00
H938   H     0.63750   0.00380   0.55928   0.00000  Uiso   1.00
H939   H     0.53192   0.28966   0.81086   0.00000  Uiso   1.00
H940   H     0.53112   0.04301   0.81126   0.00000  Uiso   1.00
H941   H     0.46878   0.29032   0.68879   0.00000  Uiso   1.00
H942   H     0.42500   0.26298   0.93183   0.00000  Uiso   1.00
H943   H     0.39284   0.27223   0.98014   0.00000  Uiso   1.00
H944   H     0.36482   0.25238   0.88440   0.00000  Uiso   1.00
H945   H     0.66459   0.25779   0.93137   0.00000  Uiso   1.00
H946   H     0.35585   0.00637   0.94388   0.00000  Uiso   1.00
N947   N     0.50000   0.28402   0.75000   0.00000  Uiso   1.00
N948   N     0.60681   0.26620   0.68094   0.00000  Uiso   1.00
N949   N     0.60775   0.06930   0.82199   0.00000  Uiso   1.00
N950   N     0.39250   0.26273   0.67609   0.00000  Uiso   1.00
N951   N     0.50000   0.04931   0.75000   0.00000  Uiso   1.00
N952   N     0.60263   0.18798   0.85751   0.00000  Uiso   1.00
N953   N     0.39804   0.14316   0.63768   0.00000  Uiso   1.00
N954   N     0.39551   0.16433   0.86332   0.00000  Uiso   1.00
N955   N     0.60455   0.15315   0.63680   0.00000  Uiso   1.00
N956   N     0.35972   0.20848   0.56435   0.00000  Uiso   1.00
N957   N     0.64736   0.16052   0.94402   0.00000  Uiso   1.00
N958   N     0.39247   0.06192   0.81204   0.00000  Uiso   1.00
O959   O     0.43988   0.20625   0.74999   0.00000  Uiso   1.00
O960   O     0.60917   0.19908   0.54448   0.00000  Uiso   1.00
O961   O     0.56012   0.12709   0.75000   0.00000  Uiso   1.00
O962   O     0.56012   0.20625   0.75000   0.00000  Uiso   1.00
O963   O     0.43988   0.12709   0.74999   0.00000  Uiso   1.00
O964   O     0.49999   0.20627   0.68513   0.00000  Uiso   1.00
O965   O     0.50001   0.12707   0.81487   0.00000  Uiso   1.00
O966   O     0.50001   0.20627   0.81487   0.00000  Uiso   1.00
O967   O     0.49999   0.12707   0.68513   0.00000  Uiso   1.00
O968   O     0.39268   0.20446   0.95529   0.00000  Uiso   1.00
C969   C     0.75409   0.16658   0.74951   0.00000  Uiso   1.00
C970   C     0.70940   0.16605   0.74879   0.00000  Uiso   1.00
C971   C     0.81569   0.02497   0.71620   0.00000  Uiso   1.00
C972   C     0.85095   0.30836   0.78382   0.00000  Uiso   1.00
C973   C     0.85077   0.02460   0.78391   0.00000  Uiso   1.00
C974   C     0.81586   0.30873   0.71612   0.00000  Uiso   1.00
C975   C     0.83352   0.16672   0.66460   0.00000  Uiso   1.00
C976   C     0.83335   0.16676   0.83546   0.00000  Uiso   1.00
C977   C     0.87124   0.17278   0.90598   0.00000  Uiso   1.00
C978   C     0.79656   0.16771   0.59355   0.00000  Uiso   1.00
C979   C     0.83389   0.16801   0.88390   0.00000  Uiso   1.00
C980   C     0.91256   0.16665   0.75004   0.00000  Uiso   1.00
C981   C     0.83365   0.16730   0.61629   0.00000  Uiso   1.00
C982   C     0.79689   0.17146   0.90701   0.00000  Uiso   1.00
C983   C     0.87075   0.17045   0.59358   0.00000  Uiso   1.00
C984   C     0.79693   0.17861   0.95331   0.00000  Uiso   1.00
C985   C     0.87097   0.17655   0.54712   0.00000  Uiso   1.00
C986   C     0.83430   0.17645   0.97660   0.00000  Uiso   1.00
C987   C     0.83380   0.17622   0.52362   0.00000  Uiso   1.00
C988   C     0.87206   0.17437   0.95308   0.00000  Uiso   1.00
C989   C     0.79618   0.17578   0.54708   0.00000  Uiso   1.00
C990   C     0.76080   0.18942   0.97706   0.00000  Uiso   1.00
C991   C     0.76004   0.18594   0.52338   0.00000  Uiso   1.00
C992   C     0.90754   0.18380   0.52344   0.00000  Uiso   1.00
C993   C     0.90739   0.18091   0.87911   0.00000  Uiso   1.00
C994   C     0.76015   0.15433   0.61804   0.00000  Uiso   1.00
C995   C     0.75911   0.16729   0.88257   0.00000  Uiso   1.00
C996   C     0.90812   0.16112   0.61775   0.00000  Uiso   1.00
C997   C     0.72887   0.25334   0.94800   0.00000  Uiso   1.00
C998   C     0.69434   0.26907   0.91740   0.00000  Uiso   1.00
C999   C     0.69398   0.32218   0.91142   0.00000  Uiso   1.00
C1000  C     0.93815   0.24719   0.55560   0.00000  Uiso   1.00
C1001  C     0.95317   0.27856   0.51757   0.00000  Uiso   1.00
C1002  C     0.90886   0.17631   0.97779   0.00000  Uiso   1.00
C1003  C     0.95118   0.33024   0.53013   0.00000  Uiso   1.00
C1004  C     0.72266   0.19838   0.54586   0.00000  Uiso   1.00
C1005  C     0.94875   0.16786   0.95880   0.00000  Uiso   1.00
C1006  C     0.70907   0.09217   0.79400   0.00000  Uiso   1.00
C1007  C     0.95718   0.23759   0.70093   0.00000  Uiso   1.00
C1008  C     0.95751   0.09671   0.79997   0.00000  Uiso   1.00
C1009  C     0.70924   0.23546   0.69812   0.00000  Uiso   1.00
C1010  C     0.68789   0.13012   0.77132   0.00000  Uiso   1.00
C1011  C     0.97865   0.20166   0.72604   0.00000  Uiso   1.00
C1012  C     0.97867   0.13111   0.77270   0.00000  Uiso   1.00
C1013  C     0.68794   0.20122   0.72540   0.00000  Uiso   1.00
C1014  C     0.95722   0.16662   0.74978   0.00000  Uiso   1.00
Cu1015 Cu    0.83333   0.21355   0.75000   0.00000  Uiso   1.00
Cu1016 Cu    0.83333   0.11978   0.75000   0.00000  Uiso   1.00
H1017  H     0.80136   0.04367   0.68917   0.00000  Uiso   1.00
H1018  H     0.66882   0.33238   0.88884   0.00000  Uiso   1.00
H1019  H     0.72324   0.00088   0.89672   0.00000  Uiso   1.00
H1020  H     0.95712   0.25394   0.58531   0.00000  Uiso   1.00
H1021  H     0.90648   0.25725   0.56524   0.00000  Uiso   1.00
H1022  H     0.98514   0.26933   0.50935   0.00000  Uiso   1.00
H1023  H     0.93415   0.27287   0.98769   0.00000  Uiso   1.00
H1024  H     0.91934   0.00718   0.53809   0.00000  Uiso   1.00
H1025  H     0.96206   0.01863   0.50186   0.00000  Uiso   1.00
H1026  H     0.97083   0.00380   0.55928   0.00000  Uiso   1.00
H1027  H     0.86526   0.28966   0.81086   0.00000  Uiso   1.00
H1028  H     0.86445   0.04301   0.81126   0.00000  Uiso   1.00
H1029  H     0.80212   0.29032   0.68879   0.00000  Uiso   1.00
H1030  H     0.75833   0.26298   0.93183   0.00000  Uiso   1.00
H1031  H     0.72617   0.27223   0.98014   0.00000  Uiso   1.00
H1032  H     0.69815   0.25238   0.88440   0.00000  Uiso   1.00
H1033  H     0.99793   0.25779   0.93137   0.00000  Uiso   1.00
H1034  H     0.68919   0.00637   0.94388   0.00000  Uiso   1.00
N1035  N     0.83333   0.28402   0.75000   0.00000  Uiso   1.00
N1036  N     0.94014   0.26620   0.68094   0.00000  Uiso   1.00
N1037  N     0.94108   0.06930   0.82199   0.00000  Uiso   1.00
N1038  N     0.72583   0.26273   0.67609   0.00000  Uiso   1.00
N1039  N     0.83333   0.04931   0.75000   0.00000  Uiso   1.00
N1040  N     0.93597   0.18798   0.85751   0.00000  Uiso   1.00
N1041  N     0.73138   0.14316   0.63768   0.00000  Uiso   1.00
N1042  N     0.72884   0.16433   0.86332   0.00000  Uiso   1.00
N1043  N     0.93788   0.15315   0.63680   0.00000  Uiso   1.00
N1044  N     0.69305   0.20848   0.56435   0.00000  Uiso   1.00
N1045  N     0.98069   0.16052   0.94402   0.00000  Uiso   1.00
N1046  N     0.72580   0.06192   0.81204   0.00000  Uiso   1.00
O1047  O     0.77321   0.20625   0.74999   0.00000  Uiso   1.00
O1048  O     0.94250   0.19908   0.54448   0.00000  Uiso   1.00
O1049  O     0.89345   0.12709   0.75000   0.00000  Uiso   1.00
O1050  O     0.89345   0.20625   0.75000   0.00000  Uiso   1.00
O1051  O     0.77321   0.12709   0.74999   0.00000  Uiso   1.00
O1052  O     0.83332   0.20627   0.68513   0.00000  Uiso   1.00
O1053  O     0.83334   0.12707   0.81487   0.00000  Uiso   1.00
O1054  O     0.83334   0.20627   0.81487   0.00000  Uiso   1.00
O1055  O     0.83332   0.12707   0.68513   0.00000  Uiso   1.00
O1056  O     0.72602   0.20446   0.95529   0.00000  Uiso   1.00
C1057  C     0.08742   0.49992   0.74951   0.00000  Uiso   1.00
C1058  C     0.04273   0.49939   0.74879   0.00000  Uiso   1.00
C1059  C     0.14902   0.35830   0.71620   0.00000  Uiso   1.00
C1060  C     0.18429   0.64170   0.78382   0.00000  Uiso   1.00
C1061  C     0.18410   0.35793   0.78391   0.00000  Uiso   1.00
C1062  C     0.14919   0.64207   0.71612   0.00000  Uiso   1.00
C1063  C     0.16685   0.50005   0.66460   0.00000  Uiso   1.00
C1064  C     0.16668   0.50009   0.83546   0.00000  Uiso   1.00
C1065  C     0.20457   0.50611   0.90598   0.00000  Uiso   1.00
C1066  C     0.12990   0.50105   0.59355   0.00000  Uiso   1.00
C1067  C     0.16722   0.50134   0.88390   0.00000  Uiso   1.00
C1068  C     0.24589   0.49999   0.75004   0.00000  Uiso   1.00
C1069  C     0.16698   0.50063   0.61629   0.00000  Uiso   1.00
C1070  C     0.13023   0.50479   0.90701   0.00000  Uiso   1.00
C1071  C     0.20409   0.50378   0.59358   0.00000  Uiso   1.00
C1072  C     0.13026   0.51194   0.95331   0.00000  Uiso   1.00
C1073  C     0.20430   0.50988   0.54712   0.00000  Uiso   1.00
C1074  C     0.16763   0.50979   0.97660   0.00000  Uiso   1.00
C1075  C     0.16714   0.50955   0.52362   0.00000  Uiso   1.00
C1076  C     0.20540   0.50770   0.95308   0.00000  Uiso   1.00
C1077  C     0.12952   0.50912   0.54708   0.00000  Uiso   1.00
C1078  C     0.09414   0.52275   0.97706   0.00000  Uiso   1.00
C1079  C     0.09337   0.51927   0.52338   0.00000  Uiso   1.00
C1080  C     0.24087   0.51714   0.52344   0.00000  Uiso   1.00
C1081  C     0.24072   0.51424   0.87911   0.00000  Uiso   1.00
C1082  C     0.09349   0.48766   0.61804   0.00000  Uiso   1.00
C1083  C     0.09244   0.50063   0.88257   0.00000  Uiso   1.00
C1084  C     0.24146   0.49445   0.61775   0.00000  Uiso   1.00
C1085  C     0.06220   0.58668   0.94800   0.00000  Uiso   1.00
C1086  C     0.02768   0.60240   0.91740   0.00000  Uiso   1.00
C1087  C     0.02732   0.65551   0.91142   0.00000  Uiso   1.00
C1088  C     0.27148   0.58052   0.55560   0.00000  Uiso   1.00
C1089  C     0.28650   0.61189   0.51757   0.00000  Uiso   1.00
C1090  C     0.24219   0.50964   0.97779   0.00000  Uiso   1.00
C1091  C     0.28451   0.66357   0.53013   0.00000  Uiso   1.00
C1092  C     0.05599   0.53171   0.54586   0.00000  Uiso   1.00
C1093  C     0.28208   0.50119   0.95880   0.00000  Uiso   1.00
C1094  C     0.04240   0.42551   0.79400   0.00000  Uiso   1.00
C1095  C     0.29051   0.57092   0.70093   0.00000  Uiso   1.00
C1096  C     0.29084   0.43004   0.79997   0.00000  Uiso   1.00
C1097  C     0.04258   0.56880   0.69812   0.00000  Uiso   1.00
C1098  C     0.02123   0.46345   0.77132   0.00000  Uiso   1.00
C1099  C     0.31198   0.53499   0.72604   0.00000  Uiso   1.00
C1100  C     0.31200   0.46444   0.77270   0.00000  Uiso   1.00
C1101  C     0.02128   0.53456   0.72540   0.00000  Uiso   1.00
C1102  C     0.29055   0.49995   0.74978   0.00000  Uiso   1.00
Cu1103 Cu    0.16667   0.54689   0.75000   0.00000  Uiso   1.00
Cu1104 Cu    0.16667   0.45311   0.75000   0.00000  Uiso   1.00
H1105  H     0.13470   0.37701   0.68917   0.00000  Uiso   1.00
H1106  H     0.00215   0.66572   0.88884   0.00000  Uiso   1.00
H1107  H     0.05658   0.33422   0.89672   0.00000  Uiso   1.00
H1108  H     0.29046   0.58727   0.58531   0.00000  Uiso   1.00
H1109  H     0.23981   0.59059   0.56524   0.00000  Uiso   1.00
H1110  H     0.31848   0.60267   0.50935   0.00000  Uiso   1.00
H1111  H     0.26748   0.60620   0.98769   0.00000  Uiso   1.00
H1112  H     0.25268   0.34051   0.53809   0.00000  Uiso   1.00
H1113  H     0.29539   0.35197   0.50186   0.00000  Uiso   1.00
H1114  H     0.30417   0.33713   0.55928   0.00000  Uiso   1.00
H1115  H     0.19859   0.62299   0.81086   0.00000  Uiso   1.00
H1116  H     0.19778   0.37634   0.81126   0.00000  Uiso   1.00
H1117  H     0.13545   0.62365   0.68879   0.00000  Uiso   1.00
H1118  H     0.09167   0.59631   0.93183   0.00000  Uiso   1.00
H1119  H     0.05951   0.60557   0.98014   0.00000  Uiso   1.00
H1120  H     0.03148   0.58571   0.88440   0.00000  Uiso   1.00
H1121  H     0.33126   0.59112   0.93137   0.00000  Uiso   1.00
H1122  H     0.02252   0.33970   0.94388   0.00000  Uiso   1.00
N1123  N     0.16667   0.61736   0.75000   0.00000  Uiso   1.00
N1124  N     0.27348   0.59953   0.68094   0.00000  Uiso   1.00
N1125  N     0.27441   0.40263   0.82199   0.00000  Uiso   1.00
N1126  N     0.05917   0.59606   0.67609   0.00000  Uiso   1.00
N1127  N     0.16667   0.38264   0.75000   0.00000  Uiso   1.00
N1128  N     0.26930   0.52131   0.85751   0.00000  Uiso   1.00
N1129  N     0.06471   0.47649   0.63768   0.00000  Uiso   1.00
N1130  N     0.06217   0.49766   0.86332   0.00000  Uiso   1.00
N1131  N     0.27121   0.48648   0.63680   0.00000  Uiso   1.00
N1132  N     0.02639   0.54181   0.56435   0.00000  Uiso   1.00
N1133  N     0.31403   0.49385   0.94402   0.00000  Uiso   1.00
N1134  N     0.05914   0.39526   0.81204   0.00000  Uiso   1.00
O1135  O     0.10655   0.53958   0.74999   0.00000  Uiso   1.00
O1136  O     0.27584   0.53242   0.54448   0.00000  Uiso   1.00
O1137  O     0.22679   0.46042   0.75000   0.00000  Uiso   1.00
O1138  O     0.22679   0.53958   0.75000   0.00000  Uiso   1.00
O1139  O     0.10655   0.46042   0.74999   0.00000  Uiso   1.00
O1140  O     0.16666   0.53960   0.68513   0.00000  Uiso   1.00
O1141  O     0.16668   0.46040   0.81487   0.00000  Uiso   1.00
O1142  O     0.16668   0.53960   0.81487   0.00000  Uiso   1.00
O1143  O     0.16666   0.46040   0.68513   0.00000  Uiso   1.00
O1144  O     0.05935   0.53779   0.95529   0.00000  Uiso   1.00
C1145  C     0.42076   0.49992   0.74951   0.00000  Uiso   1.00
C1146  C     0.37606   0.49939   0.74879   0.00000  Uiso   1.00
C1147  C     0.48235   0.35830   0.71620   0.00000  Uiso   1.00
C1148  C     0.51762   0.64170   0.78382   0.00000  Uiso   1.00
C1149  C     0.51743   0.35793   0.78391   0.00000  Uiso   1.00
C1150  C     0.48253   0.64207   0.71612   0.00000  Uiso   1.00
C1151  C     0.50019   0.50005   0.66460   0.00000  Uiso   1.00
C1152  C     0.50002   0.50009   0.83546   0.00000  Uiso   1.00
C1153  C     0.53790   0.50611   0.90598   0.00000  Uiso   1.00
C1154  C     0.46323   0.50105   0.59355   0.00000  Uiso   1.00
C1155  C     0.50055   0.50134   0.88390   0.00000  Uiso   1.00
C1156  C     0.57922   0.49999   0.75004   0.00000  Uiso   1.00
C1157  C     0.50032   0.50063   0.61629   0.00000  Uiso   1.00
C1158  C     0.46356   0.50479   0.90701   0.00000  Uiso   1.00
C1159  C     0.53742   0.50378   0.59358   0.00000  Uiso   1.00
C1160  C     0.46360   0.51194   0.95331   0.00000  Uiso   1.00
C1161  C     0.53764   0.50988   0.54712   0.00000  Uiso   1.00
C1162  C     0.50097   0.50979   0.97660   0.00000  Uiso   1.00
C1163  C     0.50047   0.50955   0.52362   0.00000  Uiso   1.00
C1164  C     0.53873   0.50770   0.95308   0.00000  Uiso   1.00
C1165  C     0.46285   0.50912   0.54708   0.00000  Uiso   1.00
C1166  C     0.42747   0.52275   0.97706   0.00000  Uiso   1.00
C1167  C     0.42671   0.51927   0.52338   0.00000  Uiso   1.00
C1168  C     0.57421   0.51714   0.52344   0.00000  Uiso   1.00
C1169  C     0.57406   0.51424   0.87911   0.00000  Uiso   1.00
C1170  C     0.42682   0.48766   0.61804   0.00000  Uiso   1.00
C1171  C     0.42577   0.50063   0.88257   0.00000  Uiso   1.00
C1172  C     0.57479   0.49445   0.61775   0.00000  Uiso   1.00
C1173  C     0.39554   0.58668   0.94800   0.00000  Uiso   1.00
C1174  C     0.36101   0.60240   0.91740   0.00000  Uiso   1.00
C1175  C     0.36065   0.65551   0.91142   0.00000  Uiso   1.00
C1176  C     0.60482   0.58052   0.55560   0.00000  Uiso   1.00
C1177  C     0.61984   0.61189   0.51757   0.00000  Uiso   1.00
C1178  C     0.57552   0.50964   0.97779   0.00000  Uiso   1.00
C1179  C     0.61784   0.66357   0.53013   0.00000  Uiso   1.00
C1180  C     0.38932   0.53171   0.54586   0.00000  Uiso   1.00
C1181  C     0.61541   0.50119   0.95880   0.00000  Uiso   1.00
C1182  C     0.37574   0.42551   0.79400   0.00000  Uiso   1.00
C1183  C     0.62384   0.57092   0.70093   0.00000  Uiso   1.00
C1184  C     0.62417   0.43004   0.79997   0.00000  Uiso   1.00
C1185  C     0.37591   0.56880   0.69812   0.00000  Uiso   1.00
C1186  C     0.35456   0.46345   0.77132   0.00000  Uiso   1.00
C1187  C     0.64531   0.53499   0.72604   0.00000  Uiso   1.00
C1188  C     0.64533   0.46444   0.77270   0.00000  Uiso   1.00
C1189  C     0.35461   0.53456   0.72540   0.00000  Uiso   1.00
C1190  C     0.62388   0.49995   0.74978   0.00000  Uiso   1.00
Cu1191 Cu    0.50000   0.54689   0.75000   0.00000  Uiso   1.00
Cu1192 Cu    0.50000   0.45311   0.75000   0.00000  Uiso   1.00
H1193  H     0.46803   0.37701   0.68917   0.00000  Uiso   1.00
H1194  H     0.33548   0.66572   0.88884   0.00000  Uiso   1.00
H1195  H     0.38991   0.33422   0.89672   0.00000  Uiso   1.00
H1196  H     0.62379   0.58727   0.58531   0.00000  Uiso   1.00
H1197  H     0.57315   0.59059   0.56524   0.00000  Uiso   1.00
H1198  H     0.65181   0.60267   0.50935   0.00000  Uiso   1.00
H1199  H     0.60081   0.60620   0.98769   0.00000  Uiso   1.00
H1200  H     0.58601   0.34051   0.53809   0.00000  Uiso   1.00
H1201  H     0.62873   0.35197   0.50186   0.00000  Uiso   1.00
H1202  H     0.63750   0.33713   0.55928   0.00000  Uiso   1.00
H1203  H     0.53192   0.62299   0.81086   0.00000  Uiso   1.00
H1204  H     0.53112   0.37634   0.81126   0.00000  Uiso   1.00
H1205  H     0.46878   0.62365   0.68879   0.00000  Uiso   1.00
H1206  H     0.42500   0.59631   0.93183   0.00000  Uiso   1.00
H1207  H     0.39284   0.60557   0.98014   0.00000  Uiso   1.00
H1208  H     0.36482   0.58571   0.88440   0.00000  Uiso   1.00
H1209  H     0.66459   0.59112   0.93137   0.00000  Uiso   1.00
H1210  H     0.35585   0.33970   0.94388   0.00000  Uiso   1.00
N1211  N     0.50000   0.61736   0.75000   0.00000  Uiso   1.00
N1212  N     0.60681   0.59953   0.68094   0.00000  Uiso   1.00
N1213  N     0.60775   0.40263   0.82199   0.00000  Uiso   1.00
N1214  N     0.39250   0.59606   0.67609   0.00000  Uiso   1.00
N1215  N     0.50000   0.38264   0.75000   0.00000  Uiso   1.00
N1216  N     0.60263   0.52131   0.85751   0.00000  Uiso   1.00
N1217  N     0.39804   0.47649   0.63768   0.00000  Uiso   1.00
N1218  N     0.39551   0.49766   0.86332   0.00000  Uiso   1.00
N1219  N     0.60455   0.48648   0.63680   0.00000  Uiso   1.00
N1220  N     0.35972   0.54181   0.56435   0.00000  Uiso   1.00
N1221  N     0.64736   0.49385   0.94402   0.00000  Uiso   1.00
N1222  N     0.39247   0.39526   0.81204   0.00000  Uiso   1.00
O1223  O     0.43988   0.53958   0.74999   0.00000  Uiso   1.00
O1224  O     0.60917   0.53242   0.54448   0.00000  Uiso   1.00
O1225  O     0.56012   0.46042   0.75000   0.00000  Uiso   1.00
O1226  O     0.56012   0.53958   0.75000   0.00000  Uiso   1.00
O1227  O     0.43988   0.46042   0.74999   0.00000  Uiso   1.00
O1228  O     0.49999   0.53960   0.68513   0.00000  Uiso   1.00
O1229  O     0.50001   0.46040   0.81487   0.00000  Uiso   1.00
O1230  O     0.50001   0.53960   0.81487   0.00000  Uiso   1.00
O1231  O     0.49999   0.46040   0.68513   0.00000  Uiso   1.00
O1232  O     0.39268   0.53779   0.95529   0.00000  Uiso   1.00
C1233  C     0.75409   0.49992   0.74951   0.00000  Uiso   1.00
C1234  C     0.70940   0.49939   0.74879   0.00000  Uiso   1.00
C1235  C     0.81569   0.35830   0.71620   0.00000  Uiso   1.00
C1236  C     0.85095   0.64170   0.78382   0.00000  Uiso   1.00
C1237  C     0.85077   0.35793   0.78391   0.00000  Uiso   1.00
C1238  C     0.81586   0.64207   0.71612   0.00000  Uiso   1.00
C1239  C     0.83352   0.50005   0.66460   0.00000  Uiso   1.00
C1240  C     0.83335   0.50009   0.83546   0.00000  Uiso   1.00
C1241  C     0.87124   0.50611   0.90598   0.00000  Uiso   1.00
C1242  C     0.79656   0.50105   0.59355   0.00000  Uiso   1.00
C1243  C     0.83389   0.50134   0.88390   0.00000  Uiso   1.00
C1244  C     0.91256   0.49999   0.75004   0.00000  Uiso   1.00
C1245  C     0.83365   0.50063   0.61629   0.00000  Uiso   1.00
C1246  C     0.79689   0.50479   0.90701   0.00000  Uiso   1.00
C1247  C     0.87075   0.50378   0.59358   0.00000  Uiso   1.00
C1248  C     0.79693   0.51194   0.95331   0.00000  Uiso   1.00
C1249  C     0.87097   0.50988   0.54712   0.00000  Uiso   1.00
C1250  C     0.83430   0.50979   0.97660   0.00000  Uiso   1.00
C1251  C     0.83380   0.50955   0.52362   0.00000  Uiso   1.00
C1252  C     0.87206   0.50770   0.95308   0.00000  Uiso   1.00
C1253  C     0.79618   0.50912   0.54708   0.00000  Uiso   1.00
C1254  C     0.76080   0.52275   0.97706   0.00000  Uiso   1.00
C1255  C     0.76004   0.51927   0.52338   0.00000  Uiso   1.00
C1256  C     0.90754   0.51714   0.52344   0.00000  Uiso   1.00
C1257  C     0.90739   0.51424   0.87911   0.00000  Uiso   1.00
C1258  C     0.76015   0.48766   0.61804   0.00000  Uiso   1.00
C1259  C     0.75911   0.50063   0.88257   0.00000  Uiso   1.00
C1260  C     0.90812   0.49445   0.61775   0.00000  Uiso   1.00
C1261  C     0.72887   0.58668   0.94800   0.00000  Uiso   1.00
C1262  C     0.69434   0.60240   0.91740   0.00000  Uiso   1.00
C1263  C     0.69398   0.65551   0.91142   0.00000  Uiso   1.00
C1264  C     0.93815   0.58052   0.55560   0.00000  Uiso   1.00
C1265  C     0.95317   0.61189   0.51757   0.00000  Uiso   1.00
C1266  C     0.90886   0.50964   0.97779   0.00000  Uiso   1.00
C1267  C     0.95118   0.66357   0.53013   0.00000  Uiso   1.00
C1268  C     0.72266   0.53171   0.54586   0.00000  Uiso   1.00
C1269  C     0.94875   0.50119   0.95880   0.00000  Uiso   1.00
C1270  C     0.70907   0.42551   0.79400   0.00000  Uiso   1.00
C1271  C     0.95718   0.57092   0.70093   0.00000  Uiso   1.00
C1272  C     0.95751   0.43004   0.79997   0.00000  Uiso   1.00
C1273  C     0.70924   0.56880   0.69812   0.00000  Uiso   1.00
C1274  C     0.68789   0.46345   0.77132   0.00000  Uiso   1.00
C1275  C     0.97865   0.53499   0.72604   0.00000  Uiso   1.00
C1276  C     0.97867   0.46444   0.77270   0.00000  Uiso   1.00
C1277  C     0.68794   0.53456   0.72540   0.00000  Uiso   1.00
C1278  C     0.95722   0.49995   0.74978   0.00000  Uiso   1.00
Cu1279 Cu    0.83333   0.54689   0.75000   0.00000  Uiso   1.00
Cu1280 Cu    0.83333   0.45311   0.75000   0.00000  Uiso   1.00
H1281  H     0.80136   0.37701   0.68917   0.00000  Uiso   1.00
H1282  H     0.66882   0.66572   0.88884   0.00000  Uiso   1.00
H1283  H     0.72324   0.33422   0.89672   0.00000  Uiso   1.00
H1284  H     0.95712   0.58727   0.58531   0.00000  Uiso   1.00
H1285  H     0.90648   0.59059   0.56524   0.00000  Uiso   1.00
H1286  H     0.98514   0.60267   0.50935   0.00000  Uiso   1.00
H1287  H     0.93415   0.60620   0.98769   0.00000  Uiso   1.00
H1288  H     0.91934   0.34051   0.53809   0.00000  Uiso   1.00
H1289  H     0.96206   0.35197   0.50186   0.00000  Uiso   1.00
H1290  H     0.97083   0.33713   0.55928   0.00000  Uiso   1.00
H1291  H     0.86526   0.62299   0.81086   0.00000  Uiso   1.00
H1292  H     0.86445   0.37634   0.81126   0.00000  Uiso   1.00
H1293  H     0.80212   0.62365   0.68879   0.00000  Uiso   1.00
H1294  H     0.75833   0.59631   0.93183   0.00000  Uiso   1.00
H1295  H     0.72617   0.60557   0.98014   0.00000  Uiso   1.00
H1296  H     0.69815   0.58571   0.88440   0.00000  Uiso   1.00
H1297  H     0.99793   0.59112   0.93137   0.00000  Uiso   1.00
H1298  H     0.68919   0.33970   0.94388   0.00000  Uiso   1.00
N1299  N     0.83333   0.61736   0.75000   0.00000  Uiso   1.00
N1300  N     0.94014   0.59953   0.68094   0.00000  Uiso   1.00
N1301  N     0.94108   0.40263   0.82199   0.00000  Uiso   1.00
N1302  N     0.72583   0.59606   0.67609   0.00000  Uiso   1.00
N1303  N     0.83333   0.38264   0.75000   0.00000  Uiso   1.00
N1304  N     0.93597   0.52131   0.85751   0.00000  Uiso   1.00
N1305  N     0.73138   0.47649   0.63768   0.00000  Uiso   1.00
N1306  N     0.72884   0.49766   0.86332   0.00000  Uiso   1.00
N1307  N     0.93788   0.48648   0.63680   0.00000  Uiso   1.00
N1308  N     0.69305   0.54181   0.56435   0.00000  Uiso   1.00
N1309  N     0.98069   0.49385   0.94402   0.00000  Uiso   1.00
N1310  N     0.72580   0.39526   0.81204   0.00000  Uiso   1.00
O1311  O     0.77321   0.53958   0.74999   0.00000  Uiso   1.00
O1312  O     0.94250   0.53242   0.54448   0.00000  Uiso   1.00
O1313  O     0.89345   0.46042   0.75000   0.00000  Uiso   1.00
O1314  O     0.89345   0.53958   0.75000   0.00000  Uiso   1.00
O1315  O     0.77321   0.46042   0.74999   0.00000  Uiso   1.00
O1316  O     0.83332   0.53960   0.68513   0.00000  Uiso   1.00
O1317  O     0.83334   0.46040   0.81487   0.00000  Uiso   1.00
O1318  O     0.83334   0.53960   0.81487   0.00000  Uiso   1.00
O1319  O     0.83332   0.46040   0.68513   0.00000  Uiso   1.00
O1320  O     0.72602   0.53779   0.95529   0.00000  Uiso   1.00
C1321  C     0.08742   0.83325   0.74951   0.00000  Uiso   1.00
C1322  C     0.04273   0.83272   0.74879   0.00000  Uiso   1.00
C1323  C     0.14902   0.69163   0.71620   0.00000  Uiso   1.00
C1324  C     0.18429   0.97503   0.78382   0.00000  Uiso   1.00
C1325  C     0.18410   0.69126   0.78391   0.00000  Uiso   1.00
C1326  C     0.14919   0.97540   0.71612   0.00000  Uiso   1.00
C1327  C     0.16685   0.83338   0.66460   0.00000  Uiso   1.00
C1328  C     0.16668   0.83343   0.83546   0.00000  Uiso   1.00
C1329  C     0.20457   0.83945   0.90598   0.00000  Uiso   1.00
C1330  C     0.12990   0.83438   0.59355   0.00000  Uiso   1.00
C1331  C     0.16722   0.83467   0.88390   0.00000  Uiso   1.00
C1332  C     0.24589   0.83332   0.75004   0.00000  Uiso   1.00
C1333  C     0.16698   0.83397   0.61629   0.00000  Uiso   1.00
C1334  C     0.13023   0.83812   0.90701   0.00000  Uiso   1.00
C1335  C     0.20409   0.83711   0.59358   0.00000  Uiso   1.00
C1336  C     0.13026   0.84528   0.95331   0.00000  Uiso   1.00
C1337  C     0.20430   0.84322   0.54712   0.00000  Uiso   1.00
C1338  C     0.16763   0.84312   0.97660   0.00000  Uiso   1.00
C1339  C     0.16714   0.84289   0.52362   0.00000  Uiso   1.00
C1340  C     0.20540   0.84104   0.95308   0.00000  Uiso   1.00
C1341  C     0.12952   0.84245   0.54708   0.00000  Uiso   1.00
C1342  C     0.09414   0.85609   0.97706   0.00000  Uiso   1.00
C1343  C     0.09337   0.85261   0.52338   0.00000  Uiso   1.00
C1344  C     0.24087   0.85047   0.52344   0.00000  Uiso   1.00
C1345  C     0.24072   0.84757   0.87911   0.00000  Uiso   1.00
C1346  C     0.09349   0.82099   0.61804   0.00000  Uiso   1.00
C1347  C     0.09244   0.83396   0.88257   0.00000  Uiso   1.00
C1348  C     0.24146   0.82778   0.61775   0.00000  Uiso   1.00
C1349  C     0.06220   0.92001   0.94800   0.00000  Uiso   1.00
C1350  C     0.02768   0.93574   0.91740   0.00000  Uiso   1.00
C1351  C     0.02732   0.98885   0.91142   0.00000  Uiso   1.00
C1352  C     0.27148   0.91385   0.55560   0.00000  Uiso   1.00
C1353  C     0.28650   0.94522   0.51757   0.00000  Uiso   1.00
C1354  C     0.24219   0.84298   0.97779   0.00000  Uiso   1.00
C1355  C     0.28451   0.99690   0.53013   0.00000  Uiso   1.00
C1356  C     0.05599   0.86504   0.54586   0.00000  Uiso   1.00
C1357  C     0.28208   0.83452   0.95880   0.00000  Uiso   1.00
C1358  C     0.04240   0.75884   0.79400   0.00000  Uiso   1.00
C1359  C     0.29051   0.90426   0.70093   0.00000  Uiso   1.00
C1360  C     0.29084   0.76338   0.79997   0.00000  Uiso   1.00
C1361  C     0.04258   0.90213   0.69812   0.00000  Uiso   1.00
C1362  C     0.02123   0.79679   0.77132   0.00000  Uiso   1.00
C1363  C     0.31198   0.86832   0.72604   0.00000  Uiso   1.00
C1364  C     0.31200   0.79777   0.77270   0.00000  Uiso   1.00
C1365  C     0.02128   0.86789   0.72540   0.00000  Uiso   1.00
C1366  C     0.29055   0.83328   0.74978   0.00000  Uiso   1.00
Cu1367 Cu    0.16667   0.88022   0.75000   0.00000  Uiso   1.00
Cu1368 Cu    0.16667   0.78645   0.75000   0.00000  Uiso   1.00
H1369  H     0.13470   0.71034   0.68917   0.00000  Uiso   1.00
H1370  H     0.00215   0.99905   0.88884   0.00000  Uiso   1.00
H1371  H     0.05658   0.66755   0.89672   0.00000  Uiso   1.00
H1372  H     0.29046   0.92060   0.58531   0.00000  Uiso   1.00
H1373  H     0.23981   0.92392   0.56524   0.00000  Uiso   1.00
H1374  H     0.31848   0.93600   0.50935   0.00000  Uiso   1.00
H1375  H     0.26748   0.93953   0.98769   0.00000  Uiso   1.00
H1376  H     0.25268   0.67385   0.53809   0.00000  Uiso   1.00
H1377  H     0.29539   0.68530   0.50186   0.00000  Uiso   1.00
H1378  H     0.30417   0.67047   0.55928   0.00000  Uiso   1.00
H1379  H     0.19859   0.95632   0.81086   0.00000  Uiso   1.00
H1380  H     0.19778   0.70968   0.81126   0.00000  Uiso   1.00
H1381  H     0.13545   0.95698   0.68879   0.00000  Uiso   1.00
H1382  H     0.09167   0.92965   0.93183   0.00000  Uiso   1.00
H1383  H     0.05951   0.93890   0.98014   0.00000  Uiso   1.00
H1384  H     0.03148   0.91905   0.88440   0.00000  Uiso   1.00
H1385  H     0.33126   0.92445   0.93137   0.00000  Uiso   1.00
H1386  H     0.02252   0.67303   0.94388   0.00000  Uiso   1.00
N1387  N     0.16667   0.95069   0.75000   0.00000  Uiso   1.00
N1388  N     0.27348   0.93287   0.68094   0.00000  Uiso   1.00
N1389  N     0.27441   0.73597   0.82199   0.00000  Uiso   1.00
N1390  N     0.05917   0.92940   0.67609   0.00000  Uiso   1.00
N1391  N     0.16667   0.71598   0.75000   0.00000  Uiso   1.00
N1392  N     0.26930   0.85464   0.85751   0.00000  Uiso   1.00
N1393  N     0.06471   0.80982   0.63768   0.00000  Uiso   1.00
N1394  N     0.06217   0.83099   0.86332   0.00000  Uiso   1.00
N1395  N     0.27121   0.81982   0.63680   0.00000  Uiso   1.00
N1396  N     0.02639   0.87514   0.56435   0.00000  Uiso   1.00
N1397  N     0.31403   0.82718   0.94402   0.00000  Uiso   1.00
N1398  N     0.05914   0.72859   0.81204   0.00000  Uiso   1.00
O1399  O     0.10655   0.87291   0.74999   0.00000  Uiso   1.00
O1400  O     0.27584   0.86575   0.54448   0.00000  Uiso   1.00
O1401  O     0.22679   0.79375   0.75000   0.00000  Uiso   1.00
O1402  O     0.22679   0.87291   0.75000   0.00000  Uiso   1.00
O1403  O     0.10655   0.79375   0.74999   0.00000  Uiso   1.00
O1404  O     0.16666   0.87293   0.68513   0.00000  Uiso   1.00
O1405  O     0.16668   0.79373   0.81487   0.00000  Uiso   1.00
O1406  O     0.16668   0.87293   0.81487   0.00000  Uiso   1.00
O1407  O     0.16666   0.79373   0.68513   0.00000  Uiso   1.00
O1408  O     0.05935   0.87112   0.95529   0.00000  Uiso   1.00
C1409  C     0.42076   0.83325   0.74951   0.00000  Uiso   1.00
C1410  C     0.37606   0.83272   0.74879   0.00000  Uiso   1.00
C1411  C     0.48235   0.69163   0.71620   0.00000  Uiso   1.00
C1412  C     0.51762   0.97503   0.78382   0.00000  Uiso   1.00
C1413  C     0.51743   0.69126   0.78391   0.00000  Uiso   1.00
C1414  C     0.48253   0.97540   0.71612   0.00000  Uiso   1.00
C1415  C     0.50019   0.83338   0.66460   0.00000  Uiso   1.00
C1416  C     0.50002   0.83343   0.83546   0.00000  Uiso   1.00
C1417  C     0.53790   0.83945   0.90598   0.00000  Uiso   1.00
C1418  C     0.46323   0.83438   0.59355   0.00000  Uiso   1.00
C1419  C     0.50055   0.83467   0.88390   0.00000  Uiso   1.00
C1420  C     0.57922   0.83332   0.75004   0.00000  Uiso   1.00
C1421  C     0.50032   0.83397   0.61629   0.00000  Uiso   1.00
C1422  C     0.46356   0.83812   0.90701   0.00000  Uiso   1.00
C1423  C     0.53742   0.83711   0.59358   0.00000  Uiso   1.00
C1424  C     0.46360   0.84528   0.95331   0.00000  Uiso   1.00
C1425  C     0.53764   0.84322   0.54712   0.00000  Uiso   1.00
C1426  C     0.50097   0.84312   0.97660   0.00000  Uiso   1.00
C1427  C     0.50047   0.84289   0.52362   0.00000  Uiso   1.00
C1428  C     0.53873   0.84104   0.95308   0.00000  Uiso   1.00
C1429  C     0.46285   0.84245   0.54708   0.00000  Uiso   1.00
C1430  C     0.42747   0.85609   0.97706   0.00000  Uiso   1.00
C1431  C     0.42671   0.85261   0.52338   0.00000  Uiso   1.00
C1432  C     0.57421   0.85047   0.52344   0.00000  Uiso   1.00
C1433  C     0.57406   0.84757   0.87911   0.00000  Uiso   1.00
C1434  C     0.42682   0.82099   0.61804   0.00000  Uiso   1.00
C1435  C     0.42577   0.83396   0.88257   0.00000  Uiso   1.00
C1436  C     0.57479   0.82778   0.61775   0.00000  Uiso   1.00
C1437  C     0.39554   0.92001   0.94800   0.00000  Uiso   1.00
C1438  C     0.36101   0.93574   0.91740   0.00000  Uiso   1.00
C1439  C     0.36065   0.98885   0.91142   0.00000  Uiso   1.00
C1440  C     0.60482   0.91385   0.55560   0.00000  Uiso   1.00
C1441  C     0.61984   0.94522   0.51757   0.00000  Uiso   1.00
C1442  C     0.57552   0.84298   0.97779   0.00000  Uiso   1.00
C1443  C     0.61784   0.99690   0.53013   0.00000  Uiso   1.00
C1444  C     0.38932   0.86504   0.54586   0.00000  Uiso   1.00
C1445  C     0.61541   0.83452   0.95880   0.00000  Uiso   1.00
C1446  C     0.37574   0.75884   0.79400   0.00000  Uiso   1.00
C1447  C     0.62384   0.90426   0.70093   0.00000  Uiso   1.00
C1448  C     0.62417   0.76338   0.79997   0.00000  Uiso   1.00
C1449  C     0.37591   0.90213   0.69812   0.00000  Uiso   1.00
C1450  C     0.35456   0.79679   0.77132   0.00000  Uiso   1.00
C1451  C     0.64531   0.86832   0.72604   0.00000  Uiso   1.00
C1452  C     0.64533   0.79777   0.77270   0.00000  Uiso   1.00
C1453  C     0.35461   0.86789   0.72540   0.00000  Uiso   1.00
C1454  C     0.62388   0.83328   0.74978   0.00000  Uiso   1.00
Cu1455 Cu    0.50000   0.88022   0.75000   0.00000  Uiso   1.00
Cu1456 Cu    0.50000   0.78645   0.75000   0.00000  Uiso   1.00
H1457  H     0.46803   0.71034   0.68917   0.00000  Uiso   1.00
H1458  H     0.33548   0.99905   0.88884   0.00000  Uiso   1.00
H1459  H     0.38991   0.66755   0.89672   0.00000  Uiso   1.00
H1460  H     0.62379   0.92060   0.58531   0.00000  Uiso   1.00
H1461  H     0.57315   0.92392   0.56524   0.00000  Uiso   1.00
H1462  H     0.65181   0.93600   0.50935   0.00000  Uiso   1.00
H1463  H     0.60081   0.93953   0.98769   0.00000  Uiso   1.00
H1464  H     0.58601   0.67385   0.53809   0.00000  Uiso   1.00
H1465  H     0.62873   0.68530   0.50186   0.00000  Uiso   1.00
H1466  H     0.63750   0.67047   0.55928   0.00000  Uiso   1.00
H1467  H     0.53192   0.95632   0.81086   0.00000  Uiso   1.00
H1468  H     0.53112   0.70968   0.81126   0.00000  Uiso   1.00
H1469  H     0.46878   0.95698   0.68879   0.00000  Uiso   1.00
H1470  H     0.42500   0.92965   0.93183   0.00000  Uiso   1.00
H1471  H     0.39284   0.93890   0.98014   0.00000  Uiso   1.00
H1472  H     0.36482   0.91905   0.88440   0.00000  Uiso   1.00
H1473  H     0.66459   0.92445   0.93137   0.00000  Uiso   1.00
H1474  H     0.35585   0.67303   0.94388   0.00000  Uiso   1.00
N1475  N     0.50000   0.95069   0.75000   0.00000  Uiso   1.00
N1476  N     0.60681   0.93287   0.68094   0.00000  Uiso   1.00
N1477  N     0.60775   0.73597   0.82199   0.00000  Uiso   1.00
N1478  N     0.39250   0.92940   0.67609   0.00000  Uiso   1.00
N1479  N     0.50000   0.71598   0.75000   0.00000  Uiso   1.00
N1480  N     0.60263   0.85464   0.85751   0.00000  Uiso   1.00
N1481  N     0.39804   0.80982   0.63768   0.00000  Uiso   1.00
N1482  N     0.39551   0.83099   0.86332   0.00000  Uiso   1.00
N1483  N     0.60455   0.81982   0.63680   0.00000  Uiso   1.00
N1484  N     0.35972   0.87514   0.56435   0.00000  Uiso   1.00
N1485  N     0.64736   0.82718   0.94402   0.00000  Uiso   1.00
N1486  N     0.39247   0.72859   0.81204   0.00000  Uiso   1.00
O1487  O     0.43988   0.87291   0.74999   0.00000  Uiso   1.00
O1488  O     0.60917   0.86575   0.54448   0.00000  Uiso   1.00
O1489  O     0.56012   0.79375   0.75000   0.00000  Uiso   1.00
O1490  O     0.56012   0.87291   0.75000   0.00000  Uiso   1.00
O1491  O     0.43988   0.79375   0.74999   0.00000  Uiso   1.00
O1492  O     0.49999   0.87293   0.68513   0.00000  Uiso   1.00
O1493  O     0.50001   0.79373   0.81487   0.00000  Uiso   1.00
O1494  O     0.50001   0.87293   0.81487   0.00000  Uiso   1.00
O1495  O     0.49999   0.79373   0.68513   0.00000  Uiso   1.00
O1496  O     0.39268   0.87112   0.95529   0.00000  Uiso   1.00
C1497  C     0.75409   0.83325   0.74951   0.00000  Uiso   1.00
C1498  C     0.70940   0.83272   0.74879   0.00000  Uiso   1.00
C1499  C     0.81569   0.69163   0.71620   0.00000  Uiso   1.00
C1500  C     0.85095   0.97503   0.78382   0.00000  Uiso   1.00
C1501  C     0.85077   0.69126   0.78391   0.00000  Uiso   1.00
C1502  C     0.81586   0.97540   0.71612   0.00000  Uiso   1.00
C1503  C     0.83352   0.83338   0.66460   0.00000  Uiso   1.00
C1504  C     0.83335   0.83343   0.83546   0.00000  Uiso   1.00
C1505  C     0.87124   0.83945   0.90598   0.00000  Uiso   1.00
C1506  C     0.79656   0.83438   0.59355   0.00000  Uiso   1.00
C1507  C     0.83389   0.83467   0.88390   0.00000  Uiso   1.00
C1508  C     0.91256   0.83332   0.75004   0.00000  Uiso   1.00
C1509  C     0.83365   0.83397   0.61629   0.00000  Uiso   1.00
C1510  C     0.79689   0.83812   0.90701   0.00000  Uiso   1.00
C1511  C     0.87075   0.83711   0.59358   0.00000  Uiso   1.00
C1512  C     0.79693   0.84528   0.95331   0.00000  Uiso   1.00
C1513  C     0.87097   0.84322   0.54712   0.00000  Uiso   1.00
C1514  C     0.83430   0.84312   0.97660   0.00000  Uiso   1.00
C1515  C     0.83380   0.84289   0.52362   0.00000  Uiso   1.00
C1516  C     0.87206   0.84104   0.95308   0.00000  Uiso   1.00
C1517  C     0.79618   0.84245   0.54708   0.00000  Uiso   1.00
C1518  C     0.76080   0.85609   0.97706   0.00000  Uiso   1.00
C1519  C     0.76004   0.85261   0.52338   0.00000  Uiso   1.00
C1520  C     0.90754   0.85047   0.52344   0.00000  Uiso   1.00
C1521  C     0.90739   0.84757   0.87911   0.00000  Uiso   1.00
C1522  C     0.76015   0.82099   0.61804   0.00000  Uiso   1.00
C1523  C     0.75911   0.83396   0.88257   0.00000  Uiso   1.00
C1524  C     0.90812   0.82778   0.61775   0.00000  Uiso   1.00
C1525  C     0.72887   0.92001   0.94800   0.00000  Uiso   1.00
C1526  C     0.69434   0.93574   0.91740   0.00000  Uiso   1.00
C1527  C     0.69398   0.98885   0.91142   0.00000  Uiso   1.00
C1528  C     0.93815   0.91385   0.55560   0.00000  Uiso   1.00
C1529  C     0.95317   0.94522   0.51757   0.00000  Uiso   1.00
C1530  C     0.90886   0.84298   0.97779   0.00000  Uiso   1.00
C1531  C     0.95118   0.99690   0.53013   0.00000  Uiso   1.00
C1532  C     0.72266   0.86504   0.54586   0.00000  Uiso   1.00
C1533  C     0.94875   0.83452   0.95880   0.00000  Uiso   1.00
C1534  C     0.70907   0.75884   0.79400   0.00000  Uiso   1.00
C1535  C     0.95718   0.90426   0.70093   0.00000  Uiso   1.00
C1536  C     0.95751   0.76338   0.79997   0.00000  Uiso   1.00
C1537  C     0.70924   0.90213   0.69812   0.00000  Uiso   1.00
C1538  C     0.68789   0.79679   0.77132   0.00000  Uiso   1.00
C1539  C     0.97865   0.86832   0.72604   0.00000  Uiso   1.00
C1540  C     0.97867   0.79777   0.77270   0.00000  Uiso   1.00
C1541  C     0.68794   0.86789   0.72540   0.00000  Uiso   1.00
C1542  C     0.95722   0.83328   0.74978   0.00000  Uiso   1.00
Cu1543 Cu    0.83333   0.88022   0.75000   0.00000  Uiso   1.00
Cu1544 Cu    0.83333   0.78645   0.75000   0.00000  Uiso   1.00
H1545  H     0.80136   0.71034   0.68917   0.00000  Uiso   1.00
H1546  H     0.66882   0.99905   0.88884   0.00000  Uiso   1.00
H1547  H     0.72324   0.66755   0.89672   0.00000  Uiso   1.00
H1548  H     0.95712   0.92060   0.58531   0.00000  Uiso   1.00
H1549  H     0.90648   0.92392   0.56524   0.00000  Uiso   1.00
H1550  H     0.98514   0.93600   0.50935   0.00000  Uiso   1.00
H1551  H     0.93415   0.93953   0.98769   0.00000  Uiso   1.00
H1552  H     0.91934   0.67385   0.53809   0.00000  Uiso   1.00
H1553  H     0.96206   0.68530   0.50186   0.00000  Uiso   1.00
H1554  H     0.97083   0.67047   0.55928   0.00000  Uiso   1.00
H1555  H     0.86526   0.95632   0.81086   0.00000  Uiso   1.00
H1556  H     0.86445   0.70968   0.81126   0.00000  Uiso   1.00
H1557  H     0.80212   0.95698   0.68879   0.00000  Uiso   1.00
H1558  H     0.75833   0.92965   0.93183   0.00000  Uiso   1.00
H1559  H     0.72617   0.93890   0.98014   0.00000  Uiso   1.00
H1560  H     0.69815   0.91905   0.88440   0.00000  Uiso   1.00
H1561  H     0.99793   0.92445   0.93137   0.00000  Uiso   1.00
H1562  H     0.68919   0.67303   0.94388   0.00000  Uiso   1.00
N1563  N     0.83333   0.95069   0.75000   0.00000  Uiso   1.00
N1564  N     0.94014   0.93287   0.68094   0.00000  Uiso   1.00
N1565  N     0.94108   0.73597   0.82199   0.00000  Uiso   1.00
N1566  N     0.72583   0.92940   0.67609   0.00000  Uiso   1.00
N1567  N     0.83333   0.71598   0.75000   0.00000  Uiso   1.00
N1568  N     0.93597   0.85464   0.85751   0.00000  Uiso   1.00
N1569  N     0.73138   0.80982   0.63768   0.00000  Uiso   1.00
N1570  N     0.72884   0.83099   0.86332   0.00000  Uiso   1.00
N1571  N     0.93788   0.81982   0.63680   0.00000  Uiso   1.00
N1572  N     0.69305   0.87514   0.56435   0.00000  Uiso   1.00
N1573  N     0.98069   0.82718   0.94402   0.00000  Uiso   1.00
N1574  N     0.72580   0.72859   0.81204   0.00000  Uiso   1.00
O1575  O     0.77321   0.87291   0.74999   0.00000  Uiso   1.00
O1576  O     0.94250   0.86575   0.54448   0.00000  Uiso   1.00
O1577  O     0.89345   0.79375   0.75000   0.00000  Uiso   1.00
O1578  O     0.89345   0.87291   0.75000   0.00000  Uiso   1.00
O1579  O     0.77321   0.79375   0.74999   0.00000  Uiso   1.00
O1580  O     0.83332   0.87293   0.68513   0.00000  Uiso   1.00
O1581  O     0.83334   0.79373   0.81487   0.00000  Uiso   1.00
O1582  O     0.83334   0.87293   0.81487   0.00000  Uiso   1.00
O1583  O     0.83332   0.79373   0.68513   0.00000  Uiso   1.00
O1584  O     0.72602   0.87112   0.95529   0.00000  Uiso   1.00
loop_
_geom_bond_atom_site_label_1
_geom_bond_atom_site_label_2
_geom_bond_distance
_geom_bond_site_symmetry_2
_ccdc_geom_bond_type
C1     C2      1.468   .     S
C1     O79     1.296   .     A
C1     O83     1.290   .     A
C2     C45     1.413   .     A
C2     C42     1.416   .     A
C3     H49     1.081   .     S
C3     N71     1.367   .     A
C3     C534    1.415   1_545 S
C4     N67     1.367   .     A
C4     H59     1.081   .     S
C4     C269    1.415   .     S
C5     H60     1.079   .     S
C5     N71     1.367   .     A
C5     C532    1.415   1_545 S
C6     H61     1.079   .     S
C6     N67     1.367   .     A
C6     C267    1.415   .     S
C7     O87     1.288   .     A
C7     O84     1.289   .     A
C7     C13     1.456   .     S
C8     O85     1.294   .     A
C8     O86     1.285   .     A
C8     C11     1.461   .     S
C9     C25     1.453   .     S
C9     C11     1.405   .     A
C9     C20     1.421   .     A
C10    C26     1.453   .     S
C10    C21     1.419   .     A
C10    C13     1.400   .     A
C11    C14     1.401   .     A
C12    C46     1.467   .     S
C12    O82     1.292   .     A
C12    O81     1.293   .     A
C13    C15     1.398   .     A
C14    C27     1.451   .     S
C14    C16     1.411   .     A
C15    C17     1.410   .     A
C15    C28     1.453   .     S
C16    C22     1.417   .     A
C16    C18     1.417   .     A
C17    C24     1.410   .     A
C17    C19     1.414   .     A
C18    C20     1.427   .     A
C18    C811    1.417   .     S
C19    C21     1.421   .     A
C19    C810    1.417   1_554 S
C20    C34     1.423   .     A
C21    C23     1.417   .     A
C22    O88     1.386   .     S
C22    C815    1.399   .     S
C23    C36     1.444   .     S
C23    C814    1.399   1_554 S
C24    O80     1.386   .     S
C24    C826    1.394   1_554 S
C25    N72     1.157   .     T
C26    N73     1.158   .     T
C27    N74     1.156   .     T
C28    N75     1.157   .     T
C29    H63     1.114   .     S
C29    O88     1.415   .     S
C29    C30     1.530   .     S
C29    H62     1.116   .     S
C30    H64     1.111   .     S
C30    C31     1.526   .     S
C30    H241    1.110   1_455 S
C31    H50     1.111   .     S
C31    H315    1.111   .     S
C31    H330    1.111   .     S
C32    H52     1.110   .     S
C32    O80     1.422   .     S
C32    H53     1.116   .     S
C32    C33     1.532   .     S
C33    C35     1.526   .     S
C33    H54     1.109   .     S
C33    H847    1.111   1_554 S
C34    C37     1.447   .     S
C34    C816    1.394   .     S
C35    H320    1.111   .     S
C35    H321    1.110   .     S
C35    H322    1.111   .     S
C36    N76     1.155   .     T
C37    N77     1.157   .     T
C38    C42     1.456   .     S
C38    N78     1.158   .     T
C39    N68     1.158   .     T
C39    C43     1.455   .     S
C40    N69     1.157   .     T
C40    C44     1.454   .     S
C41    C45     1.453   .     S
C41    N70     1.157   .     T
C42    C220    1.398   1_455 S
C43    C46     1.414   .     A
C43    C133    1.400   .     S
C44    C46     1.413   .     A
C44    C130    1.398   .     S
C45    C219    1.400   1_455 S
Cu47   O79     1.986   .     S
Cu47   O82     1.985   .     S
Cu47   N67     2.012   .     S
Cu47   O86     1.965   .     S
Cu47   Cu48    2.677   .     S
Cu47   O84     1.967   .     S
Cu48   O81     1.986   .     S
Cu48   O87     1.965   .     S
Cu48   O83     1.985   .     S
Cu48   O85     1.967   .     S
Cu48   N71     2.012   .     S
H51    C559    1.111   1_545 S
H55    C825    1.111   .     S
H56    C563    1.111   1_545 S
H57    C563    1.110   1_545 S
H58    C563    1.111   1_545 S
H65    C118    1.110   .     S
H66    C559    1.111   1_545 S
C89    C90     1.468   .     S
C89    O167    1.296   .     A
C89    O171    1.290   .     A
C90    C133    1.413   .     A
C90    C130    1.416   .     A
C91    H137    1.081   .     S
C91    N159    1.367   .     A
C91    C622    1.415   1_545 S
C92    N155    1.367   .     A
C92    H147    1.081   .     S
C92    C357    1.415   .     S
C93    H148    1.079   .     S
C93    N159    1.367   .     A
C93    C620    1.415   1_545 S
C94    H149    1.079   .     S
C94    N155    1.367   .     A
C94    C355    1.415   .     S
C95    O175    1.288   .     A
C95    O172    1.289   .     A
C95    C101    1.456   .     S
C96    O173    1.294   .     A
C96    O174    1.285   .     A
C96    C99     1.461   .     S
C97    C113    1.453   .     S
C97    C99     1.405   .     A
C97    C108    1.421   .     A
C98    C114    1.453   .     S
C98    C109    1.419   .     A
C98    C101    1.400   .     A
C99    C102    1.401   .     A
C100   C134    1.467   .     S
C100   O170    1.292   .     A
C100   O169    1.293   .     A
C101   C103    1.398   .     A
C102   C115    1.451   .     S
C102   C104    1.411   .     A
C103   C105    1.410   .     A
C103   C116    1.453   .     S
C104   C110    1.417   .     A
C104   C106    1.417   .     A
C105   C112    1.410   .     A
C105   C107    1.414   .     A
C106   C108    1.427   .     A
C106   C899    1.417   .     S
C107   C109    1.421   .     A
C107   C898    1.417   1_554 S
C108   C122    1.423   .     A
C109   C111    1.417   .     A
C110   O176    1.386   .     S
C110   C903    1.399   .     S
C111   C124    1.444   .     S
C111   C902    1.399   1_554 S
C112   O168    1.386   .     S
C112   C914    1.394   1_554 S
C113   N160    1.157   .     T
C114   N161    1.158   .     T
C115   N162    1.156   .     T
C116   N163    1.157   .     T
C117   H151    1.114   .     S
C117   O176    1.415   .     S
C117   C118    1.530   .     S
C117   H150    1.116   .     S
C118   H152    1.111   .     S
C118   C119    1.526   .     S
C119   H138    1.111   .     S
C119   H403    1.111   .     S
C119   H418    1.111   .     S
C120   H140    1.110   .     S
C120   O168    1.422   .     S
C120   H141    1.116   .     S
C120   C121    1.532   .     S
C121   C123    1.526   .     S
C121   H142    1.109   .     S
C121   H935    1.111   1_554 S
C122   C125    1.447   .     S
C122   C904    1.394   .     S
C123   H408    1.111   .     S
C123   H409    1.110   .     S
C123   H410    1.111   .     S
C124   N164    1.155   .     T
C125   N165    1.157   .     T
C126   C130    1.456   .     S
C126   N166    1.158   .     T
C127   N156    1.158   .     T
C127   C131    1.455   .     S
C128   N157    1.157   .     T
C128   C132    1.454   .     S
C129   C133    1.453   .     S
C129   N158    1.157   .     T
C131   C134    1.414   .     A
C131   C221    1.400   .     S
C132   C134    1.413   .     A
C132   C218    1.398   .     S
Cu135  O167    1.986   .     S
Cu135  O170    1.985   .     S
Cu135  N155    2.012   .     S
Cu135  O174    1.965   .     S
Cu135  Cu136   2.677   .     S
Cu135  O172    1.967   .     S
Cu136  O169    1.986   .     S
Cu136  O175    1.965   .     S
Cu136  O171    1.985   .     S
Cu136  O173    1.967   .     S
Cu136  N159    2.012   .     S
H139   C647    1.111   1_545 S
H143   C913    1.111   .     S
H144   C651    1.111   1_545 S
H145   C651    1.110   1_545 S
H146   C651    1.111   1_545 S
H153   C206    1.110   .     S
H154   C647    1.111   1_545 S
C177   C178    1.468   .     S
C177   O255    1.296   .     A
C177   O259    1.290   .     A
C178   C221    1.413   .     A
C178   C218    1.416   .     A
C179   H225    1.081   .     S
C179   N247    1.367   .     A
C179   C710    1.415   1_545 S
C180   N243    1.367   .     A
C180   H235    1.081   .     S
C180   C445    1.415   .     S
C181   H236    1.079   .     S
C181   N247    1.367   .     A
C181   C708    1.415   1_545 S
C182   H237    1.079   .     S
C182   N243    1.367   .     A
C182   C443    1.415   .     S
C183   O263    1.288   .     A
C183   O260    1.289   .     A
C183   C189    1.456   .     S
C184   O261    1.294   .     A
C184   O262    1.285   .     A
C184   C187    1.461   .     S
C185   C201    1.453   .     S
C185   C187    1.405   .     A
C185   C196    1.421   .     A
C186   C202    1.453   .     S
C186   C197    1.419   .     A
C186   C189    1.400   .     A
C187   C190    1.401   .     A
C188   C222    1.467   .     S
C188   O258    1.292   .     A
C188   O257    1.293   .     A
C189   C191    1.398   .     A
C190   C203    1.451   .     S
C190   C192    1.411   .     A
C191   C193    1.410   .     A
C191   C204    1.453   .     S
C192   C198    1.417   .     A
C192   C194    1.417   .     A
C193   C200    1.410   .     A
C193   C195    1.414   .     A
C194   C196    1.427   .     A
C194   C987    1.417   .     S
C195   C197    1.421   .     A
C195   C986    1.417   1_554 S
C196   C210    1.423   .     A
C197   C199    1.417   .     A
C198   O264    1.386   .     S
C198   C991    1.399   .     S
C199   C212    1.444   .     S
C199   C990    1.399   1_554 S
C200   O256    1.386   .     S
C200   C1002   1.394   1_554 S
C201   N248    1.157   .     T
C202   N249    1.158   .     T
C203   N250    1.156   .     T
C204   N251    1.157   .     T
C205   H239    1.114   .     S
C205   O264    1.415   .     S
C205   C206    1.530   .     S
C205   H238    1.116   .     S
C206   H240    1.111   .     S
C206   C207    1.526   .     S
C207   H226    1.111   .     S
C207   H491    1.111   .     S
C207   H506    1.111   .     S
C208   H228    1.110   .     S
C208   O256    1.422   .     S
C208   H229    1.116   .     S
C208   C209    1.532   .     S
C209   C211    1.526   .     S
C209   H230    1.109   .     S
C209   H1023   1.111   1_554 S
C210   C213    1.447   .     S
C210   C992    1.394   .     S
C211   H496    1.111   .     S
C211   H497    1.110   .     S
C211   H498    1.111   .     S
C212   N252    1.155   .     T
C213   N253    1.157   .     T
C214   C218    1.456   .     S
C214   N254    1.158   .     T
C215   N244    1.158   .     T
C215   C219    1.455   .     S
C216   N245    1.157   .     T
C216   C220    1.454   .     S
C217   C221    1.453   .     S
C217   N246    1.157   .     T
C219   C222    1.414   .     A
C219   C45     1.400   1_655 S
C220   C222    1.413   .     A
C220   C42     1.398   1_655 S
Cu223  O255    1.986   .     S
Cu223  O258    1.985   .     S
Cu223  N243    2.012   .     S
Cu223  O262    1.965   .     S
Cu223  Cu224   2.677   .     S
Cu223  O260    1.967   .     S
Cu224  O257    1.986   .     S
Cu224  O263    1.965   .     S
Cu224  O259    1.985   .     S
Cu224  O261    1.967   .     S
Cu224  N247    2.012   .     S
H227   C735    1.111   1_545 S
H231   C1001   1.111   .     S
H232   C739    1.111   1_545 S
H233   C739    1.110   1_545 S
H234   C739    1.111   1_545 S
H241   C30     1.110   1_655 S
H242   C735    1.111   1_545 S
C265   C266    1.468   .     S
C265   O343    1.296   .     A
C265   O347    1.290   .     A
C266   C309    1.413   .     A
C266   C306    1.416   .     A
C267   H313    1.081   .     S
C267   N335    1.367   .     A
C268   N331    1.367   .     A
C268   H323    1.081   .     S
C268   C533    1.415   .     S
C269   H324    1.079   .     S
C269   N335    1.367   .     A
C270   H325    1.079   .     S
C270   N331    1.367   .     A
C270   C531    1.415   .     S
C271   O351    1.288   .     A
C271   O348    1.289   .     A
C271   C277    1.456   .     S
C272   O349    1.294   .     A
C272   O350    1.285   .     A
C272   C275    1.461   .     S
C273   C289    1.453   .     S
C273   C275    1.405   .     A
C273   C284    1.421   .     A
C274   C290    1.453   .     S
C274   C285    1.419   .     A
C274   C277    1.400   .     A
C275   C278    1.401   .     A
C276   C310    1.467   .     S
C276   O346    1.292   .     A
C276   O345    1.293   .     A
C277   C279    1.398   .     A
C278   C291    1.451   .     S
C278   C280    1.411   .     A
C279   C281    1.410   .     A
C279   C292    1.453   .     S
C280   C286    1.417   .     A
C280   C282    1.417   .     A
C281   C288    1.410   .     A
C281   C283    1.414   .     A
C282   C284    1.427   .     A
C282   C1075   1.417   .     S
C283   C285    1.421   .     A
C283   C1074   1.417   1_554 S
C284   C298    1.423   .     A
C285   C287    1.417   .     A
C286   O352    1.386   .     S
C286   C1079   1.399   .     S
C287   C300    1.444   .     S
C287   C1078   1.399   1_554 S
C288   O344    1.386   .     S
C288   C1090   1.394   1_554 S
C289   N336    1.157   .     T
C290   N337    1.158   .     T
C291   N338    1.156   .     T
C292   N339    1.157   .     T
C293   H327    1.114   .     S
C293   O352    1.415   .     S
C293   C294    1.530   .     S
C293   H326    1.116   .     S
C294   H328    1.111   .     S
C294   C295    1.526   .     S
C294   H505    1.110   1_455 S
C295   H314    1.111   .     S
C295   H579    1.111   .     S
C295   H594    1.111   .     S
C296   H316    1.110   .     S
C296   O344    1.422   .     S
C296   H317    1.116   .     S
C296   C297    1.532   .     S
C297   C299    1.526   .     S
C297   H318    1.109   .     S
C297   H1111   1.111   1_554 S
C298   C301    1.447   .     S
C298   C1080   1.394   .     S
C299   H584    1.111   .     S
C299   H585    1.110   .     S
C299   H586    1.111   .     S
C300   N340    1.155   .     T
C301   N341    1.157   .     T
C302   C306    1.456   .     S
C302   N342    1.158   .     T
C303   N332    1.158   .     T
C303   C307    1.455   .     S
C304   N333    1.157   .     T
C304   C308    1.454   .     S
C305   C309    1.453   .     S
C305   N334    1.157   .     T
C306   C484    1.398   1_455 S
C307   C310    1.414   .     A
C307   C397    1.400   .     S
C308   C310    1.413   .     A
C308   C394    1.398   .     S
C309   C483    1.400   1_455 S
Cu311  O343    1.986   .     S
Cu311  O346    1.985   .     S
Cu311  N331    2.012   .     S
Cu311  O350    1.965   .     S
Cu311  Cu312   2.677   .     S
Cu311  O348    1.967   .     S
Cu312  O345    1.986   .     S
Cu312  O351    1.965   .     S
Cu312  O347    1.985   .     S
Cu312  O349    1.967   .     S
Cu312  N335    2.012   .     S
H319   C1089   1.111   .     S
H329   C382    1.110   .     S
C353   C354    1.468   .     S
C353   O431    1.296   .     A
C353   O435    1.290   .     A
C354   C397    1.413   .     A
C354   C394    1.416   .     A
C355   H401    1.081   .     S
C355   N423    1.367   .     A
C356   N419    1.367   .     A
C356   H411    1.081   .     S
C356   C621    1.415   .     S
C357   H412    1.079   .     S
C357   N423    1.367   .     A
C358   H413    1.079   .     S
C358   N419    1.367   .     A
C358   C619    1.415   .     S
C359   O439    1.288   .     A
C359   O436    1.289   .     A
C359   C365    1.456   .     S
C360   O437    1.294   .     A
C360   O438    1.285   .     A
C360   C363    1.461   .     S
C361   C377    1.453   .     S
C361   C363    1.405   .     A
C361   C372    1.421   .     A
C362   C378    1.453   .     S
C362   C373    1.419   .     A
C362   C365    1.400   .     A
C363   C366    1.401   .     A
C364   C398    1.467   .     S
C364   O434    1.292   .     A
C364   O433    1.293   .     A
C365   C367    1.398   .     A
C366   C379    1.451   .     S
C366   C368    1.411   .     A
C367   C369    1.410   .     A
C367   C380    1.453   .     S
C368   C374    1.417   .     A
C368   C370    1.417   .     A
C369   C376    1.410   .     A
C369   C371    1.414   .     A
C370   C372    1.427   .     A
C370   C1163   1.417   .     S
C371   C373    1.421   .     A
C371   C1162   1.417   1_554 S
C372   C386    1.423   .     A
C373   C375    1.417   .     A
C374   O440    1.386   .     S
C374   C1167   1.399   .     S
C375   C388    1.444   .     S
C375   C1166   1.399   1_554 S
C376   O432    1.386   .     S
C376   C1178   1.394   1_554 S
C377   N424    1.157   .     T
C378   N425    1.158   .     T
C379   N426    1.156   .     T
C380   N427    1.157   .     T
C381   H415    1.114   .     S
C381   O440    1.415   .     S
C381   C382    1.530   .     S
C381   H414    1.116   .     S
C382   H416    1.111   .     S
C382   C383    1.526   .     S
C383   H402    1.111   .     S
C383   H667    1.111   .     S
C383   H682    1.111   .     S
C384   H404    1.110   .     S
C384   O432    1.422   .     S
C384   H405    1.116   .     S
C384   C385    1.532   .     S
C385   C387    1.526   .     S
C385   H406    1.109   .     S
C385   H1199   1.111   1_554 S
C386   C389    1.447   .     S
C386   C1168   1.394   .     S
C387   H672    1.111   .     S
C387   H673    1.110   .     S
C387   H674    1.111   .     S
C388   N428    1.155   .     T
C389   N429    1.157   .     T
C390   C394    1.456   .     S
C390   N430    1.158   .     T
C391   N420    1.158   .     T
C391   C395    1.455   .     S
C392   N421    1.157   .     T
C392   C396    1.454   .     S
C393   C397    1.453   .     S
C393   N422    1.157   .     T
C395   C398    1.414   .     A
C395   C485    1.400   .     S
C396   C398    1.413   .     A
C396   C482    1.398   .     S
Cu399  O431    1.986   .     S
Cu399  O434    1.985   .     S
Cu399  N419    2.012   .     S
Cu399  O438    1.965   .     S
Cu399  Cu400   2.677   .     S
Cu399  O436    1.967   .     S
Cu400  O433    1.986   .     S
Cu400  O439    1.965   .     S
Cu400  O435    1.985   .     S
Cu400  O437    1.967   .     S
Cu400  N423    2.012   .     S
H407   C1177   1.111   .     S
H417   C470    1.110   .     S
C441   C442    1.468   .     S
C441   O519    1.296   .     A
C441   O523    1.290   .     A
C442   C485    1.413   .     A
C442   C482    1.416   .     A
C443   H489    1.081   .     S
C443   N511    1.367   .     A
C444   N507    1.367   .     A
C444   H499    1.081   .     S
C444   C709    1.415   .     S
C445   H500    1.079   .     S
C445   N511    1.367   .     A
C446   H501    1.079   .     S
C446   N507    1.367   .     A
C446   C707    1.415   .     S
C447   O527    1.288   .     A
C447   O524    1.289   .     A
C447   C453    1.456   .     S
C448   O525    1.294   .     A
C448   O526    1.285   .     A
C448   C451    1.461   .     S
C449   C465    1.453   .     S
C449   C451    1.405   .     A
C449   C460    1.421   .     A
C450   C466    1.453   .     S
C450   C461    1.419   .     A
C450   C453    1.400   .     A
C451   C454    1.401   .     A
C452   C486    1.467   .     S
C452   O522    1.292   .     A
C452   O521    1.293   .     A
C453   C455    1.398   .     A
C454   C467    1.451   .     S
C454   C456    1.411   .     A
C455   C457    1.410   .     A
C455   C468    1.453   .     S
C456   C462    1.417   .     A
C456   C458    1.417   .     A
C457   C464    1.410   .     A
C457   C459    1.414   .     A
C458   C460    1.427   .     A
C458   C1251   1.417   .     S
C459   C461    1.421   .     A
C459   C1250   1.417   1_554 S
C460   C474    1.423   .     A
C461   C463    1.417   .     A
C462   O528    1.386   .     S
C462   C1255   1.399   .     S
C463   C476    1.444   .     S
C463   C1254   1.399   1_554 S
C464   O520    1.386   .     S
C464   C1266   1.394   1_554 S
C465   N512    1.157   .     T
C466   N513    1.158   .     T
C467   N514    1.156   .     T
C468   N515    1.157   .     T
C469   H503    1.114   .     S
C469   O528    1.415   .     S
C469   C470    1.530   .     S
C469   H502    1.116   .     S
C470   H504    1.111   .     S
C470   C471    1.526   .     S
C471   H490    1.111   .     S
C471   H755    1.111   .     S
C471   H770    1.111   .     S
C472   H492    1.110   .     S
C472   O520    1.422   .     S
C472   H493    1.116   .     S
C472   C473    1.532   .     S
C473   C475    1.526   .     S
C473   H494    1.109   .     S
C473   H1287   1.111   1_554 S
C474   C477    1.447   .     S
C474   C1256   1.394   .     S
C475   H760    1.111   .     S
C475   H761    1.110   .     S
C475   H762    1.111   .     S
C476   N516    1.155   .     T
C477   N517    1.157   .     T
C478   C482    1.456   .     S
C478   N518    1.158   .     T
C479   N508    1.158   .     T
C479   C483    1.455   .     S
C480   N509    1.157   .     T
C480   C484    1.454   .     S
C481   C485    1.453   .     S
C481   N510    1.157   .     T
C483   C486    1.414   .     A
C483   C309    1.400   1_655 S
C484   C486    1.413   .     A
C484   C306    1.398   1_655 S
Cu487  O519    1.986   .     S
Cu487  O522    1.985   .     S
Cu487  N507    2.012   .     S
Cu487  O526    1.965   .     S
Cu487  Cu488   2.677   .     S
Cu487  O524    1.967   .     S
Cu488  O521    1.986   .     S
Cu488  O527    1.965   .     S
Cu488  O523    1.985   .     S
Cu488  O525    1.967   .     S
Cu488  N511    2.012   .     S
H495   C1265   1.111   .     S
H505   C294    1.110   1_655 S
C529   C530    1.468   .     S
C529   O607    1.296   .     A
C529   O611    1.290   .     A
C530   C573    1.413   .     A
C530   C570    1.416   .     A
C531   H577    1.081   .     S
C531   N599    1.367   .     A
C532   N595    1.367   .     A
C532   H587    1.081   .     S
C532   C5      1.415   1_565 S
C533   H588    1.079   .     S
C533   N599    1.367   .     A
C534   H589    1.079   .     S
C534   N595    1.367   .     A
C534   C3      1.415   1_565 S
C535   O615    1.288   .     A
C535   O612    1.289   .     A
C535   C541    1.456   .     S
C536   O613    1.294   .     A
C536   O614    1.285   .     A
C536   C539    1.461   .     S
C537   C553    1.453   .     S
C537   C539    1.405   .     A
C537   C548    1.421   .     A
C538   C554    1.453   .     S
C538   C549    1.419   .     A
C538   C541    1.400   .     A
C539   C542    1.401   .     A
C540   C574    1.467   .     S
C540   O610    1.292   .     A
C540   O609    1.293   .     A
C541   C543    1.398   .     A
C542   C555    1.451   .     S
C542   C544    1.411   .     A
C543   C545    1.410   .     A
C543   C556    1.453   .     S
C544   C550    1.417   .     A
C544   C546    1.417   .     A
C545   C552    1.410   .     A
C545   C547    1.414   .     A
C546   C548    1.427   .     A
C546   C1339   1.417   .     S
C547   C549    1.421   .     A
C547   C1338   1.417   1_554 S
C548   C562    1.423   .     A
C549   C551    1.417   .     A
C550   O616    1.386   .     S
C550   C1343   1.399   .     S
C551   C564    1.444   .     S
C551   C1342   1.399   1_554 S
C552   O608    1.386   .     S
C552   C1354   1.394   1_554 S
C553   N600    1.157   .     T
C554   N601    1.158   .     T
C555   N602    1.156   .     T
C556   N603    1.157   .     T
C557   H591    1.114   .     S
C557   O616    1.415   .     S
C557   C558    1.530   .     S
C557   H590    1.116   .     S
C558   H592    1.111   .     S
C558   C559    1.526   .     S
C558   H769    1.110   1_455 S
C559   H578    1.111   .     S
C559   H51     1.111   1_565 S
C559   H66     1.111   1_565 S
C560   H580    1.110   .     S
C560   O608    1.422   .     S
C560   H581    1.116   .     S
C560   C561    1.532   .     S
C561   C563    1.526   .     S
C561   H582    1.109   .     S
C561   H1375   1.111   1_554 S
C562   C565    1.447   .     S
C562   C1344   1.394   .     S
C563   H56     1.111   1_565 S
C563   H57     1.110   1_565 S
C563   H58     1.111   1_565 S
C564   N604    1.155   .     T
C565   N605    1.157   .     T
C566   C570    1.456   .     S
C566   N606    1.158   .     T
C567   N596    1.158   .     T
C567   C571    1.455   .     S
C568   N597    1.157   .     T
C568   C572    1.454   .     S
C569   C573    1.453   .     S
C569   N598    1.157   .     T
C570   C748    1.398   1_455 S
C571   C574    1.414   .     A
C571   C661    1.400   .     S
C572   C574    1.413   .     A
C572   C658    1.398   .     S
C573   C747    1.400   1_455 S
Cu575  O607    1.986   .     S
Cu575  O610    1.985   .     S
Cu575  N595    2.012   .     S
Cu575  O614    1.965   .     S
Cu575  Cu576   2.677   .     S
Cu575  O612    1.967   .     S
Cu576  O609    1.986   .     S
Cu576  O615    1.965   .     S
Cu576  O611    1.985   .     S
Cu576  O613    1.967   .     S
Cu576  N599    2.012   .     S
H583   C1353   1.111   .     S
H593   C646    1.110   .     S
C617   C618    1.468   .     S
C617   O695    1.296   .     A
C617   O699    1.290   .     A
C618   C661    1.413   .     A
C618   C658    1.416   .     A
C619   H665    1.081   .     S
C619   N687    1.367   .     A
C620   N683    1.367   .     A
C620   H675    1.081   .     S
C620   C93     1.415   1_565 S
C621   H676    1.079   .     S
C621   N687    1.367   .     A
C622   H677    1.079   .     S
C622   N683    1.367   .     A
C622   C91     1.415   1_565 S
C623   O703    1.288   .     A
C623   O700    1.289   .     A
C623   C629    1.456   .     S
C624   O701    1.294   .     A
C624   O702    1.285   .     A
C624   C627    1.461   .     S
C625   C641    1.453   .     S
C625   C627    1.405   .     A
C625   C636    1.421   .     A
C626   C642    1.453   .     S
C626   C637    1.419   .     A
C626   C629    1.400   .     A
C627   C630    1.401   .     A
C628   C662    1.467   .     S
C628   O698    1.292   .     A
C628   O697    1.293   .     A
C629   C631    1.398   .     A
C630   C643    1.451   .     S
C630   C632    1.411   .     A
C631   C633    1.410   .     A
C631   C644    1.453   .     S
C632   C638    1.417   .     A
C632   C634    1.417   .     A
C633   C640    1.410   .     A
C633   C635    1.414   .     A
C634   C636    1.427   .     A
C634   C1427   1.417   .     S
C635   C637    1.421   .     A
C635   C1426   1.417   1_554 S
C636   C650    1.423   .     A
C637   C639    1.417   .     A
C638   O704    1.386   .     S
C638   C1431   1.399   .     S
C639   C652    1.444   .     S
C639   C1430   1.399   1_554 S
C640   O696    1.386   .     S
C640   C1442   1.394   1_554 S
C641   N688    1.157   .     T
C642   N689    1.158   .     T
C643   N690    1.156   .     T
C644   N691    1.157   .     T
C645   H679    1.114   .     S
C645   O704    1.415   .     S
C645   C646    1.530   .     S
C645   H678    1.116   .     S
C646   H680    1.111   .     S
C646   C647    1.526   .     S
C647   H666    1.111   .     S
C647   H139    1.111   1_565 S
C647   H154    1.111   1_565 S
C648   H668    1.110   .     S
C648   O696    1.422   .     S
C648   H669    1.116   .     S
C648   C649    1.532   .     S
C649   C651    1.526   .     S
C649   H670    1.109   .     S
C649   H1463   1.111   1_554 S
C650   C653    1.447   .     S
C650   C1432   1.394   .     S
C651   H144    1.111   1_565 S
C651   H145    1.110   1_565 S
C651   H146    1.111   1_565 S
C652   N692    1.155   .     T
C653   N693    1.157   .     T
C654   C658    1.456   .     S
C654   N694    1.158   .     T
C655   N684    1.158   .     T
C655   C659    1.455   .     S
C656   N685    1.157   .     T
C656   C660    1.454   .     S
C657   C661    1.453   .     S
C657   N686    1.157   .     T
C659   C662    1.414   .     A
C659   C749    1.400   .     S
C660   C662    1.413   .     A
C660   C746    1.398   .     S
Cu663  O695    1.986   .     S
Cu663  O698    1.985   .     S
Cu663  N683    2.012   .     S
Cu663  O702    1.965   .     S
Cu663  Cu664   2.677   .     S
Cu663  O700    1.967   .     S
Cu664  O697    1.986   .     S
Cu664  O703    1.965   .     S
Cu664  O699    1.985   .     S
Cu664  O701    1.967   .     S
Cu664  N687    2.012   .     S
H671   C1441   1.111   .     S
H681   C734    1.110   .     S
C705   C706    1.468   .     S
C705   O783    1.296   .     A
C705   O787    1.290   .     A
C706   C749    1.413   .     A
C706   C746    1.416   .     A
C707   H753    1.081   .     S
C707   N775    1.367   .     A
C708   N771    1.367   .     A
C708   H763    1.081   .     S
C708   C181    1.415   1_565 S
C709   H764    1.079   .     S
C709   N775    1.367   .     A
C710   H765    1.079   .     S
C710   N771    1.367   .     A
C710   C179    1.415   1_565 S
C711   O791    1.288   .     A
C711   O788    1.289   .     A
C711   C717    1.456   .     S
C712   O789    1.294   .     A
C712   O790    1.285   .     A
C712   C715    1.461   .     S
C713   C729    1.453   .     S
C713   C715    1.405   .     A
C713   C724    1.421   .     A
C714   C730    1.453   .     S
C714   C725    1.419   .     A
C714   C717    1.400   .     A
C715   C718    1.401   .     A
C716   C750    1.467   .     S
C716   O786    1.292   .     A
C716   O785    1.293   .     A
C717   C719    1.398   .     A
C718   C731    1.451   .     S
C718   C720    1.411   .     A
C719   C721    1.410   .     A
C719   C732    1.453   .     S
C720   C726    1.417   .     A
C720   C722    1.417   .     A
C721   C728    1.410   .     A
C721   C723    1.414   .     A
C722   C724    1.427   .     A
C722   C1515   1.417   .     S
C723   C725    1.421   .     A
C723   C1514   1.417   1_554 S
C724   C738    1.423   .     A
C725   C727    1.417   .     A
C726   O792    1.386   .     S
C726   C1519   1.399   .     S
C727   C740    1.444   .     S
C727   C1518   1.399   1_554 S
C728   O784    1.386   .     S
C728   C1530   1.394   1_554 S
C729   N776    1.157   .     T
C730   N777    1.158   .     T
C731   N778    1.156   .     T
C732   N779    1.157   .     T
C733   H767    1.114   .     S
C733   O792    1.415   .     S
C733   C734    1.530   .     S
C733   H766    1.116   .     S
C734   H768    1.111   .     S
C734   C735    1.526   .     S
C735   H754    1.111   .     S
C735   H227    1.111   1_565 S
C735   H242    1.111   1_565 S
C736   H756    1.110   .     S
C736   O784    1.422   .     S
C736   H757    1.116   .     S
C736   C737    1.532   .     S
C737   C739    1.526   .     S
C737   H758    1.109   .     S
C737   H1551   1.111   1_554 S
C738   C741    1.447   .     S
C738   C1520   1.394   .     S
C739   H232    1.111   1_565 S
C739   H233    1.110   1_565 S
C739   H234    1.111   1_565 S
C740   N780    1.155   .     T
C741   N781    1.157   .     T
C742   C746    1.456   .     S
C742   N782    1.158   .     T
C743   N772    1.158   .     T
C743   C747    1.455   .     S
C744   N773    1.157   .     T
C744   C748    1.454   .     S
C745   C749    1.453   .     S
C745   N774    1.157   .     T
C747   C750    1.414   .     A
C747   C573    1.400   1_655 S
C748   C750    1.413   .     A
C748   C570    1.398   1_655 S
Cu751  O783    1.986   .     S
Cu751  O786    1.985   .     S
Cu751  N771    2.012   .     S
Cu751  O790    1.965   .     S
Cu751  Cu752   2.677   .     S
Cu751  O788    1.967   .     S
Cu752  O785    1.986   .     S
Cu752  O791    1.965   .     S
Cu752  O787    1.985   .     S
Cu752  O789    1.967   .     S
Cu752  N775    2.012   .     S
H759   C1529   1.111   .     S
H769   C558    1.110   1_655 S
C793   C794    1.468   .     S
C793   O871    1.296   .     A
C793   O875    1.290   .     A
C794   C837    1.413   .     A
C794   C834    1.416   .     A
C795   H841    1.081   .     S
C795   N863    1.367   .     A
C795   C1326   1.415   1_545 S
C796   N859    1.367   .     A
C796   H851    1.081   .     S
C796   C1061   1.415   .     S
C797   H852    1.079   .     S
C797   N863    1.367   .     A
C797   C1324   1.415   1_545 S
C798   H853    1.079   .     S
C798   N859    1.367   .     A
C798   C1059   1.415   .     S
C799   O879    1.288   .     A
C799   O876    1.289   .     A
C799   C805    1.456   .     S
C800   O877    1.294   .     A
C800   O878    1.285   .     A
C800   C803    1.461   .     S
C801   C817    1.453   .     S
C801   C803    1.405   .     A
C801   C812    1.421   .     A
C802   C818    1.453   .     S
C802   C813    1.419   .     A
C802   C805    1.400   .     A
C803   C806    1.401   .     A
C804   C838    1.467   .     S
C804   O874    1.292   .     A
C804   O873    1.293   .     A
C805   C807    1.398   .     A
C806   C819    1.451   .     S
C806   C808    1.411   .     A
C807   C809    1.410   .     A
C807   C820    1.453   .     S
C808   C814    1.417   .     A
C808   C810    1.417   .     A
C809   C816    1.410   .     A
C809   C811    1.414   .     A
C810   C812    1.427   .     A
C810   C19     1.417   1_556 S
C811   C813    1.421   .     A
C812   C826    1.423   .     A
C813   C815    1.417   .     A
C814   O880    1.386   .     S
C814   C23     1.399   1_556 S
C815   C828    1.444   .     S
C816   O872    1.386   .     S
C817   N864    1.157   .     T
C818   N865    1.158   .     T
C819   N866    1.156   .     T
C820   N867    1.157   .     T
C821   H855    1.114   .     S
C821   O880    1.415   .     S
C821   C822    1.530   .     S
C821   H854    1.116   .     S
C822   H856    1.111   .     S
C822   C823    1.526   .     S
C822   H1033   1.110   1_455 S
C823   H842    1.111   .     S
C823   H1107   1.111   .     S
C823   H1122   1.111   .     S
C824   H844    1.110   .     S
C824   O872    1.422   .     S
C824   H845    1.116   .     S
C824   C825    1.532   .     S
C825   C827    1.526   .     S
C825   H846    1.109   .     S
C826   C829    1.447   .     S
C826   C24     1.394   1_556 S
C827   H1112   1.111   .     S
C827   H1113   1.110   .     S
C827   H1114   1.111   .     S
C828   N868    1.155   .     T
C829   N869    1.157   .     T
C830   C834    1.456   .     S
C830   N870    1.158   .     T
C831   N860    1.158   .     T
C831   C835    1.455   .     S
C832   N861    1.157   .     T
C832   C836    1.454   .     S
C833   C837    1.453   .     S
C833   N862    1.157   .     T
C834   C1012   1.398   1_455 S
C835   C838    1.414   .     A
C835   C925    1.400   .     S
C836   C838    1.413   .     A
C836   C922    1.398   .     S
C837   C1011   1.400   1_455 S
Cu839  O871    1.986   .     S
Cu839  O874    1.985   .     S
Cu839  N859    2.012   .     S
Cu839  O878    1.965   .     S
Cu839  Cu840   2.677   .     S
Cu839  O876    1.967   .     S
Cu840  O873    1.986   .     S
Cu840  O879    1.965   .     S
Cu840  O875    1.985   .     S
Cu840  O877    1.967   .     S
Cu840  N863    2.012   .     S
H843   C1351   1.111   1_545 S
H847   C33     1.111   1_556 S
H848   C1355   1.111   1_545 S
H849   C1355   1.110   1_545 S
H850   C1355   1.111   1_545 S
H857   C910    1.110   .     S
H858   C1351   1.111   1_545 S
C881   C882    1.468   .     S
C881   O959    1.296   .     A
C881   O963    1.290   .     A
C882   C925    1.413   .     A
C882   C922    1.416   .     A
C883   H929    1.081   .     S
C883   N951    1.367   .     A
C883   C1414   1.415   1_545 S
C884   N947    1.367   .     A
C884   H939    1.081   .     S
C884   C1149   1.415   .     S
C885   H940    1.079   .     S
C885   N951    1.367   .     A
C885   C1412   1.415   1_545 S
C886   H941    1.079   .     S
C886   N947    1.367   .     A
C886   C1147   1.415   .     S
C887   O967    1.288   .     A
C887   O964    1.289   .     A
C887   C893    1.456   .     S
C888   O965    1.294   .     A
C888   O966    1.285   .     A
C888   C891    1.461   .     S
C889   C905    1.453   .     S
C889   C891    1.405   .     A
C889   C900    1.421   .     A
C890   C906    1.453   .     S
C890   C901    1.419   .     A
C890   C893    1.400   .     A
C891   C894    1.401   .     A
C892   C926    1.467   .     S
C892   O962    1.292   .     A
C892   O961    1.293   .     A
C893   C895    1.398   .     A
C894   C907    1.451   .     S
C894   C896    1.411   .     A
C895   C897    1.410   .     A
C895   C908    1.453   .     S
C896   C902    1.417   .     A
C896   C898    1.417   .     A
C897   C904    1.410   .     A
C897   C899    1.414   .     A
C898   C900    1.427   .     A
C898   C107    1.417   1_556 S
C899   C901    1.421   .     A
C900   C914    1.423   .     A
C901   C903    1.417   .     A
C902   O968    1.386   .     S
C902   C111    1.399   1_556 S
C903   C916    1.444   .     S
C904   O960    1.386   .     S
C905   N952    1.157   .     T
C906   N953    1.158   .     T
C907   N954    1.156   .     T
C908   N955    1.157   .     T
C909   H943    1.114   .     S
C909   O968    1.415   .     S
C909   C910    1.530   .     S
C909   H942    1.116   .     S
C910   H944    1.111   .     S
C910   C911    1.526   .     S
C911   H930    1.111   .     S
C911   H1195   1.111   .     S
C911   H1210   1.111   .     S
C912   H932    1.110   .     S
C912   O960    1.422   .     S
C912   H933    1.116   .     S
C912   C913    1.532   .     S
C913   C915    1.526   .     S
C913   H934    1.109   .     S
C914   C917    1.447   .     S
C914   C112    1.394   1_556 S
C915   H1200   1.111   .     S
C915   H1201   1.110   .     S
C915   H1202   1.111   .     S
C916   N956    1.155   .     T
C917   N957    1.157   .     T
C918   C922    1.456   .     S
C918   N958    1.158   .     T
C919   N948    1.158   .     T
C919   C923    1.455   .     S
C920   N949    1.157   .     T
C920   C924    1.454   .     S
C921   C925    1.453   .     S
C921   N950    1.157   .     T
C923   C926    1.414   .     A
C923   C1013   1.400   .     S
C924   C926    1.413   .     A
C924   C1010   1.398   .     S
Cu927  O959    1.986   .     S
Cu927  O962    1.985   .     S
Cu927  N947    2.012   .     S
Cu927  O966    1.965   .     S
Cu927  Cu928   2.677   .     S
Cu927  O964    1.967   .     S
Cu928  O961    1.986   .     S
Cu928  O967    1.965   .     S
Cu928  O963    1.985   .     S
Cu928  O965    1.967   .     S
Cu928  N951    2.012   .     S
H931   C1439   1.111   1_545 S
H935   C121    1.111   1_556 S
H936   C1443   1.111   1_545 S
H937   C1443   1.110   1_545 S
H938   C1443   1.111   1_545 S
H945   C998    1.110   .     S
H946   C1439   1.111   1_545 S
C969   C970    1.468   .     S
C969   O1047   1.296   .     A
C969   O1051   1.290   .     A
C970   C1013   1.413   .     A
C970   C1010   1.416   .     A
C971   H1017   1.081   .     S
C971   N1039   1.367   .     A
C971   C1502   1.415   1_545 S
C972   N1035   1.367   .     A
C972   H1027   1.081   .     S
C972   C1237   1.415   .     S
C973   H1028   1.079   .     S
C973   N1039   1.367   .     A
C973   C1500   1.415   1_545 S
C974   H1029   1.079   .     S
C974   N1035   1.367   .     A
C974   C1235   1.415   .     S
C975   O1055   1.288   .     A
C975   O1052   1.289   .     A
C975   C981    1.456   .     S
C976   O1053   1.294   .     A
C976   O1054   1.285   .     A
C976   C979    1.461   .     S
C977   C993    1.453   .     S
C977   C979    1.405   .     A
C977   C988    1.421   .     A
C978   C994    1.453   .     S
C978   C989    1.419   .     A
C978   C981    1.400   .     A
C979   C982    1.401   .     A
C980   C1014   1.467   .     S
C980   O1050   1.292   .     A
C980   O1049   1.293   .     A
C981   C983    1.398   .     A
C982   C995    1.451   .     S
C982   C984    1.411   .     A
C983   C985    1.410   .     A
C983   C996    1.453   .     S
C984   C990    1.417   .     A
C984   C986    1.417   .     A
C985   C992    1.410   .     A
C985   C987    1.414   .     A
C986   C988    1.427   .     A
C986   C195    1.417   1_556 S
C987   C989    1.421   .     A
C988   C1002   1.423   .     A
C989   C991    1.417   .     A
C990   O1056   1.386   .     S
C990   C199    1.399   1_556 S
C991   C1004   1.444   .     S
C992   O1048   1.386   .     S
C993   N1040   1.157   .     T
C994   N1041   1.158   .     T
C995   N1042   1.156   .     T
C996   N1043   1.157   .     T
C997   H1031   1.114   .     S
C997   O1056   1.415   .     S
C997   C998    1.530   .     S
C997   H1030   1.116   .     S
C998   H1032   1.111   .     S
C998   C999    1.526   .     S
C999   H1018   1.111   .     S
C999   H1283   1.111   .     S
C999   H1298   1.111   .     S
C1000  H1020   1.110   .     S
C1000  O1048   1.422   .     S
C1000  H1021   1.116   .     S
C1000  C1001   1.532   .     S
C1001  C1003   1.526   .     S
C1001  H1022   1.109   .     S
C1002  C1005   1.447   .     S
C1002  C200    1.394   1_556 S
C1003  H1288   1.111   .     S
C1003  H1289   1.110   .     S
C1003  H1290   1.111   .     S
C1004  N1044   1.155   .     T
C1005  N1045   1.157   .     T
C1006  C1010   1.456   .     S
C1006  N1046   1.158   .     T
C1007  N1036   1.158   .     T
C1007  C1011   1.455   .     S
C1008  N1037   1.157   .     T
C1008  C1012   1.454   .     S
C1009  C1013   1.453   .     S
C1009  N1038   1.157   .     T
C1011  C1014   1.414   .     A
C1011  C837    1.400   1_655 S
C1012  C1014   1.413   .     A
C1012  C834    1.398   1_655 S
Cu1015 O1047   1.986   .     S
Cu1015 O1050   1.985   .     S
Cu1015 N1035   2.012   .     S
Cu1015 O1054   1.965   .     S
Cu1015 Cu1016  2.677   .     S
Cu1015 O1052   1.967   .     S
Cu1016 O1049   1.986   .     S
Cu1016 O1055   1.965   .     S
Cu1016 O1051   1.985   .     S
Cu1016 O1053   1.967   .     S
Cu1016 N1039   2.012   .     S
H1019  C1527   1.111   1_545 S
H1023  C209    1.111   1_556 S
H1024  C1531   1.111   1_545 S
H1025  C1531   1.110   1_545 S
H1026  C1531   1.111   1_545 S
H1033  C822    1.110   1_655 S
H1034  C1527   1.111   1_545 S
C1057  C1058   1.468   .     S
C1057  O1135   1.296   .     A
C1057  O1139   1.290   .     A
C1058  C1101   1.413   .     A
C1058  C1098   1.416   .     A
C1059  H1105   1.081   .     S
C1059  N1127   1.367   .     A
C1060  N1123   1.367   .     A
C1060  H1115   1.081   .     S
C1060  C1325   1.415   .     S
C1061  H1116   1.079   .     S
C1061  N1127   1.367   .     A
C1062  H1117   1.079   .     S
C1062  N1123   1.367   .     A
C1062  C1323   1.415   .     S
C1063  O1143   1.288   .     A
C1063  O1140   1.289   .     A
C1063  C1069   1.456   .     S
C1064  O1141   1.294   .     A
C1064  O1142   1.285   .     A
C1064  C1067   1.461   .     S
C1065  C1081   1.453   .     S
C1065  C1067   1.405   .     A
C1065  C1076   1.421   .     A
C1066  C1082   1.453   .     S
C1066  C1077   1.419   .     A
C1066  C1069   1.400   .     A
C1067  C1070   1.401   .     A
C1068  C1102   1.467   .     S
C1068  O1138   1.292   .     A
C1068  O1137   1.293   .     A
C1069  C1071   1.398   .     A
C1070  C1083   1.451   .     S
C1070  C1072   1.411   .     A
C1071  C1073   1.410   .     A
C1071  C1084   1.453   .     S
C1072  C1078   1.417   .     A
C1072  C1074   1.417   .     A
C1073  C1080   1.410   .     A
C1073  C1075   1.414   .     A
C1074  C1076   1.427   .     A
C1074  C283    1.417   1_556 S
C1075  C1077   1.421   .     A
C1076  C1090   1.423   .     A
C1077  C1079   1.417   .     A
C1078  O1144   1.386   .     S
C1078  C287    1.399   1_556 S
C1079  C1092   1.444   .     S
C1080  O1136   1.386   .     S
C1081  N1128   1.157   .     T
C1082  N1129   1.158   .     T
C1083  N1130   1.156   .     T
C1084  N1131   1.157   .     T
C1085  H1119   1.114   .     S
C1085  O1144   1.415   .     S
C1085  C1086   1.530   .     S
C1085  H1118   1.116   .     S
C1086  H1120   1.111   .     S
C1086  C1087   1.526   .     S
C1086  H1297   1.110   1_455 S
C1087  H1106   1.111   .     S
C1087  H1371   1.111   .     S
C1087  H1386   1.111   .     S
C1088  H1108   1.110   .     S
C1088  O1136   1.422   .     S
C1088  H1109   1.116   .     S
C1088  C1089   1.532   .     S
C1089  C1091   1.526   .     S
C1089  H1110   1.109   .     S
C1090  C1093   1.447   .     S
C1090  C288    1.394   1_556 S
C1091  H1376   1.111   .     S
C1091  H1377   1.110   .     S
C1091  H1378   1.111   .     S
C1092  N1132   1.155   .     T
C1093  N1133   1.157   .     T
C1094  C1098   1.456   .     S
C1094  N1134   1.158   .     T
C1095  N1124   1.158   .     T
C1095  C1099   1.455   .     S
C1096  N1125   1.157   .     T
C1096  C1100   1.454   .     S
C1097  C1101   1.453   .     S
C1097  N1126   1.157   .     T
C1098  C1276   1.398   1_455 S
C1099  C1102   1.414   .     A
C1099  C1189   1.400   .     S
C1100  C1102   1.413   .     A
C1100  C1186   1.398   .     S
C1101  C1275   1.400   1_455 S
Cu1103 O1135   1.986   .     S
Cu1103 O1138   1.985   .     S
Cu1103 N1123   2.012   .     S
Cu1103 O1142   1.965   .     S
Cu1103 Cu1104  2.677   .     S
Cu1103 O1140   1.967   .     S
Cu1104 O1137   1.986   .     S
Cu1104 O1143   1.965   .     S
Cu1104 O1139   1.985   .     S
Cu1104 O1141   1.967   .     S
Cu1104 N1127   2.012   .     S
H1111  C297    1.111   1_556 S
H1121  C1174   1.110   .     S
C1145  C1146   1.468   .     S
C1145  O1223   1.296   .     A
C1145  O1227   1.290   .     A
C1146  C1189   1.413   .     A
C1146  C1186   1.416   .     A
C1147  H1193   1.081   .     S
C1147  N1215   1.367   .     A
C1148  N1211   1.367   .     A
C1148  H1203   1.081   .     S
C1148  C1413   1.415   .     S
C1149  H1204   1.079   .     S
C1149  N1215   1.367   .     A
C1150  H1205   1.079   .     S
C1150  N1211   1.367   .     A
C1150  C1411   1.415   .     S
C1151  O1231   1.288   .     A
C1151  O1228   1.289   .     A
C1151  C1157   1.456   .     S
C1152  O1229   1.294   .     A
C1152  O1230   1.285   .     A
C1152  C1155   1.461   .     S
C1153  C1169   1.453   .     S
C1153  C1155   1.405   .     A
C1153  C1164   1.421   .     A
C1154  C1170   1.453   .     S
C1154  C1165   1.419   .     A
C1154  C1157   1.400   .     A
C1155  C1158   1.401   .     A
C1156  C1190   1.467   .     S
C1156  O1226   1.292   .     A
C1156  O1225   1.293   .     A
C1157  C1159   1.398   .     A
C1158  C1171   1.451   .     S
C1158  C1160   1.411   .     A
C1159  C1161   1.410   .     A
C1159  C1172   1.453   .     S
C1160  C1166   1.417   .     A
C1160  C1162   1.417   .     A
C1161  C1168   1.410   .     A
C1161  C1163   1.414   .     A
C1162  C1164   1.427   .     A
C1162  C371    1.417   1_556 S
C1163  C1165   1.421   .     A
C1164  C1178   1.423   .     A
C1165  C1167   1.417   .     A
C1166  O1232   1.386   .     S
C1166  C375    1.399   1_556 S
C1167  C1180   1.444   .     S
C1168  O1224   1.386   .     S
C1169  N1216   1.157   .     T
C1170  N1217   1.158   .     T
C1171  N1218   1.156   .     T
C1172  N1219   1.157   .     T
C1173  H1207   1.114   .     S
C1173  O1232   1.415   .     S
C1173  C1174   1.530   .     S
C1173  H1206   1.116   .     S
C1174  H1208   1.111   .     S
C1174  C1175   1.526   .     S
C1175  H1194   1.111   .     S
C1175  H1459   1.111   .     S
C1175  H1474   1.111   .     S
C1176  H1196   1.110   .     S
C1176  O1224   1.422   .     S
C1176  H1197   1.116   .     S
C1176  C1177   1.532   .     S
C1177  C1179   1.526   .     S
C1177  H1198   1.109   .     S
C1178  C1181   1.447   .     S
C1178  C376    1.394   1_556 S
C1179  H1464   1.111   .     S
C1179  H1465   1.110   .     S
C1179  H1466   1.111   .     S
C1180  N1220   1.155   .     T
C1181  N1221   1.157   .     T
C1182  C1186   1.456   .     S
C1182  N1222   1.158   .     T
C1183  N1212   1.158   .     T
C1183  C1187   1.455   .     S
C1184  N1213   1.157   .     T
C1184  C1188   1.454   .     S
C1185  C1189   1.453   .     S
C1185  N1214   1.157   .     T
C1187  C1190   1.414   .     A
C1187  C1277   1.400   .     S
C1188  C1190   1.413   .     A
C1188  C1274   1.398   .     S
Cu1191 O1223   1.986   .     S
Cu1191 O1226   1.985   .     S
Cu1191 N1211   2.012   .     S
Cu1191 O1230   1.965   .     S
Cu1191 Cu1192  2.677   .     S
Cu1191 O1228   1.967   .     S
Cu1192 O1225   1.986   .     S
Cu1192 O1231   1.965   .     S
Cu1192 O1227   1.985   .     S
Cu1192 O1229   1.967   .     S
Cu1192 N1215   2.012   .     S
H1199  C385    1.111   1_556 S
H1209  C1262   1.110   .     S
C1233  C1234   1.468   .     S
C1233  O1311   1.296   .     A
C1233  O1315   1.290   .     A
C1234  C1277   1.413   .     A
C1234  C1274   1.416   .     A
C1235  H1281   1.081   .     S
C1235  N1303   1.367   .     A
C1236  N1299   1.367   .     A
C1236  H1291   1.081   .     S
C1236  C1501   1.415   .     S
C1237  H1292   1.079   .     S
C1237  N1303   1.367   .     A
C1238  H1293   1.079   .     S
C1238  N1299   1.367   .     A
C1238  C1499   1.415   .     S
C1239  O1319   1.288   .     A
C1239  O1316   1.289   .     A
C1239  C1245   1.456   .     S
C1240  O1317   1.294   .     A
C1240  O1318   1.285   .     A
C1240  C1243   1.461   .     S
C1241  C1257   1.453   .     S
C1241  C1243   1.405   .     A
C1241  C1252   1.421   .     A
C1242  C1258   1.453   .     S
C1242  C1253   1.419   .     A
C1242  C1245   1.400   .     A
C1243  C1246   1.401   .     A
C1244  C1278   1.467   .     S
C1244  O1314   1.292   .     A
C1244  O1313   1.293   .     A
C1245  C1247   1.398   .     A
C1246  C1259   1.451   .     S
C1246  C1248   1.411   .     A
C1247  C1249   1.410   .     A
C1247  C1260   1.453   .     S
C1248  C1254   1.417   .     A
C1248  C1250   1.417   .     A
C1249  C1256   1.410   .     A
C1249  C1251   1.414   .     A
C1250  C1252   1.427   .     A
C1250  C459    1.417   1_556 S
C1251  C1253   1.421   .     A
C1252  C1266   1.423   .     A
C1253  C1255   1.417   .     A
C1254  O1320   1.386   .     S
C1254  C463    1.399   1_556 S
C1255  C1268   1.444   .     S
C1256  O1312   1.386   .     S
C1257  N1304   1.157   .     T
C1258  N1305   1.158   .     T
C1259  N1306   1.156   .     T
C1260  N1307   1.157   .     T
C1261  H1295   1.114   .     S
C1261  O1320   1.415   .     S
C1261  C1262   1.530   .     S
C1261  H1294   1.116   .     S
C1262  H1296   1.111   .     S
C1262  C1263   1.526   .     S
C1263  H1282   1.111   .     S
C1263  H1547   1.111   .     S
C1263  H1562   1.111   .     S
C1264  H1284   1.110   .     S
C1264  O1312   1.422   .     S
C1264  H1285   1.116   .     S
C1264  C1265   1.532   .     S
C1265  C1267   1.526   .     S
C1265  H1286   1.109   .     S
C1266  C1269   1.447   .     S
C1266  C464    1.394   1_556 S
C1267  H1552   1.111   .     S
C1267  H1553   1.110   .     S
C1267  H1554   1.111   .     S
C1268  N1308   1.155   .     T
C1269  N1309   1.157   .     T
C1270  C1274   1.456   .     S
C1270  N1310   1.158   .     T
C1271  N1300   1.158   .     T
C1271  C1275   1.455   .     S
C1272  N1301   1.157   .     T
C1272  C1276   1.454   .     S
C1273  C1277   1.453   .     S
C1273  N1302   1.157   .     T
C1275  C1278   1.414   .     A
C1275  C1101   1.400   1_655 S
C1276  C1278   1.413   .     A
C1276  C1098   1.398   1_655 S
Cu1279 O1311   1.986   .     S
Cu1279 O1314   1.985   .     S
Cu1279 N1299   2.012   .     S
Cu1279 O1318   1.965   .     S
Cu1279 Cu1280  2.677   .     S
Cu1279 O1316   1.967   .     S
Cu1280 O1313   1.986   .     S
Cu1280 O1319   1.965   .     S
Cu1280 O1315   1.985   .     S
Cu1280 O1317   1.967   .     S
Cu1280 N1303   2.012   .     S
H1287  C473    1.111   1_556 S
H1297  C1086   1.110   1_655 S
C1321  C1322   1.468   .     S
C1321  O1399   1.296   .     A
C1321  O1403   1.290   .     A
C1322  C1365   1.413   .     A
C1322  C1362   1.416   .     A
C1323  H1369   1.081   .     S
C1323  N1391   1.367   .     A
C1324  N1387   1.367   .     A
C1324  H1379   1.081   .     S
C1324  C797    1.415   1_565 S
C1325  H1380   1.079   .     S
C1325  N1391   1.367   .     A
C1326  H1381   1.079   .     S
C1326  N1387   1.367   .     A
C1326  C795    1.415   1_565 S
C1327  O1407   1.288   .     A
C1327  O1404   1.289   .     A
C1327  C1333   1.456   .     S
C1328  O1405   1.294   .     A
C1328  O1406   1.285   .     A
C1328  C1331   1.461   .     S
C1329  C1345   1.453   .     S
C1329  C1331   1.405   .     A
C1329  C1340   1.421   .     A
C1330  C1346   1.453   .     S
C1330  C1341   1.419   .     A
C1330  C1333   1.400   .     A
C1331  C1334   1.401   .     A
C1332  C1366   1.467   .     S
C1332  O1402   1.292   .     A
C1332  O1401   1.293   .     A
C1333  C1335   1.398   .     A
C1334  C1347   1.451   .     S
C1334  C1336   1.411   .     A
C1335  C1337   1.410   .     A
C1335  C1348   1.453   .     S
C1336  C1342   1.417   .     A
C1336  C1338   1.417   .     A
C1337  C1344   1.410   .     A
C1337  C1339   1.414   .     A
C1338  C1340   1.427   .     A
C1338  C547    1.417   1_556 S
C1339  C1341   1.421   .     A
C1340  C1354   1.423   .     A
C1341  C1343   1.417   .     A
C1342  O1408   1.386   .     S
C1342  C551    1.399   1_556 S
C1343  C1356   1.444   .     S
C1344  O1400   1.386   .     S
C1345  N1392   1.157   .     T
C1346  N1393   1.158   .     T
C1347  N1394   1.156   .     T
C1348  N1395   1.157   .     T
C1349  H1383   1.114   .     S
C1349  O1408   1.415   .     S
C1349  C1350   1.530   .     S
C1349  H1382   1.116   .     S
C1350  H1384   1.111   .     S
C1350  C1351   1.526   .     S
C1350  H1561   1.110   1_455 S
C1351  H1370   1.111   .     S
C1351  H843    1.111   1_565 S
C1351  H858    1.111   1_565 S
C1352  H1372   1.110   .     S
C1352  O1400   1.422   .     S
C1352  H1373   1.116   .     S
C1352  C1353   1.532   .     S
C1353  C1355   1.526   .     S
C1353  H1374   1.109   .     S
C1354  C1357   1.447   .     S
C1354  C552    1.394   1_556 S
C1355  H848    1.111   1_565 S
C1355  H849    1.110   1_565 S
C1355  H850    1.111   1_565 S
C1356  N1396   1.155   .     T
C1357  N1397   1.157   .     T
C1358  C1362   1.456   .     S
C1358  N1398   1.158   .     T
C1359  N1388   1.158   .     T
C1359  C1363   1.455   .     S
C1360  N1389   1.157   .     T
C1360  C1364   1.454   .     S
C1361  C1365   1.453   .     S
C1361  N1390   1.157   .     T
C1362  C1540   1.398   1_455 S
C1363  C1366   1.414   .     A
C1363  C1453   1.400   .     S
C1364  C1366   1.413   .     A
C1364  C1450   1.398   .     S
C1365  C1539   1.400   1_455 S
Cu1367 O1399   1.986   .     S
Cu1367 O1402   1.985   .     S
Cu1367 N1387   2.012   .     S
Cu1367 O1406   1.965   .     S
Cu1367 Cu1368  2.677   .     S
Cu1367 O1404   1.967   .     S
Cu1368 O1401   1.986   .     S
Cu1368 O1407   1.965   .     S
Cu1368 O1403   1.985   .     S
Cu1368 O1405   1.967   .     S
Cu1368 N1391   2.012   .     S
H1375  C561    1.111   1_556 S
H1385  C1438   1.110   .     S
C1409  C1410   1.468   .     S
C1409  O1487   1.296   .     A
C1409  O1491   1.290   .     A
C1410  C1453   1.413   .     A
C1410  C1450   1.416   .     A
C1411  H1457   1.081   .     S
C1411  N1479   1.367   .     A
C1412  N1475   1.367   .     A
C1412  H1467   1.081   .     S
C1412  C885    1.415   1_565 S
C1413  H1468   1.079   .     S
C1413  N1479   1.367   .     A
C1414  H1469   1.079   .     S
C1414  N1475   1.367   .     A
C1414  C883    1.415   1_565 S
C1415  O1495   1.288   .     A
C1415  O1492   1.289   .     A
C1415  C1421   1.456   .     S
C1416  O1493   1.294   .     A
C1416  O1494   1.285   .     A
C1416  C1419   1.461   .     S
C1417  C1433   1.453   .     S
C1417  C1419   1.405   .     A
C1417  C1428   1.421   .     A
C1418  C1434   1.453   .     S
C1418  C1429   1.419   .     A
C1418  C1421   1.400   .     A
C1419  C1422   1.401   .     A
C1420  C1454   1.467   .     S
C1420  O1490   1.292   .     A
C1420  O1489   1.293   .     A
C1421  C1423   1.398   .     A
C1422  C1435   1.451   .     S
C1422  C1424   1.411   .     A
C1423  C1425   1.410   .     A
C1423  C1436   1.453   .     S
C1424  C1430   1.417   .     A
C1424  C1426   1.417   .     A
C1425  C1432   1.410   .     A
C1425  C1427   1.414   .     A
C1426  C1428   1.427   .     A
C1426  C635    1.417   1_556 S
C1427  C1429   1.421   .     A
C1428  C1442   1.423   .     A
C1429  C1431   1.417   .     A
C1430  O1496   1.386   .     S
C1430  C639    1.399   1_556 S
C1431  C1444   1.444   .     S
C1432  O1488   1.386   .     S
C1433  N1480   1.157   .     T
C1434  N1481   1.158   .     T
C1435  N1482   1.156   .     T
C1436  N1483   1.157   .     T
C1437  H1471   1.114   .     S
C1437  O1496   1.415   .     S
C1437  C1438   1.530   .     S
C1437  H1470   1.116   .     S
C1438  H1472   1.111   .     S
C1438  C1439   1.526   .     S
C1439  H1458   1.111   .     S
C1439  H931    1.111   1_565 S
C1439  H946    1.111   1_565 S
C1440  H1460   1.110   .     S
C1440  O1488   1.422   .     S
C1440  H1461   1.116   .     S
C1440  C1441   1.532   .     S
C1441  C1443   1.526   .     S
C1441  H1462   1.109   .     S
C1442  C1445   1.447   .     S
C1442  C640    1.394   1_556 S
C1443  H936    1.111   1_565 S
C1443  H937    1.110   1_565 S
C1443  H938    1.111   1_565 S
C1444  N1484   1.155   .     T
C1445  N1485   1.157   .     T
C1446  C1450   1.456   .     S
C1446  N1486   1.158   .     T
C1447  N1476   1.158   .     T
C1447  C1451   1.455   .     S
C1448  N1477   1.157   .     T
C1448  C1452   1.454   .     S
C1449  C1453   1.453   .     S
C1449  N1478   1.157   .     T
C1451  C1454   1.414   .     A
C1451  C1541   1.400   .     S
C1452  C1454   1.413   .     A
C1452  C1538   1.398   .     S
Cu1455 O1487   1.986   .     S
Cu1455 O1490   1.985   .     S
Cu1455 N1475   2.012   .     S
Cu1455 O1494   1.965   .     S
Cu1455 Cu1456  2.677   .     S
Cu1455 O1492   1.967   .     S
Cu1456 O1489   1.986   .     S
Cu1456 O1495   1.965   .     S
Cu1456 O1491   1.985   .     S
Cu1456 O1493   1.967   .     S
Cu1456 N1479   2.012   .     S
H1463  C649    1.111   1_556 S
H1473  C1526   1.110   .     S
C1497  C1498   1.468   .     S
C1497  O1575   1.296   .     A
C1497  O1579   1.290   .     A
C1498  C1541   1.413   .     A
C1498  C1538   1.416   .     A
C1499  H1545   1.081   .     S
C1499  N1567   1.367   .     A
C1500  N1563   1.367   .     A
C1500  H1555   1.081   .     S
C1500  C973    1.415   1_565 S
C1501  H1556   1.079   .     S
C1501  N1567   1.367   .     A
C1502  H1557   1.079   .     S
C1502  N1563   1.367   .     A
C1502  C971    1.415   1_565 S
C1503  O1583   1.288   .     A
C1503  O1580   1.289   .     A
C1503  C1509   1.456   .     S
C1504  O1581   1.294   .     A
C1504  O1582   1.285   .     A
C1504  C1507   1.461   .     S
C1505  C1521   1.453   .     S
C1505  C1507   1.405   .     A
C1505  C1516   1.421   .     A
C1506  C1522   1.453   .     S
C1506  C1517   1.419   .     A
C1506  C1509   1.400   .     A
C1507  C1510   1.401   .     A
C1508  C1542   1.467   .     S
C1508  O1578   1.292   .     A
C1508  O1577   1.293   .     A
C1509  C1511   1.398   .     A
C1510  C1523   1.451   .     S
C1510  C1512   1.411   .     A
C1511  C1513   1.410   .     A
C1511  C1524   1.453   .     S
C1512  C1518   1.417   .     A
C1512  C1514   1.417   .     A
C1513  C1520   1.410   .     A
C1513  C1515   1.414   .     A
C1514  C1516   1.427   .     A
C1514  C723    1.417   1_556 S
C1515  C1517   1.421   .     A
C1516  C1530   1.423   .     A
C1517  C1519   1.417   .     A
C1518  O1584   1.386   .     S
C1518  C727    1.399   1_556 S
C1519  C1532   1.444   .     S
C1520  O1576   1.386   .     S
C1521  N1568   1.157   .     T
C1522  N1569   1.158   .     T
C1523  N1570   1.156   .     T
C1524  N1571   1.157   .     T
C1525  H1559   1.114   .     S
C1525  O1584   1.415   .     S
C1525  C1526   1.530   .     S
C1525  H1558   1.116   .     S
C1526  H1560   1.111   .     S
C1526  C1527   1.526   .     S
C1527  H1546   1.111   .     S
C1527  H1019   1.111   1_565 S
C1527  H1034   1.111   1_565 S
C1528  H1548   1.110   .     S
C1528  O1576   1.422   .     S
C1528  H1549   1.116   .     S
C1528  C1529   1.532   .     S
C1529  C1531   1.526   .     S
C1529  H1550   1.109   .     S
C1530  C1533   1.447   .     S
C1530  C728    1.394   1_556 S
C1531  H1024   1.111   1_565 S
C1531  H1025   1.110   1_565 S
C1531  H1026   1.111   1_565 S
C1532  N1572   1.155   .     T
C1533  N1573   1.157   .     T
C1534  C1538   1.456   .     S
C1534  N1574   1.158   .     T
C1535  N1564   1.158   .     T
C1535  C1539   1.455   .     S
C1536  N1565   1.157   .     T
C1536  C1540   1.454   .     S
C1537  C1541   1.453   .     S
C1537  N1566   1.157   .     T
C1539  C1542   1.414   .     A
C1539  C1365   1.400   1_655 S
C1540  C1542   1.413   .     A
C1540  C1362   1.398   1_655 S
Cu1543 O1575   1.986   .     S
Cu1543 O1578   1.985   .     S
Cu1543 N1563   2.012   .     S
Cu1543 O1582   1.965   .     S
Cu1543 Cu1544  2.677   .     S
Cu1543 O1580   1.967   .     S
Cu1544 O1577   1.986   .     S
Cu1544 O1583   1.965   .     S
Cu1544 O1579   1.985   .     S
Cu1544 O1581   1.967   .     S
Cu1544 N1567   2.012   .     S
H1551  C737    1.111   1_556 S
H1561  C1350   1.110   1_655 S
