data_str_m2_o2_o10_pcu_sym.23
_audit_creation_date              2020-01-03
_audit_creation_method            'Materials Studio'
_symmetry_space_group_name_H-M    'P1'
_symmetry_Int_Tables_number       1
_symmetry_cell_setting            triclinic
loop_
_symmetry_equiv_pos_as_xyz
  x,y,z
_cell_length_a                    26.1439
_cell_length_b                    30.2336
_cell_length_c                    27.7363
_cell_angle_alpha                 90.0990
_cell_angle_beta                  97.9422
_cell_angle_gamma                 90.1583
loop_
_atom_site_label
_atom_site_type_symbol
_atom_site_fract_x
_atom_site_fract_y
_atom_site_fract_z
_atom_site_U_iso_or_equiv
_atom_site_adp_type
_atom_site_occupancy
C1     C     0.16693   0.16495   0.24999   0.00000  Uiso   1.00
C2     C     0.19086   0.28401   0.44925   0.00000  Uiso   1.00
C3     C     0.16664   0.25001   0.02733   0.00000  Uiso   1.00
C4     C     0.16663   0.25001   0.47265   0.00000  Uiso   1.00
C5     C     0.06789   0.24997   0.23755   0.00000  Uiso   1.00
C6     C     0.26544   0.25001   0.26245   0.00000  Uiso   1.00
C7     C     0.01260   0.24996   0.23066   0.00000  Uiso   1.00
C8     C     0.32072   0.24998   0.26932   0.00000  Uiso   1.00
C9     C     0.15125   0.04705   0.28686   0.00000  Uiso   1.00
C10    C     0.15462   0.45302   0.20855   0.00000  Uiso   1.00
C11    C     0.14956   0.09293   0.28691   0.00000  Uiso   1.00
C12    C     0.16699   0.33508   0.25010   0.00000  Uiso   1.00
C13    C     0.15295   0.40712   0.20793   0.00000  Uiso   1.00
C14    C     0.16880   0.11675   0.25010   0.00000  Uiso   1.00
C15    C     0.16888   0.38335   0.25057   0.00000  Uiso   1.00
C16    C     0.19042   0.09435   0.21359   0.00000  Uiso   1.00
C17    C     0.18710   0.40590   0.29373   0.00000  Uiso   1.00
C18    C     0.19470   0.04840   0.21450   0.00000  Uiso   1.00
C19    C     0.19133   0.45187   0.29430   0.00000  Uiso   1.00
C20    C     0.17375   0.02438   0.25097   0.00000  Uiso   1.00
C21    C     0.17382   0.47581   0.25137   0.00000  Uiso   1.00
C22    C     0.26610   0.01335   0.19242   0.00000  Uiso   1.00
C23    C     0.20649   0.27055   0.05917   0.00000  Uiso   1.00
C24    C     0.30494   0.05172   0.19407   0.00000  Uiso   1.00
C25    C     0.02722   0.03515   0.20344   0.00000  Uiso   1.00
C26    C     0.25945   0.48839   0.33926   0.00000  Uiso   1.00
C27    C     0.29915   0.45070   0.34483   0.00000  Uiso   1.00
C28    C     0.02095   0.46870   0.35253   0.00000  Uiso   1.00
C29    C     0.14239   0.21602   0.44281   0.00000  Uiso   1.00
C30    C     0.20556   0.27046   0.10978   0.00000  Uiso   1.00
C31    C     0.14253   0.21681   0.39211   0.00000  Uiso   1.00
C32    C     0.12777   0.22956   0.09959   0.00000  Uiso   1.00
C33    C     0.19074   0.28320   0.39850   0.00000  Uiso   1.00
C34    C     0.12681   0.22946   0.04874   0.00000  Uiso   1.00
Cu35   Cu    0.16667   0.24999   0.29822   0.00000  Uiso   1.00
Cu36   Cu    0.16667   0.25000   0.20179   0.00000  Uiso   1.00
H37    H     0.32592   0.24995   0.19359   0.00000  Uiso   1.00
H38    H     0.12390   0.18846   0.45832   0.00000  Uiso   1.00
H39    H     0.23631   0.28674   0.13340   0.00000  Uiso   1.00
H40    H     0.12335   0.19058   0.36994   0.00000  Uiso   1.00
H41    H     0.09703   0.21330   0.11518   0.00000  Uiso   1.00
H42    H     0.20990   0.30944   0.38143   0.00000  Uiso   1.00
H43    H     0.09451   0.21380   0.02654   0.00000  Uiso   1.00
H44    H     0.20932   0.31158   0.46967   0.00000  Uiso   1.00
H45    H     0.27579   0.48863   0.16544   0.00000  Uiso   1.00
H46    H     0.27001   0.49582   0.22788   0.00000  Uiso   1.00
H47    H     0.29901   0.06973   0.15885   0.00000  Uiso   1.00
H48    H     0.00741   0.24997   0.30639   0.00000  Uiso   1.00
H49    H     0.29869   0.07516   0.22358   0.00000  Uiso   1.00
H50    H     0.03423   0.01734   0.23868   0.00000  Uiso   1.00
H51    H     0.05424   0.06367   0.20487   0.00000  Uiso   1.00
H52    H     0.03522   0.01257   0.17377   0.00000  Uiso   1.00
H53    H     0.26765   0.01057   0.37139   0.00000  Uiso   1.00
H54    H     0.26403   0.00915   0.30719   0.00000  Uiso   1.00
H55    H     0.29299   0.42977   0.37644   0.00000  Uiso   1.00
H56    H     0.29421   0.42975   0.31155   0.00000  Uiso   1.00
H57    H     0.02793   0.48975   0.32133   0.00000  Uiso   1.00
H58    H     0.04871   0.44077   0.35548   0.00000  Uiso   1.00
H59    H     0.13421   0.02917   0.31452   0.00000  Uiso   1.00
H60    H     0.02783   0.48852   0.38657   0.00000  Uiso   1.00
H61    H     0.14015   0.47081   0.17564   0.00000  Uiso   1.00
H62    H     0.13215   0.10975   0.31507   0.00000  Uiso   1.00
H63    H     0.13816   0.39027   0.17437   0.00000  Uiso   1.00
H64    H     0.20522   0.11255   0.18484   0.00000  Uiso   1.00
H65    H     0.19935   0.38783   0.32702   0.00000  Uiso   1.00
H66    H     0.23879   0.28620   0.04543   0.00000  Uiso   1.00
N67    N     0.16667   0.25001   0.12934   0.00000  Uiso   1.00
N68    N     0.16667   0.24999   0.37066   0.00000  Uiso   1.00
O69    O     0.16667   0.18572   0.29072   0.00000  Uiso   1.00
O70    O     0.20830   0.47252   0.33830   0.00000  Uiso   1.00
O71    O     0.16666   0.31427   0.20928   0.00000  Uiso   1.00
O72    O     0.16667   0.18573   0.20928   0.00000  Uiso   1.00
O73    O     0.16666   0.31427   0.29072   0.00000  Uiso   1.00
O74    O     0.09161   0.24999   0.28132   0.00000  Uiso   1.00
O75    O     0.24172   0.25000   0.21868   0.00000  Uiso   1.00
O76    O     0.09161   0.25000   0.19988   0.00000  Uiso   1.00
O77    O     0.24172   0.25000   0.30012   0.00000  Uiso   1.00
O78    O     0.21498   0.02768   0.17678   0.00000  Uiso   1.00
C79    C     0.50026   0.16495   0.24999   0.00000  Uiso   1.00
C80    C     0.52419   0.28401   0.44925   0.00000  Uiso   1.00
C81    C     0.49998   0.25001   0.02733   0.00000  Uiso   1.00
C82    C     0.49996   0.25001   0.47265   0.00000  Uiso   1.00
C83    C     0.40123   0.24997   0.23755   0.00000  Uiso   1.00
C84    C     0.59877   0.25001   0.26245   0.00000  Uiso   1.00
C85    C     0.34594   0.24996   0.23066   0.00000  Uiso   1.00
C86    C     0.65406   0.24998   0.26932   0.00000  Uiso   1.00
C87    C     0.48458   0.04705   0.28686   0.00000  Uiso   1.00
C88    C     0.48796   0.45302   0.20855   0.00000  Uiso   1.00
C89    C     0.48290   0.09293   0.28691   0.00000  Uiso   1.00
C90    C     0.50033   0.33508   0.25010   0.00000  Uiso   1.00
C91    C     0.48628   0.40712   0.20793   0.00000  Uiso   1.00
C92    C     0.50214   0.11675   0.25010   0.00000  Uiso   1.00
C93    C     0.50221   0.38335   0.25057   0.00000  Uiso   1.00
C94    C     0.52375   0.09435   0.21359   0.00000  Uiso   1.00
C95    C     0.52044   0.40590   0.29373   0.00000  Uiso   1.00
C96    C     0.52803   0.04840   0.21450   0.00000  Uiso   1.00
C97    C     0.52466   0.45187   0.29430   0.00000  Uiso   1.00
C98    C     0.50708   0.02438   0.25097   0.00000  Uiso   1.00
C99    C     0.50716   0.47581   0.25137   0.00000  Uiso   1.00
C100   C     0.59944   0.01335   0.19242   0.00000  Uiso   1.00
C101   C     0.53983   0.27055   0.05917   0.00000  Uiso   1.00
C102   C     0.63827   0.05172   0.19407   0.00000  Uiso   1.00
C103   C     0.36055   0.03515   0.20344   0.00000  Uiso   1.00
C104   C     0.59278   0.48839   0.33926   0.00000  Uiso   1.00
C105   C     0.63248   0.45070   0.34483   0.00000  Uiso   1.00
C106   C     0.35429   0.46870   0.35253   0.00000  Uiso   1.00
C107   C     0.47573   0.21602   0.44281   0.00000  Uiso   1.00
C108   C     0.53889   0.27046   0.10978   0.00000  Uiso   1.00
C109   C     0.47587   0.21681   0.39211   0.00000  Uiso   1.00
C110   C     0.46110   0.22956   0.09959   0.00000  Uiso   1.00
C111   C     0.52408   0.28320   0.39850   0.00000  Uiso   1.00
C112   C     0.46014   0.22946   0.04874   0.00000  Uiso   1.00
Cu113  Cu    0.50000   0.24999   0.29822   0.00000  Uiso   1.00
Cu114  Cu    0.50000   0.25000   0.20179   0.00000  Uiso   1.00
H115   H     0.65926   0.24995   0.19359   0.00000  Uiso   1.00
H116   H     0.45724   0.18846   0.45832   0.00000  Uiso   1.00
H117   H     0.56964   0.28674   0.13340   0.00000  Uiso   1.00
H118   H     0.45668   0.19058   0.36994   0.00000  Uiso   1.00
H119   H     0.43036   0.21330   0.11518   0.00000  Uiso   1.00
H120   H     0.54324   0.30944   0.38143   0.00000  Uiso   1.00
H121   H     0.42784   0.21380   0.02654   0.00000  Uiso   1.00
H122   H     0.54266   0.31158   0.46967   0.00000  Uiso   1.00
H123   H     0.60913   0.48863   0.16544   0.00000  Uiso   1.00
H124   H     0.60334   0.49582   0.22788   0.00000  Uiso   1.00
H125   H     0.63235   0.06973   0.15885   0.00000  Uiso   1.00
H126   H     0.34074   0.24997   0.30639   0.00000  Uiso   1.00
H127   H     0.63203   0.07516   0.22358   0.00000  Uiso   1.00
H128   H     0.36757   0.01734   0.23868   0.00000  Uiso   1.00
H129   H     0.38757   0.06367   0.20487   0.00000  Uiso   1.00
H130   H     0.36855   0.01257   0.17377   0.00000  Uiso   1.00
H131   H     0.60098   0.01057   0.37139   0.00000  Uiso   1.00
H132   H     0.59737   0.00915   0.30719   0.00000  Uiso   1.00
H133   H     0.62632   0.42977   0.37644   0.00000  Uiso   1.00
H134   H     0.62755   0.42975   0.31155   0.00000  Uiso   1.00
H135   H     0.36126   0.48975   0.32133   0.00000  Uiso   1.00
H136   H     0.38204   0.44077   0.35548   0.00000  Uiso   1.00
H137   H     0.46755   0.02917   0.31452   0.00000  Uiso   1.00
H138   H     0.36116   0.48852   0.38657   0.00000  Uiso   1.00
H139   H     0.47348   0.47081   0.17564   0.00000  Uiso   1.00
H140   H     0.46549   0.10975   0.31507   0.00000  Uiso   1.00
H141   H     0.47149   0.39027   0.17437   0.00000  Uiso   1.00
H142   H     0.53856   0.11255   0.18484   0.00000  Uiso   1.00
H143   H     0.53268   0.38783   0.32702   0.00000  Uiso   1.00
H144   H     0.57212   0.28620   0.04543   0.00000  Uiso   1.00
N145   N     0.50000   0.25001   0.12934   0.00000  Uiso   1.00
N146   N     0.50000   0.24999   0.37066   0.00000  Uiso   1.00
O147   O     0.50000   0.18572   0.29072   0.00000  Uiso   1.00
O148   O     0.54163   0.47252   0.33830   0.00000  Uiso   1.00
O149   O     0.50000   0.31427   0.20928   0.00000  Uiso   1.00
O150   O     0.50000   0.18573   0.20928   0.00000  Uiso   1.00
O151   O     0.50000   0.31427   0.29072   0.00000  Uiso   1.00
O152   O     0.42495   0.24999   0.28132   0.00000  Uiso   1.00
O153   O     0.57505   0.25000   0.21868   0.00000  Uiso   1.00
O154   O     0.42495   0.25000   0.19988   0.00000  Uiso   1.00
O155   O     0.57505   0.25000   0.30012   0.00000  Uiso   1.00
O156   O     0.54832   0.02768   0.17678   0.00000  Uiso   1.00
C157   C     0.83359   0.16495   0.24999   0.00000  Uiso   1.00
C158   C     0.85752   0.28401   0.44925   0.00000  Uiso   1.00
C159   C     0.83331   0.25001   0.02733   0.00000  Uiso   1.00
C160   C     0.83330   0.25001   0.47265   0.00000  Uiso   1.00
C161   C     0.73456   0.24997   0.23755   0.00000  Uiso   1.00
C162   C     0.93211   0.25001   0.26245   0.00000  Uiso   1.00
C163   C     0.67927   0.24996   0.23066   0.00000  Uiso   1.00
C164   C     0.98739   0.24998   0.26932   0.00000  Uiso   1.00
C165   C     0.81791   0.04705   0.28686   0.00000  Uiso   1.00
C166   C     0.82129   0.45302   0.20855   0.00000  Uiso   1.00
C167   C     0.81623   0.09293   0.28691   0.00000  Uiso   1.00
C168   C     0.83366   0.33508   0.25010   0.00000  Uiso   1.00
C169   C     0.81962   0.40712   0.20793   0.00000  Uiso   1.00
C170   C     0.83547   0.11675   0.25010   0.00000  Uiso   1.00
C171   C     0.83554   0.38335   0.25057   0.00000  Uiso   1.00
C172   C     0.85709   0.09435   0.21359   0.00000  Uiso   1.00
C173   C     0.85377   0.40590   0.29373   0.00000  Uiso   1.00
C174   C     0.86136   0.04840   0.21450   0.00000  Uiso   1.00
C175   C     0.85799   0.45187   0.29430   0.00000  Uiso   1.00
C176   C     0.84041   0.02438   0.25097   0.00000  Uiso   1.00
C177   C     0.84049   0.47581   0.25137   0.00000  Uiso   1.00
C178   C     0.93277   0.01335   0.19242   0.00000  Uiso   1.00
C179   C     0.87316   0.27055   0.05917   0.00000  Uiso   1.00
C180   C     0.97161   0.05172   0.19407   0.00000  Uiso   1.00
C181   C     0.69389   0.03515   0.20344   0.00000  Uiso   1.00
C182   C     0.92612   0.48839   0.33926   0.00000  Uiso   1.00
C183   C     0.96582   0.45070   0.34483   0.00000  Uiso   1.00
C184   C     0.68762   0.46870   0.35253   0.00000  Uiso   1.00
C185   C     0.80906   0.21602   0.44281   0.00000  Uiso   1.00
C186   C     0.87222   0.27046   0.10978   0.00000  Uiso   1.00
C187   C     0.80920   0.21681   0.39211   0.00000  Uiso   1.00
C188   C     0.79444   0.22956   0.09959   0.00000  Uiso   1.00
C189   C     0.85741   0.28320   0.39850   0.00000  Uiso   1.00
C190   C     0.79348   0.22946   0.04874   0.00000  Uiso   1.00
Cu191  Cu    0.83333   0.24999   0.29822   0.00000  Uiso   1.00
Cu192  Cu    0.83333   0.25000   0.20179   0.00000  Uiso   1.00
H193   H     0.99259   0.24995   0.19359   0.00000  Uiso   1.00
H194   H     0.79057   0.18846   0.45832   0.00000  Uiso   1.00
H195   H     0.90298   0.28674   0.13340   0.00000  Uiso   1.00
H196   H     0.79001   0.19058   0.36994   0.00000  Uiso   1.00
H197   H     0.76370   0.21330   0.11518   0.00000  Uiso   1.00
H198   H     0.87657   0.30944   0.38143   0.00000  Uiso   1.00
H199   H     0.76118   0.21380   0.02654   0.00000  Uiso   1.00
H200   H     0.87599   0.31158   0.46967   0.00000  Uiso   1.00
H201   H     0.94246   0.48863   0.16544   0.00000  Uiso   1.00
H202   H     0.93668   0.49582   0.22788   0.00000  Uiso   1.00
H203   H     0.96568   0.06973   0.15885   0.00000  Uiso   1.00
H204   H     0.67408   0.24997   0.30639   0.00000  Uiso   1.00
H205   H     0.96536   0.07516   0.22358   0.00000  Uiso   1.00
H206   H     0.70090   0.01734   0.23868   0.00000  Uiso   1.00
H207   H     0.72091   0.06367   0.20487   0.00000  Uiso   1.00
H208   H     0.70189   0.01257   0.17377   0.00000  Uiso   1.00
H209   H     0.93432   0.01057   0.37139   0.00000  Uiso   1.00
H210   H     0.93070   0.00915   0.30719   0.00000  Uiso   1.00
H211   H     0.95966   0.42977   0.37644   0.00000  Uiso   1.00
H212   H     0.96088   0.42975   0.31155   0.00000  Uiso   1.00
H213   H     0.69460   0.48975   0.32133   0.00000  Uiso   1.00
H214   H     0.71537   0.44077   0.35548   0.00000  Uiso   1.00
H215   H     0.80088   0.02917   0.31452   0.00000  Uiso   1.00
H216   H     0.69450   0.48852   0.38657   0.00000  Uiso   1.00
H217   H     0.80681   0.47081   0.17564   0.00000  Uiso   1.00
H218   H     0.79882   0.10975   0.31507   0.00000  Uiso   1.00
H219   H     0.80483   0.39027   0.17437   0.00000  Uiso   1.00
H220   H     0.87189   0.11255   0.18484   0.00000  Uiso   1.00
H221   H     0.86601   0.38783   0.32702   0.00000  Uiso   1.00
H222   H     0.90546   0.28620   0.04543   0.00000  Uiso   1.00
N223   N     0.83333   0.25001   0.12934   0.00000  Uiso   1.00
N224   N     0.83333   0.24999   0.37066   0.00000  Uiso   1.00
O225   O     0.83334   0.18572   0.29072   0.00000  Uiso   1.00
O226   O     0.87496   0.47252   0.33830   0.00000  Uiso   1.00
O227   O     0.83333   0.31427   0.20928   0.00000  Uiso   1.00
O228   O     0.83334   0.18573   0.20928   0.00000  Uiso   1.00
O229   O     0.83333   0.31427   0.29072   0.00000  Uiso   1.00
O230   O     0.75828   0.24999   0.28132   0.00000  Uiso   1.00
O231   O     0.90839   0.25000   0.21868   0.00000  Uiso   1.00
O232   O     0.75828   0.25000   0.19988   0.00000  Uiso   1.00
O233   O     0.90839   0.25000   0.30012   0.00000  Uiso   1.00
O234   O     0.88165   0.02768   0.17678   0.00000  Uiso   1.00
C235   C     0.16693   0.66495   0.24999   0.00000  Uiso   1.00
C236   C     0.19086   0.78401   0.44925   0.00000  Uiso   1.00
C237   C     0.16664   0.75001   0.02733   0.00000  Uiso   1.00
C238   C     0.16663   0.75001   0.47265   0.00000  Uiso   1.00
C239   C     0.06789   0.74997   0.23755   0.00000  Uiso   1.00
C240   C     0.26544   0.75001   0.26245   0.00000  Uiso   1.00
C241   C     0.01260   0.74996   0.23066   0.00000  Uiso   1.00
C242   C     0.32072   0.74998   0.26932   0.00000  Uiso   1.00
C243   C     0.15125   0.54705   0.28686   0.00000  Uiso   1.00
C244   C     0.15462   0.95302   0.20855   0.00000  Uiso   1.00
C245   C     0.14956   0.59293   0.28691   0.00000  Uiso   1.00
C246   C     0.16699   0.83508   0.25010   0.00000  Uiso   1.00
C247   C     0.15295   0.90712   0.20793   0.00000  Uiso   1.00
C248   C     0.16880   0.61675   0.25010   0.00000  Uiso   1.00
C249   C     0.16888   0.88335   0.25057   0.00000  Uiso   1.00
C250   C     0.19042   0.59435   0.21359   0.00000  Uiso   1.00
C251   C     0.18710   0.90590   0.29373   0.00000  Uiso   1.00
C252   C     0.19470   0.54840   0.21450   0.00000  Uiso   1.00
C253   C     0.19133   0.95187   0.29430   0.00000  Uiso   1.00
C254   C     0.17375   0.52438   0.25097   0.00000  Uiso   1.00
C255   C     0.17382   0.97581   0.25137   0.00000  Uiso   1.00
C256   C     0.26610   0.51335   0.19242   0.00000  Uiso   1.00
C257   C     0.20649   0.77055   0.05917   0.00000  Uiso   1.00
C258   C     0.30494   0.55172   0.19407   0.00000  Uiso   1.00
C259   C     0.02722   0.53515   0.20344   0.00000  Uiso   1.00
C260   C     0.25945   0.98839   0.33926   0.00000  Uiso   1.00
C261   C     0.29915   0.95070   0.34483   0.00000  Uiso   1.00
C262   C     0.02095   0.96870   0.35253   0.00000  Uiso   1.00
C263   C     0.14239   0.71602   0.44281   0.00000  Uiso   1.00
C264   C     0.20556   0.77046   0.10978   0.00000  Uiso   1.00
C265   C     0.14253   0.71681   0.39211   0.00000  Uiso   1.00
C266   C     0.12777   0.72956   0.09959   0.00000  Uiso   1.00
C267   C     0.19074   0.78320   0.39850   0.00000  Uiso   1.00
C268   C     0.12681   0.72946   0.04874   0.00000  Uiso   1.00
Cu269  Cu    0.16667   0.74999   0.29822   0.00000  Uiso   1.00
Cu270  Cu    0.16667   0.75000   0.20179   0.00000  Uiso   1.00
H271   H     0.32592   0.74995   0.19359   0.00000  Uiso   1.00
H272   H     0.12390   0.68846   0.45832   0.00000  Uiso   1.00
H273   H     0.23631   0.78674   0.13340   0.00000  Uiso   1.00
H274   H     0.12335   0.69058   0.36994   0.00000  Uiso   1.00
H275   H     0.09703   0.71330   0.11518   0.00000  Uiso   1.00
H276   H     0.20990   0.80944   0.38143   0.00000  Uiso   1.00
H277   H     0.09451   0.71380   0.02654   0.00000  Uiso   1.00
H278   H     0.20932   0.81158   0.46967   0.00000  Uiso   1.00
H279   H     0.27579   0.98863   0.16544   0.00000  Uiso   1.00
H280   H     0.27001   0.99582   0.22788   0.00000  Uiso   1.00
H281   H     0.29901   0.56973   0.15885   0.00000  Uiso   1.00
H282   H     0.00741   0.74997   0.30639   0.00000  Uiso   1.00
H283   H     0.29869   0.57516   0.22358   0.00000  Uiso   1.00
H284   H     0.03423   0.51734   0.23868   0.00000  Uiso   1.00
H285   H     0.05424   0.56367   0.20487   0.00000  Uiso   1.00
H286   H     0.03522   0.51257   0.17377   0.00000  Uiso   1.00
H287   H     0.26765   0.51057   0.37139   0.00000  Uiso   1.00
H288   H     0.26403   0.50915   0.30719   0.00000  Uiso   1.00
H289   H     0.29299   0.92977   0.37644   0.00000  Uiso   1.00
H290   H     0.29421   0.92975   0.31155   0.00000  Uiso   1.00
H291   H     0.02793   0.98975   0.32133   0.00000  Uiso   1.00
H292   H     0.04871   0.94077   0.35548   0.00000  Uiso   1.00
H293   H     0.13421   0.52917   0.31452   0.00000  Uiso   1.00
H294   H     0.02783   0.98852   0.38657   0.00000  Uiso   1.00
H295   H     0.14015   0.97081   0.17564   0.00000  Uiso   1.00
H296   H     0.13215   0.60975   0.31507   0.00000  Uiso   1.00
H297   H     0.13816   0.89027   0.17437   0.00000  Uiso   1.00
H298   H     0.20522   0.61255   0.18484   0.00000  Uiso   1.00
H299   H     0.19935   0.88783   0.32702   0.00000  Uiso   1.00
H300   H     0.23879   0.78620   0.04543   0.00000  Uiso   1.00
N301   N     0.16667   0.75001   0.12934   0.00000  Uiso   1.00
N302   N     0.16667   0.74999   0.37066   0.00000  Uiso   1.00
O303   O     0.16667   0.68572   0.29072   0.00000  Uiso   1.00
O304   O     0.20830   0.97252   0.33830   0.00000  Uiso   1.00
O305   O     0.16666   0.81427   0.20928   0.00000  Uiso   1.00
O306   O     0.16667   0.68573   0.20928   0.00000  Uiso   1.00
O307   O     0.16666   0.81427   0.29072   0.00000  Uiso   1.00
O308   O     0.09161   0.74999   0.28132   0.00000  Uiso   1.00
O309   O     0.24172   0.75000   0.21868   0.00000  Uiso   1.00
O310   O     0.09161   0.75000   0.19988   0.00000  Uiso   1.00
O311   O     0.24172   0.75000   0.30012   0.00000  Uiso   1.00
O312   O     0.21498   0.52768   0.17678   0.00000  Uiso   1.00
C313   C     0.50026   0.66495   0.24999   0.00000  Uiso   1.00
C314   C     0.52419   0.78401   0.44925   0.00000  Uiso   1.00
C315   C     0.49998   0.75001   0.02733   0.00000  Uiso   1.00
C316   C     0.49996   0.75001   0.47265   0.00000  Uiso   1.00
C317   C     0.40123   0.74997   0.23755   0.00000  Uiso   1.00
C318   C     0.59877   0.75001   0.26245   0.00000  Uiso   1.00
C319   C     0.34594   0.74996   0.23066   0.00000  Uiso   1.00
C320   C     0.65406   0.74998   0.26932   0.00000  Uiso   1.00
C321   C     0.48458   0.54705   0.28686   0.00000  Uiso   1.00
C322   C     0.48796   0.95302   0.20855   0.00000  Uiso   1.00
C323   C     0.48290   0.59293   0.28691   0.00000  Uiso   1.00
C324   C     0.50033   0.83508   0.25010   0.00000  Uiso   1.00
C325   C     0.48628   0.90712   0.20793   0.00000  Uiso   1.00
C326   C     0.50214   0.61675   0.25010   0.00000  Uiso   1.00
C327   C     0.50221   0.88335   0.25057   0.00000  Uiso   1.00
C328   C     0.52375   0.59435   0.21359   0.00000  Uiso   1.00
C329   C     0.52044   0.90590   0.29373   0.00000  Uiso   1.00
C330   C     0.52803   0.54840   0.21450   0.00000  Uiso   1.00
C331   C     0.52466   0.95187   0.29430   0.00000  Uiso   1.00
C332   C     0.50708   0.52438   0.25097   0.00000  Uiso   1.00
C333   C     0.50716   0.97581   0.25137   0.00000  Uiso   1.00
C334   C     0.59944   0.51335   0.19242   0.00000  Uiso   1.00
C335   C     0.53983   0.77055   0.05917   0.00000  Uiso   1.00
C336   C     0.63827   0.55172   0.19407   0.00000  Uiso   1.00
C337   C     0.36055   0.53515   0.20344   0.00000  Uiso   1.00
C338   C     0.59278   0.98839   0.33926   0.00000  Uiso   1.00
C339   C     0.63248   0.95070   0.34483   0.00000  Uiso   1.00
C340   C     0.35429   0.96870   0.35253   0.00000  Uiso   1.00
C341   C     0.47573   0.71602   0.44281   0.00000  Uiso   1.00
C342   C     0.53889   0.77046   0.10978   0.00000  Uiso   1.00
C343   C     0.47587   0.71681   0.39211   0.00000  Uiso   1.00
C344   C     0.46110   0.72956   0.09959   0.00000  Uiso   1.00
C345   C     0.52408   0.78320   0.39850   0.00000  Uiso   1.00
C346   C     0.46014   0.72946   0.04874   0.00000  Uiso   1.00
Cu347  Cu    0.50000   0.74999   0.29822   0.00000  Uiso   1.00
Cu348  Cu    0.50000   0.75000   0.20179   0.00000  Uiso   1.00
H349   H     0.65926   0.74995   0.19359   0.00000  Uiso   1.00
H350   H     0.45724   0.68846   0.45832   0.00000  Uiso   1.00
H351   H     0.56964   0.78674   0.13340   0.00000  Uiso   1.00
H352   H     0.45668   0.69058   0.36994   0.00000  Uiso   1.00
H353   H     0.43036   0.71330   0.11518   0.00000  Uiso   1.00
H354   H     0.54324   0.80944   0.38143   0.00000  Uiso   1.00
H355   H     0.42784   0.71380   0.02654   0.00000  Uiso   1.00
H356   H     0.54266   0.81158   0.46967   0.00000  Uiso   1.00
H357   H     0.60913   0.98863   0.16544   0.00000  Uiso   1.00
H358   H     0.60334   0.99582   0.22788   0.00000  Uiso   1.00
H359   H     0.63235   0.56973   0.15885   0.00000  Uiso   1.00
H360   H     0.34074   0.74997   0.30639   0.00000  Uiso   1.00
H361   H     0.63203   0.57516   0.22358   0.00000  Uiso   1.00
H362   H     0.36757   0.51734   0.23868   0.00000  Uiso   1.00
H363   H     0.38757   0.56367   0.20487   0.00000  Uiso   1.00
H364   H     0.36855   0.51257   0.17377   0.00000  Uiso   1.00
H365   H     0.60098   0.51057   0.37139   0.00000  Uiso   1.00
H366   H     0.59737   0.50915   0.30719   0.00000  Uiso   1.00
H367   H     0.62632   0.92977   0.37644   0.00000  Uiso   1.00
H368   H     0.62755   0.92975   0.31155   0.00000  Uiso   1.00
H369   H     0.36126   0.98975   0.32133   0.00000  Uiso   1.00
H370   H     0.38204   0.94077   0.35548   0.00000  Uiso   1.00
H371   H     0.46755   0.52917   0.31452   0.00000  Uiso   1.00
H372   H     0.36116   0.98852   0.38657   0.00000  Uiso   1.00
H373   H     0.47348   0.97081   0.17564   0.00000  Uiso   1.00
H374   H     0.46549   0.60975   0.31507   0.00000  Uiso   1.00
H375   H     0.47149   0.89027   0.17437   0.00000  Uiso   1.00
H376   H     0.53856   0.61255   0.18484   0.00000  Uiso   1.00
H377   H     0.53268   0.88783   0.32702   0.00000  Uiso   1.00
H378   H     0.57212   0.78620   0.04543   0.00000  Uiso   1.00
N379   N     0.50000   0.75001   0.12934   0.00000  Uiso   1.00
N380   N     0.50000   0.74999   0.37066   0.00000  Uiso   1.00
O381   O     0.50000   0.68572   0.29072   0.00000  Uiso   1.00
O382   O     0.54163   0.97252   0.33830   0.00000  Uiso   1.00
O383   O     0.50000   0.81427   0.20928   0.00000  Uiso   1.00
O384   O     0.50000   0.68573   0.20928   0.00000  Uiso   1.00
O385   O     0.50000   0.81427   0.29072   0.00000  Uiso   1.00
O386   O     0.42495   0.74999   0.28132   0.00000  Uiso   1.00
O387   O     0.57505   0.75000   0.21868   0.00000  Uiso   1.00
O388   O     0.42495   0.75000   0.19988   0.00000  Uiso   1.00
O389   O     0.57505   0.75000   0.30012   0.00000  Uiso   1.00
O390   O     0.54832   0.52768   0.17678   0.00000  Uiso   1.00
C391   C     0.83359   0.66495   0.24999   0.00000  Uiso   1.00
C392   C     0.85752   0.78401   0.44925   0.00000  Uiso   1.00
C393   C     0.83331   0.75001   0.02733   0.00000  Uiso   1.00
C394   C     0.83330   0.75001   0.47265   0.00000  Uiso   1.00
C395   C     0.73456   0.74997   0.23755   0.00000  Uiso   1.00
C396   C     0.93211   0.75001   0.26245   0.00000  Uiso   1.00
C397   C     0.67927   0.74996   0.23066   0.00000  Uiso   1.00
C398   C     0.98739   0.74998   0.26932   0.00000  Uiso   1.00
C399   C     0.81791   0.54705   0.28686   0.00000  Uiso   1.00
C400   C     0.82129   0.95302   0.20855   0.00000  Uiso   1.00
C401   C     0.81623   0.59293   0.28691   0.00000  Uiso   1.00
C402   C     0.83366   0.83508   0.25010   0.00000  Uiso   1.00
C403   C     0.81962   0.90712   0.20793   0.00000  Uiso   1.00
C404   C     0.83547   0.61675   0.25010   0.00000  Uiso   1.00
C405   C     0.83554   0.88335   0.25057   0.00000  Uiso   1.00
C406   C     0.85709   0.59435   0.21359   0.00000  Uiso   1.00
C407   C     0.85377   0.90590   0.29373   0.00000  Uiso   1.00
C408   C     0.86136   0.54840   0.21450   0.00000  Uiso   1.00
C409   C     0.85799   0.95187   0.29430   0.00000  Uiso   1.00
C410   C     0.84041   0.52438   0.25097   0.00000  Uiso   1.00
C411   C     0.84049   0.97581   0.25137   0.00000  Uiso   1.00
C412   C     0.93277   0.51335   0.19242   0.00000  Uiso   1.00
C413   C     0.87316   0.77055   0.05917   0.00000  Uiso   1.00
C414   C     0.97161   0.55172   0.19407   0.00000  Uiso   1.00
C415   C     0.69389   0.53515   0.20344   0.00000  Uiso   1.00
C416   C     0.92612   0.98839   0.33926   0.00000  Uiso   1.00
C417   C     0.96582   0.95070   0.34483   0.00000  Uiso   1.00
C418   C     0.68762   0.96870   0.35253   0.00000  Uiso   1.00
C419   C     0.80906   0.71602   0.44281   0.00000  Uiso   1.00
C420   C     0.87222   0.77046   0.10978   0.00000  Uiso   1.00
C421   C     0.80920   0.71681   0.39211   0.00000  Uiso   1.00
C422   C     0.79444   0.72956   0.09959   0.00000  Uiso   1.00
C423   C     0.85741   0.78320   0.39850   0.00000  Uiso   1.00
C424   C     0.79348   0.72946   0.04874   0.00000  Uiso   1.00
Cu425  Cu    0.83333   0.74999   0.29822   0.00000  Uiso   1.00
Cu426  Cu    0.83333   0.75000   0.20179   0.00000  Uiso   1.00
H427   H     0.99259   0.74995   0.19359   0.00000  Uiso   1.00
H428   H     0.79057   0.68846   0.45832   0.00000  Uiso   1.00
H429   H     0.90298   0.78674   0.13340   0.00000  Uiso   1.00
H430   H     0.79001   0.69058   0.36994   0.00000  Uiso   1.00
H431   H     0.76370   0.71330   0.11518   0.00000  Uiso   1.00
H432   H     0.87657   0.80944   0.38143   0.00000  Uiso   1.00
H433   H     0.76118   0.71380   0.02654   0.00000  Uiso   1.00
H434   H     0.87599   0.81158   0.46967   0.00000  Uiso   1.00
H435   H     0.94246   0.98863   0.16544   0.00000  Uiso   1.00
H436   H     0.93668   0.99582   0.22788   0.00000  Uiso   1.00
H437   H     0.96568   0.56973   0.15885   0.00000  Uiso   1.00
H438   H     0.67408   0.74997   0.30639   0.00000  Uiso   1.00
H439   H     0.96536   0.57516   0.22358   0.00000  Uiso   1.00
H440   H     0.70090   0.51734   0.23868   0.00000  Uiso   1.00
H441   H     0.72091   0.56367   0.20487   0.00000  Uiso   1.00
H442   H     0.70189   0.51257   0.17377   0.00000  Uiso   1.00
H443   H     0.93432   0.51057   0.37139   0.00000  Uiso   1.00
H444   H     0.93070   0.50915   0.30719   0.00000  Uiso   1.00
H445   H     0.95966   0.92977   0.37644   0.00000  Uiso   1.00
H446   H     0.96088   0.92975   0.31155   0.00000  Uiso   1.00
H447   H     0.69460   0.98975   0.32133   0.00000  Uiso   1.00
H448   H     0.71537   0.94077   0.35548   0.00000  Uiso   1.00
H449   H     0.80088   0.52917   0.31452   0.00000  Uiso   1.00
H450   H     0.69450   0.98852   0.38657   0.00000  Uiso   1.00
H451   H     0.80681   0.97081   0.17564   0.00000  Uiso   1.00
H452   H     0.79882   0.60975   0.31507   0.00000  Uiso   1.00
H453   H     0.80483   0.89027   0.17437   0.00000  Uiso   1.00
H454   H     0.87189   0.61255   0.18484   0.00000  Uiso   1.00
H455   H     0.86601   0.88783   0.32702   0.00000  Uiso   1.00
H456   H     0.90546   0.78620   0.04543   0.00000  Uiso   1.00
N457   N     0.83333   0.75001   0.12934   0.00000  Uiso   1.00
N458   N     0.83333   0.74999   0.37066   0.00000  Uiso   1.00
O459   O     0.83334   0.68572   0.29072   0.00000  Uiso   1.00
O460   O     0.87496   0.97252   0.33830   0.00000  Uiso   1.00
O461   O     0.83333   0.81427   0.20928   0.00000  Uiso   1.00
O462   O     0.83334   0.68573   0.20928   0.00000  Uiso   1.00
O463   O     0.83333   0.81427   0.29072   0.00000  Uiso   1.00
O464   O     0.75828   0.74999   0.28132   0.00000  Uiso   1.00
O465   O     0.90839   0.75000   0.21868   0.00000  Uiso   1.00
O466   O     0.75828   0.75000   0.19988   0.00000  Uiso   1.00
O467   O     0.90839   0.75000   0.30012   0.00000  Uiso   1.00
O468   O     0.88165   0.52768   0.17678   0.00000  Uiso   1.00
C469   C     0.16693   0.16495   0.74999   0.00000  Uiso   1.00
C470   C     0.19086   0.28401   0.94925   0.00000  Uiso   1.00
C471   C     0.16664   0.25001   0.52733   0.00000  Uiso   1.00
C472   C     0.16663   0.25001   0.97265   0.00000  Uiso   1.00
C473   C     0.06789   0.24997   0.73755   0.00000  Uiso   1.00
C474   C     0.26544   0.25001   0.76245   0.00000  Uiso   1.00
C475   C     0.01260   0.24996   0.73066   0.00000  Uiso   1.00
C476   C     0.32072   0.24998   0.76932   0.00000  Uiso   1.00
C477   C     0.15125   0.04705   0.78686   0.00000  Uiso   1.00
C478   C     0.15462   0.45302   0.70855   0.00000  Uiso   1.00
C479   C     0.14956   0.09293   0.78691   0.00000  Uiso   1.00
C480   C     0.16699   0.33508   0.75010   0.00000  Uiso   1.00
C481   C     0.15295   0.40712   0.70793   0.00000  Uiso   1.00
C482   C     0.16880   0.11675   0.75010   0.00000  Uiso   1.00
C483   C     0.16888   0.38335   0.75057   0.00000  Uiso   1.00
C484   C     0.19042   0.09435   0.71359   0.00000  Uiso   1.00
C485   C     0.18710   0.40590   0.79373   0.00000  Uiso   1.00
C486   C     0.19470   0.04840   0.71450   0.00000  Uiso   1.00
C487   C     0.19133   0.45187   0.79430   0.00000  Uiso   1.00
C488   C     0.17375   0.02438   0.75097   0.00000  Uiso   1.00
C489   C     0.17382   0.47581   0.75137   0.00000  Uiso   1.00
C490   C     0.26610   0.01335   0.69242   0.00000  Uiso   1.00
C491   C     0.20649   0.27055   0.55917   0.00000  Uiso   1.00
C492   C     0.30494   0.05172   0.69407   0.00000  Uiso   1.00
C493   C     0.02722   0.03515   0.70344   0.00000  Uiso   1.00
C494   C     0.25945   0.48839   0.83926   0.00000  Uiso   1.00
C495   C     0.29915   0.45070   0.84483   0.00000  Uiso   1.00
C496   C     0.02095   0.46870   0.85253   0.00000  Uiso   1.00
C497   C     0.14239   0.21602   0.94281   0.00000  Uiso   1.00
C498   C     0.20556   0.27046   0.60978   0.00000  Uiso   1.00
C499   C     0.14253   0.21681   0.89211   0.00000  Uiso   1.00
C500   C     0.12777   0.22956   0.59959   0.00000  Uiso   1.00
C501   C     0.19074   0.28320   0.89850   0.00000  Uiso   1.00
C502   C     0.12681   0.22946   0.54874   0.00000  Uiso   1.00
Cu503  Cu    0.16667   0.24999   0.79822   0.00000  Uiso   1.00
Cu504  Cu    0.16667   0.25000   0.70179   0.00000  Uiso   1.00
H505   H     0.32592   0.24995   0.69359   0.00000  Uiso   1.00
H506   H     0.12390   0.18846   0.95832   0.00000  Uiso   1.00
H507   H     0.23631   0.28674   0.63340   0.00000  Uiso   1.00
H508   H     0.12335   0.19058   0.86994   0.00000  Uiso   1.00
H509   H     0.09703   0.21330   0.61518   0.00000  Uiso   1.00
H510   H     0.20990   0.30944   0.88143   0.00000  Uiso   1.00
H511   H     0.09451   0.21380   0.52654   0.00000  Uiso   1.00
H512   H     0.20932   0.31158   0.96967   0.00000  Uiso   1.00
H513   H     0.27579   0.48863   0.66544   0.00000  Uiso   1.00
H514   H     0.27001   0.49582   0.72788   0.00000  Uiso   1.00
H515   H     0.29901   0.06973   0.65885   0.00000  Uiso   1.00
H516   H     0.00741   0.24997   0.80639   0.00000  Uiso   1.00
H517   H     0.29869   0.07516   0.72358   0.00000  Uiso   1.00
H518   H     0.03423   0.01734   0.73868   0.00000  Uiso   1.00
H519   H     0.05424   0.06367   0.70487   0.00000  Uiso   1.00
H520   H     0.03522   0.01257   0.67377   0.00000  Uiso   1.00
H521   H     0.26765   0.01057   0.87139   0.00000  Uiso   1.00
H522   H     0.26403   0.00915   0.80719   0.00000  Uiso   1.00
H523   H     0.29299   0.42977   0.87644   0.00000  Uiso   1.00
H524   H     0.29421   0.42975   0.81155   0.00000  Uiso   1.00
H525   H     0.02793   0.48975   0.82133   0.00000  Uiso   1.00
H526   H     0.04871   0.44077   0.85548   0.00000  Uiso   1.00
H527   H     0.13421   0.02917   0.81452   0.00000  Uiso   1.00
H528   H     0.02783   0.48852   0.88657   0.00000  Uiso   1.00
H529   H     0.14015   0.47081   0.67564   0.00000  Uiso   1.00
H530   H     0.13215   0.10975   0.81507   0.00000  Uiso   1.00
H531   H     0.13816   0.39027   0.67437   0.00000  Uiso   1.00
H532   H     0.20522   0.11255   0.68484   0.00000  Uiso   1.00
H533   H     0.19935   0.38783   0.82702   0.00000  Uiso   1.00
H534   H     0.23879   0.28620   0.54543   0.00000  Uiso   1.00
N535   N     0.16667   0.25001   0.62934   0.00000  Uiso   1.00
N536   N     0.16667   0.24999   0.87066   0.00000  Uiso   1.00
O537   O     0.16667   0.18572   0.79072   0.00000  Uiso   1.00
O538   O     0.20830   0.47252   0.83830   0.00000  Uiso   1.00
O539   O     0.16666   0.31427   0.70928   0.00000  Uiso   1.00
O540   O     0.16667   0.18573   0.70928   0.00000  Uiso   1.00
O541   O     0.16666   0.31427   0.79072   0.00000  Uiso   1.00
O542   O     0.09161   0.24999   0.78132   0.00000  Uiso   1.00
O543   O     0.24172   0.25000   0.71868   0.00000  Uiso   1.00
O544   O     0.09161   0.25000   0.69988   0.00000  Uiso   1.00
O545   O     0.24172   0.25000   0.80012   0.00000  Uiso   1.00
O546   O     0.21498   0.02768   0.67678   0.00000  Uiso   1.00
C547   C     0.50026   0.16495   0.74999   0.00000  Uiso   1.00
C548   C     0.52419   0.28401   0.94925   0.00000  Uiso   1.00
C549   C     0.49998   0.25001   0.52733   0.00000  Uiso   1.00
C550   C     0.49996   0.25001   0.97265   0.00000  Uiso   1.00
C551   C     0.40123   0.24997   0.73755   0.00000  Uiso   1.00
C552   C     0.59877   0.25001   0.76245   0.00000  Uiso   1.00
C553   C     0.34594   0.24996   0.73066   0.00000  Uiso   1.00
C554   C     0.65406   0.24998   0.76932   0.00000  Uiso   1.00
C555   C     0.48458   0.04705   0.78686   0.00000  Uiso   1.00
C556   C     0.48796   0.45302   0.70855   0.00000  Uiso   1.00
C557   C     0.48290   0.09293   0.78691   0.00000  Uiso   1.00
C558   C     0.50033   0.33508   0.75010   0.00000  Uiso   1.00
C559   C     0.48628   0.40712   0.70793   0.00000  Uiso   1.00
C560   C     0.50214   0.11675   0.75010   0.00000  Uiso   1.00
C561   C     0.50221   0.38335   0.75057   0.00000  Uiso   1.00
C562   C     0.52375   0.09435   0.71359   0.00000  Uiso   1.00
C563   C     0.52044   0.40590   0.79373   0.00000  Uiso   1.00
C564   C     0.52803   0.04840   0.71450   0.00000  Uiso   1.00
C565   C     0.52466   0.45187   0.79430   0.00000  Uiso   1.00
C566   C     0.50708   0.02438   0.75097   0.00000  Uiso   1.00
C567   C     0.50716   0.47581   0.75137   0.00000  Uiso   1.00
C568   C     0.59944   0.01335   0.69242   0.00000  Uiso   1.00
C569   C     0.53983   0.27055   0.55917   0.00000  Uiso   1.00
C570   C     0.63827   0.05172   0.69407   0.00000  Uiso   1.00
C571   C     0.36055   0.03515   0.70344   0.00000  Uiso   1.00
C572   C     0.59278   0.48839   0.83926   0.00000  Uiso   1.00
C573   C     0.63248   0.45070   0.84483   0.00000  Uiso   1.00
C574   C     0.35429   0.46870   0.85253   0.00000  Uiso   1.00
C575   C     0.47573   0.21602   0.94281   0.00000  Uiso   1.00
C576   C     0.53889   0.27046   0.60978   0.00000  Uiso   1.00
C577   C     0.47587   0.21681   0.89211   0.00000  Uiso   1.00
C578   C     0.46110   0.22956   0.59959   0.00000  Uiso   1.00
C579   C     0.52408   0.28320   0.89850   0.00000  Uiso   1.00
C580   C     0.46014   0.22946   0.54874   0.00000  Uiso   1.00
Cu581  Cu    0.50000   0.24999   0.79822   0.00000  Uiso   1.00
Cu582  Cu    0.50000   0.25000   0.70179   0.00000  Uiso   1.00
H583   H     0.65926   0.24995   0.69359   0.00000  Uiso   1.00
H584   H     0.45724   0.18846   0.95832   0.00000  Uiso   1.00
H585   H     0.56964   0.28674   0.63340   0.00000  Uiso   1.00
H586   H     0.45668   0.19058   0.86994   0.00000  Uiso   1.00
H587   H     0.43036   0.21330   0.61518   0.00000  Uiso   1.00
H588   H     0.54324   0.30944   0.88143   0.00000  Uiso   1.00
H589   H     0.42784   0.21380   0.52654   0.00000  Uiso   1.00
H590   H     0.54266   0.31158   0.96967   0.00000  Uiso   1.00
H591   H     0.60913   0.48863   0.66544   0.00000  Uiso   1.00
H592   H     0.60334   0.49582   0.72788   0.00000  Uiso   1.00
H593   H     0.63235   0.06973   0.65885   0.00000  Uiso   1.00
H594   H     0.34074   0.24997   0.80639   0.00000  Uiso   1.00
H595   H     0.63203   0.07516   0.72358   0.00000  Uiso   1.00
H596   H     0.36757   0.01734   0.73868   0.00000  Uiso   1.00
H597   H     0.38757   0.06367   0.70487   0.00000  Uiso   1.00
H598   H     0.36855   0.01257   0.67377   0.00000  Uiso   1.00
H599   H     0.60098   0.01057   0.87139   0.00000  Uiso   1.00
H600   H     0.59737   0.00915   0.80719   0.00000  Uiso   1.00
H601   H     0.62632   0.42977   0.87644   0.00000  Uiso   1.00
H602   H     0.62755   0.42975   0.81155   0.00000  Uiso   1.00
H603   H     0.36126   0.48975   0.82133   0.00000  Uiso   1.00
H604   H     0.38204   0.44077   0.85548   0.00000  Uiso   1.00
H605   H     0.46755   0.02917   0.81452   0.00000  Uiso   1.00
H606   H     0.36116   0.48852   0.88657   0.00000  Uiso   1.00
H607   H     0.47348   0.47081   0.67564   0.00000  Uiso   1.00
H608   H     0.46549   0.10975   0.81507   0.00000  Uiso   1.00
H609   H     0.47149   0.39027   0.67437   0.00000  Uiso   1.00
H610   H     0.53856   0.11255   0.68484   0.00000  Uiso   1.00
H611   H     0.53268   0.38783   0.82702   0.00000  Uiso   1.00
H612   H     0.57212   0.28620   0.54543   0.00000  Uiso   1.00
N613   N     0.50000   0.25001   0.62934   0.00000  Uiso   1.00
N614   N     0.50000   0.24999   0.87066   0.00000  Uiso   1.00
O615   O     0.50000   0.18572   0.79072   0.00000  Uiso   1.00
O616   O     0.54163   0.47252   0.83830   0.00000  Uiso   1.00
O617   O     0.50000   0.31427   0.70928   0.00000  Uiso   1.00
O618   O     0.50000   0.18573   0.70928   0.00000  Uiso   1.00
O619   O     0.50000   0.31427   0.79072   0.00000  Uiso   1.00
O620   O     0.42495   0.24999   0.78132   0.00000  Uiso   1.00
O621   O     0.57505   0.25000   0.71868   0.00000  Uiso   1.00
O622   O     0.42495   0.25000   0.69988   0.00000  Uiso   1.00
O623   O     0.57505   0.25000   0.80012   0.00000  Uiso   1.00
O624   O     0.54832   0.02768   0.67678   0.00000  Uiso   1.00
C625   C     0.83359   0.16495   0.74999   0.00000  Uiso   1.00
C626   C     0.85752   0.28401   0.94925   0.00000  Uiso   1.00
C627   C     0.83331   0.25001   0.52733   0.00000  Uiso   1.00
C628   C     0.83330   0.25001   0.97265   0.00000  Uiso   1.00
C629   C     0.73456   0.24997   0.73755   0.00000  Uiso   1.00
C630   C     0.93211   0.25001   0.76245   0.00000  Uiso   1.00
C631   C     0.67927   0.24996   0.73066   0.00000  Uiso   1.00
C632   C     0.98739   0.24998   0.76932   0.00000  Uiso   1.00
C633   C     0.81791   0.04705   0.78686   0.00000  Uiso   1.00
C634   C     0.82129   0.45302   0.70855   0.00000  Uiso   1.00
C635   C     0.81623   0.09293   0.78691   0.00000  Uiso   1.00
C636   C     0.83366   0.33508   0.75010   0.00000  Uiso   1.00
C637   C     0.81962   0.40712   0.70793   0.00000  Uiso   1.00
C638   C     0.83547   0.11675   0.75010   0.00000  Uiso   1.00
C639   C     0.83554   0.38335   0.75057   0.00000  Uiso   1.00
C640   C     0.85709   0.09435   0.71359   0.00000  Uiso   1.00
C641   C     0.85377   0.40590   0.79373   0.00000  Uiso   1.00
C642   C     0.86136   0.04840   0.71450   0.00000  Uiso   1.00
C643   C     0.85799   0.45187   0.79430   0.00000  Uiso   1.00
C644   C     0.84041   0.02438   0.75097   0.00000  Uiso   1.00
C645   C     0.84049   0.47581   0.75137   0.00000  Uiso   1.00
C646   C     0.93277   0.01335   0.69242   0.00000  Uiso   1.00
C647   C     0.87316   0.27055   0.55917   0.00000  Uiso   1.00
C648   C     0.97161   0.05172   0.69407   0.00000  Uiso   1.00
C649   C     0.69389   0.03515   0.70344   0.00000  Uiso   1.00
C650   C     0.92612   0.48839   0.83926   0.00000  Uiso   1.00
C651   C     0.96582   0.45070   0.84483   0.00000  Uiso   1.00
C652   C     0.68762   0.46870   0.85253   0.00000  Uiso   1.00
C653   C     0.80906   0.21602   0.94281   0.00000  Uiso   1.00
C654   C     0.87222   0.27046   0.60978   0.00000  Uiso   1.00
C655   C     0.80920   0.21681   0.89211   0.00000  Uiso   1.00
C656   C     0.79444   0.22956   0.59959   0.00000  Uiso   1.00
C657   C     0.85741   0.28320   0.89850   0.00000  Uiso   1.00
C658   C     0.79348   0.22946   0.54874   0.00000  Uiso   1.00
Cu659  Cu    0.83333   0.24999   0.79822   0.00000  Uiso   1.00
Cu660  Cu    0.83333   0.25000   0.70179   0.00000  Uiso   1.00
H661   H     0.99259   0.24995   0.69359   0.00000  Uiso   1.00
H662   H     0.79057   0.18846   0.95832   0.00000  Uiso   1.00
H663   H     0.90298   0.28674   0.63340   0.00000  Uiso   1.00
H664   H     0.79001   0.19058   0.86994   0.00000  Uiso   1.00
H665   H     0.76370   0.21330   0.61518   0.00000  Uiso   1.00
H666   H     0.87657   0.30944   0.88143   0.00000  Uiso   1.00
H667   H     0.76118   0.21380   0.52654   0.00000  Uiso   1.00
H668   H     0.87599   0.31158   0.96967   0.00000  Uiso   1.00
H669   H     0.94246   0.48863   0.66544   0.00000  Uiso   1.00
H670   H     0.93668   0.49582   0.72788   0.00000  Uiso   1.00
H671   H     0.96568   0.06973   0.65885   0.00000  Uiso   1.00
H672   H     0.67408   0.24997   0.80639   0.00000  Uiso   1.00
H673   H     0.96536   0.07516   0.72358   0.00000  Uiso   1.00
H674   H     0.70090   0.01734   0.73868   0.00000  Uiso   1.00
H675   H     0.72091   0.06367   0.70487   0.00000  Uiso   1.00
H676   H     0.70189   0.01257   0.67377   0.00000  Uiso   1.00
H677   H     0.93432   0.01057   0.87139   0.00000  Uiso   1.00
H678   H     0.93070   0.00915   0.80719   0.00000  Uiso   1.00
H679   H     0.95966   0.42977   0.87644   0.00000  Uiso   1.00
H680   H     0.96088   0.42975   0.81155   0.00000  Uiso   1.00
H681   H     0.69460   0.48975   0.82133   0.00000  Uiso   1.00
H682   H     0.71537   0.44077   0.85548   0.00000  Uiso   1.00
H683   H     0.80088   0.02917   0.81452   0.00000  Uiso   1.00
H684   H     0.69450   0.48852   0.88657   0.00000  Uiso   1.00
H685   H     0.80681   0.47081   0.67564   0.00000  Uiso   1.00
H686   H     0.79882   0.10975   0.81507   0.00000  Uiso   1.00
H687   H     0.80483   0.39027   0.67437   0.00000  Uiso   1.00
H688   H     0.87189   0.11255   0.68484   0.00000  Uiso   1.00
H689   H     0.86601   0.38783   0.82702   0.00000  Uiso   1.00
H690   H     0.90546   0.28620   0.54543   0.00000  Uiso   1.00
N691   N     0.83333   0.25001   0.62934   0.00000  Uiso   1.00
N692   N     0.83333   0.24999   0.87066   0.00000  Uiso   1.00
O693   O     0.83334   0.18572   0.79072   0.00000  Uiso   1.00
O694   O     0.87496   0.47252   0.83830   0.00000  Uiso   1.00
O695   O     0.83333   0.31427   0.70928   0.00000  Uiso   1.00
O696   O     0.83334   0.18573   0.70928   0.00000  Uiso   1.00
O697   O     0.83333   0.31427   0.79072   0.00000  Uiso   1.00
O698   O     0.75828   0.24999   0.78132   0.00000  Uiso   1.00
O699   O     0.90839   0.25000   0.71868   0.00000  Uiso   1.00
O700   O     0.75828   0.25000   0.69988   0.00000  Uiso   1.00
O701   O     0.90839   0.25000   0.80012   0.00000  Uiso   1.00
O702   O     0.88165   0.02768   0.67678   0.00000  Uiso   1.00
C703   C     0.16693   0.66495   0.74999   0.00000  Uiso   1.00
C704   C     0.19086   0.78401   0.94925   0.00000  Uiso   1.00
C705   C     0.16664   0.75001   0.52733   0.00000  Uiso   1.00
C706   C     0.16663   0.75001   0.97265   0.00000  Uiso   1.00
C707   C     0.06789   0.74997   0.73755   0.00000  Uiso   1.00
C708   C     0.26544   0.75001   0.76245   0.00000  Uiso   1.00
C709   C     0.01260   0.74996   0.73066   0.00000  Uiso   1.00
C710   C     0.32072   0.74998   0.76932   0.00000  Uiso   1.00
C711   C     0.15125   0.54705   0.78686   0.00000  Uiso   1.00
C712   C     0.15462   0.95302   0.70855   0.00000  Uiso   1.00
C713   C     0.14956   0.59293   0.78691   0.00000  Uiso   1.00
C714   C     0.16699   0.83508   0.75010   0.00000  Uiso   1.00
C715   C     0.15295   0.90712   0.70793   0.00000  Uiso   1.00
C716   C     0.16880   0.61675   0.75010   0.00000  Uiso   1.00
C717   C     0.16888   0.88335   0.75057   0.00000  Uiso   1.00
C718   C     0.19042   0.59435   0.71359   0.00000  Uiso   1.00
C719   C     0.18710   0.90590   0.79373   0.00000  Uiso   1.00
C720   C     0.19470   0.54840   0.71450   0.00000  Uiso   1.00
C721   C     0.19133   0.95187   0.79430   0.00000  Uiso   1.00
C722   C     0.17375   0.52438   0.75097   0.00000  Uiso   1.00
C723   C     0.17382   0.97581   0.75137   0.00000  Uiso   1.00
C724   C     0.26610   0.51335   0.69242   0.00000  Uiso   1.00
C725   C     0.20649   0.77055   0.55917   0.00000  Uiso   1.00
C726   C     0.30494   0.55172   0.69407   0.00000  Uiso   1.00
C727   C     0.02722   0.53515   0.70344   0.00000  Uiso   1.00
C728   C     0.25945   0.98839   0.83926   0.00000  Uiso   1.00
C729   C     0.29915   0.95070   0.84483   0.00000  Uiso   1.00
C730   C     0.02095   0.96870   0.85253   0.00000  Uiso   1.00
C731   C     0.14239   0.71602   0.94281   0.00000  Uiso   1.00
C732   C     0.20556   0.77046   0.60978   0.00000  Uiso   1.00
C733   C     0.14253   0.71681   0.89211   0.00000  Uiso   1.00
C734   C     0.12777   0.72956   0.59959   0.00000  Uiso   1.00
C735   C     0.19074   0.78320   0.89850   0.00000  Uiso   1.00
C736   C     0.12681   0.72946   0.54874   0.00000  Uiso   1.00
Cu737  Cu    0.16667   0.74999   0.79822   0.00000  Uiso   1.00
Cu738  Cu    0.16667   0.75000   0.70179   0.00000  Uiso   1.00
H739   H     0.32592   0.74995   0.69359   0.00000  Uiso   1.00
H740   H     0.12390   0.68846   0.95832   0.00000  Uiso   1.00
H741   H     0.23631   0.78674   0.63340   0.00000  Uiso   1.00
H742   H     0.12335   0.69058   0.86994   0.00000  Uiso   1.00
H743   H     0.09703   0.71330   0.61518   0.00000  Uiso   1.00
H744   H     0.20990   0.80944   0.88143   0.00000  Uiso   1.00
H745   H     0.09451   0.71380   0.52654   0.00000  Uiso   1.00
H746   H     0.20932   0.81158   0.96967   0.00000  Uiso   1.00
H747   H     0.27579   0.98863   0.66544   0.00000  Uiso   1.00
H748   H     0.27001   0.99582   0.72788   0.00000  Uiso   1.00
H749   H     0.29901   0.56973   0.65885   0.00000  Uiso   1.00
H750   H     0.00741   0.74997   0.80639   0.00000  Uiso   1.00
H751   H     0.29869   0.57516   0.72358   0.00000  Uiso   1.00
H752   H     0.03423   0.51734   0.73868   0.00000  Uiso   1.00
H753   H     0.05424   0.56367   0.70487   0.00000  Uiso   1.00
H754   H     0.03522   0.51257   0.67377   0.00000  Uiso   1.00
H755   H     0.26765   0.51057   0.87139   0.00000  Uiso   1.00
H756   H     0.26403   0.50915   0.80719   0.00000  Uiso   1.00
H757   H     0.29299   0.92977   0.87644   0.00000  Uiso   1.00
H758   H     0.29421   0.92975   0.81155   0.00000  Uiso   1.00
H759   H     0.02793   0.98975   0.82133   0.00000  Uiso   1.00
H760   H     0.04871   0.94077   0.85548   0.00000  Uiso   1.00
H761   H     0.13421   0.52917   0.81452   0.00000  Uiso   1.00
H762   H     0.02783   0.98852   0.88657   0.00000  Uiso   1.00
H763   H     0.14015   0.97081   0.67564   0.00000  Uiso   1.00
H764   H     0.13215   0.60975   0.81507   0.00000  Uiso   1.00
H765   H     0.13816   0.89027   0.67437   0.00000  Uiso   1.00
H766   H     0.20522   0.61255   0.68484   0.00000  Uiso   1.00
H767   H     0.19935   0.88783   0.82702   0.00000  Uiso   1.00
H768   H     0.23879   0.78620   0.54543   0.00000  Uiso   1.00
N769   N     0.16667   0.75001   0.62934   0.00000  Uiso   1.00
N770   N     0.16667   0.74999   0.87066   0.00000  Uiso   1.00
O771   O     0.16667   0.68572   0.79072   0.00000  Uiso   1.00
O772   O     0.20830   0.97252   0.83830   0.00000  Uiso   1.00
O773   O     0.16666   0.81427   0.70928   0.00000  Uiso   1.00
O774   O     0.16667   0.68573   0.70928   0.00000  Uiso   1.00
O775   O     0.16666   0.81427   0.79072   0.00000  Uiso   1.00
O776   O     0.09161   0.74999   0.78132   0.00000  Uiso   1.00
O777   O     0.24172   0.75000   0.71868   0.00000  Uiso   1.00
O778   O     0.09161   0.75000   0.69988   0.00000  Uiso   1.00
O779   O     0.24172   0.75000   0.80012   0.00000  Uiso   1.00
O780   O     0.21498   0.52768   0.67678   0.00000  Uiso   1.00
C781   C     0.50026   0.66495   0.74999   0.00000  Uiso   1.00
C782   C     0.52419   0.78401   0.94925   0.00000  Uiso   1.00
C783   C     0.49998   0.75001   0.52733   0.00000  Uiso   1.00
C784   C     0.49996   0.75001   0.97265   0.00000  Uiso   1.00
C785   C     0.40123   0.74997   0.73755   0.00000  Uiso   1.00
C786   C     0.59877   0.75001   0.76245   0.00000  Uiso   1.00
C787   C     0.34594   0.74996   0.73066   0.00000  Uiso   1.00
C788   C     0.65406   0.74998   0.76932   0.00000  Uiso   1.00
C789   C     0.48458   0.54705   0.78686   0.00000  Uiso   1.00
C790   C     0.48796   0.95302   0.70855   0.00000  Uiso   1.00
C791   C     0.48290   0.59293   0.78691   0.00000  Uiso   1.00
C792   C     0.50033   0.83508   0.75010   0.00000  Uiso   1.00
C793   C     0.48628   0.90712   0.70793   0.00000  Uiso   1.00
C794   C     0.50214   0.61675   0.75010   0.00000  Uiso   1.00
C795   C     0.50221   0.88335   0.75057   0.00000  Uiso   1.00
C796   C     0.52375   0.59435   0.71359   0.00000  Uiso   1.00
C797   C     0.52044   0.90590   0.79373   0.00000  Uiso   1.00
C798   C     0.52803   0.54840   0.71450   0.00000  Uiso   1.00
C799   C     0.52466   0.95187   0.79430   0.00000  Uiso   1.00
C800   C     0.50708   0.52438   0.75097   0.00000  Uiso   1.00
C801   C     0.50716   0.97581   0.75137   0.00000  Uiso   1.00
C802   C     0.59944   0.51335   0.69242   0.00000  Uiso   1.00
C803   C     0.53983   0.77055   0.55917   0.00000  Uiso   1.00
C804   C     0.63827   0.55172   0.69407   0.00000  Uiso   1.00
C805   C     0.36055   0.53515   0.70344   0.00000  Uiso   1.00
C806   C     0.59278   0.98839   0.83926   0.00000  Uiso   1.00
C807   C     0.63248   0.95070   0.84483   0.00000  Uiso   1.00
C808   C     0.35429   0.96870   0.85253   0.00000  Uiso   1.00
C809   C     0.47573   0.71602   0.94281   0.00000  Uiso   1.00
C810   C     0.53889   0.77046   0.60978   0.00000  Uiso   1.00
C811   C     0.47587   0.71681   0.89211   0.00000  Uiso   1.00
C812   C     0.46110   0.72956   0.59959   0.00000  Uiso   1.00
C813   C     0.52408   0.78320   0.89850   0.00000  Uiso   1.00
C814   C     0.46014   0.72946   0.54874   0.00000  Uiso   1.00
Cu815  Cu    0.50000   0.74999   0.79822   0.00000  Uiso   1.00
Cu816  Cu    0.50000   0.75000   0.70179   0.00000  Uiso   1.00
H817   H     0.65926   0.74995   0.69359   0.00000  Uiso   1.00
H818   H     0.45724   0.68846   0.95832   0.00000  Uiso   1.00
H819   H     0.56964   0.78674   0.63340   0.00000  Uiso   1.00
H820   H     0.45668   0.69058   0.86994   0.00000  Uiso   1.00
H821   H     0.43036   0.71330   0.61518   0.00000  Uiso   1.00
H822   H     0.54324   0.80944   0.88143   0.00000  Uiso   1.00
H823   H     0.42784   0.71380   0.52654   0.00000  Uiso   1.00
H824   H     0.54266   0.81158   0.96967   0.00000  Uiso   1.00
H825   H     0.60913   0.98863   0.66544   0.00000  Uiso   1.00
H826   H     0.60334   0.99582   0.72788   0.00000  Uiso   1.00
H827   H     0.63235   0.56973   0.65885   0.00000  Uiso   1.00
H828   H     0.34074   0.74997   0.80639   0.00000  Uiso   1.00
H829   H     0.63203   0.57516   0.72358   0.00000  Uiso   1.00
H830   H     0.36757   0.51734   0.73868   0.00000  Uiso   1.00
H831   H     0.38757   0.56367   0.70487   0.00000  Uiso   1.00
H832   H     0.36855   0.51257   0.67377   0.00000  Uiso   1.00
H833   H     0.60098   0.51057   0.87139   0.00000  Uiso   1.00
H834   H     0.59737   0.50915   0.80719   0.00000  Uiso   1.00
H835   H     0.62632   0.92977   0.87644   0.00000  Uiso   1.00
H836   H     0.62755   0.92975   0.81155   0.00000  Uiso   1.00
H837   H     0.36126   0.98975   0.82133   0.00000  Uiso   1.00
H838   H     0.38204   0.94077   0.85548   0.00000  Uiso   1.00
H839   H     0.46755   0.52917   0.81452   0.00000  Uiso   1.00
H840   H     0.36116   0.98852   0.88657   0.00000  Uiso   1.00
H841   H     0.47348   0.97081   0.67564   0.00000  Uiso   1.00
H842   H     0.46549   0.60975   0.81507   0.00000  Uiso   1.00
H843   H     0.47149   0.89027   0.67437   0.00000  Uiso   1.00
H844   H     0.53856   0.61255   0.68484   0.00000  Uiso   1.00
H845   H     0.53268   0.88783   0.82702   0.00000  Uiso   1.00
H846   H     0.57212   0.78620   0.54543   0.00000  Uiso   1.00
N847   N     0.50000   0.75001   0.62934   0.00000  Uiso   1.00
N848   N     0.50000   0.74999   0.87066   0.00000  Uiso   1.00
O849   O     0.50000   0.68572   0.79072   0.00000  Uiso   1.00
O850   O     0.54163   0.97252   0.83830   0.00000  Uiso   1.00
O851   O     0.50000   0.81427   0.70928   0.00000  Uiso   1.00
O852   O     0.50000   0.68573   0.70928   0.00000  Uiso   1.00
O853   O     0.50000   0.81427   0.79072   0.00000  Uiso   1.00
O854   O     0.42495   0.74999   0.78132   0.00000  Uiso   1.00
O855   O     0.57505   0.75000   0.71868   0.00000  Uiso   1.00
O856   O     0.42495   0.75000   0.69988   0.00000  Uiso   1.00
O857   O     0.57505   0.75000   0.80012   0.00000  Uiso   1.00
O858   O     0.54832   0.52768   0.67678   0.00000  Uiso   1.00
C859   C     0.83359   0.66495   0.74999   0.00000  Uiso   1.00
C860   C     0.85752   0.78401   0.94925   0.00000  Uiso   1.00
C861   C     0.83331   0.75001   0.52733   0.00000  Uiso   1.00
C862   C     0.83330   0.75001   0.97265   0.00000  Uiso   1.00
C863   C     0.73456   0.74997   0.73755   0.00000  Uiso   1.00
C864   C     0.93211   0.75001   0.76245   0.00000  Uiso   1.00
C865   C     0.67927   0.74996   0.73066   0.00000  Uiso   1.00
C866   C     0.98739   0.74998   0.76932   0.00000  Uiso   1.00
C867   C     0.81791   0.54705   0.78686   0.00000  Uiso   1.00
C868   C     0.82129   0.95302   0.70855   0.00000  Uiso   1.00
C869   C     0.81623   0.59293   0.78691   0.00000  Uiso   1.00
C870   C     0.83366   0.83508   0.75010   0.00000  Uiso   1.00
C871   C     0.81962   0.90712   0.70793   0.00000  Uiso   1.00
C872   C     0.83547   0.61675   0.75010   0.00000  Uiso   1.00
C873   C     0.83554   0.88335   0.75057   0.00000  Uiso   1.00
C874   C     0.85709   0.59435   0.71359   0.00000  Uiso   1.00
C875   C     0.85377   0.90590   0.79373   0.00000  Uiso   1.00
C876   C     0.86136   0.54840   0.71450   0.00000  Uiso   1.00
C877   C     0.85799   0.95187   0.79430   0.00000  Uiso   1.00
C878   C     0.84041   0.52438   0.75097   0.00000  Uiso   1.00
C879   C     0.84049   0.97581   0.75137   0.00000  Uiso   1.00
C880   C     0.93277   0.51335   0.69242   0.00000  Uiso   1.00
C881   C     0.87316   0.77055   0.55917   0.00000  Uiso   1.00
C882   C     0.97161   0.55172   0.69407   0.00000  Uiso   1.00
C883   C     0.69389   0.53515   0.70344   0.00000  Uiso   1.00
C884   C     0.92612   0.98839   0.83926   0.00000  Uiso   1.00
C885   C     0.96582   0.95070   0.84483   0.00000  Uiso   1.00
C886   C     0.68762   0.96870   0.85253   0.00000  Uiso   1.00
C887   C     0.80906   0.71602   0.94281   0.00000  Uiso   1.00
C888   C     0.87222   0.77046   0.60978   0.00000  Uiso   1.00
C889   C     0.80920   0.71681   0.89211   0.00000  Uiso   1.00
C890   C     0.79444   0.72956   0.59959   0.00000  Uiso   1.00
C891   C     0.85741   0.78320   0.89850   0.00000  Uiso   1.00
C892   C     0.79348   0.72946   0.54874   0.00000  Uiso   1.00
Cu893  Cu    0.83333   0.74999   0.79822   0.00000  Uiso   1.00
Cu894  Cu    0.83333   0.75000   0.70179   0.00000  Uiso   1.00
H895   H     0.99259   0.74995   0.69359   0.00000  Uiso   1.00
H896   H     0.79057   0.68846   0.95832   0.00000  Uiso   1.00
H897   H     0.90298   0.78674   0.63340   0.00000  Uiso   1.00
H898   H     0.79001   0.69058   0.86994   0.00000  Uiso   1.00
H899   H     0.76370   0.71330   0.61518   0.00000  Uiso   1.00
H900   H     0.87657   0.80944   0.88143   0.00000  Uiso   1.00
H901   H     0.76118   0.71380   0.52654   0.00000  Uiso   1.00
H902   H     0.87599   0.81158   0.96967   0.00000  Uiso   1.00
H903   H     0.94246   0.98863   0.66544   0.00000  Uiso   1.00
H904   H     0.93668   0.99582   0.72788   0.00000  Uiso   1.00
H905   H     0.96568   0.56973   0.65885   0.00000  Uiso   1.00
H906   H     0.67408   0.74997   0.80639   0.00000  Uiso   1.00
H907   H     0.96536   0.57516   0.72358   0.00000  Uiso   1.00
H908   H     0.70090   0.51734   0.73868   0.00000  Uiso   1.00
H909   H     0.72091   0.56367   0.70487   0.00000  Uiso   1.00
H910   H     0.70189   0.51257   0.67377   0.00000  Uiso   1.00
H911   H     0.93432   0.51057   0.87139   0.00000  Uiso   1.00
H912   H     0.93070   0.50915   0.80719   0.00000  Uiso   1.00
H913   H     0.95966   0.92977   0.87644   0.00000  Uiso   1.00
H914   H     0.96088   0.92975   0.81155   0.00000  Uiso   1.00
H915   H     0.69460   0.98975   0.82133   0.00000  Uiso   1.00
H916   H     0.71537   0.94077   0.85548   0.00000  Uiso   1.00
H917   H     0.80088   0.52917   0.81452   0.00000  Uiso   1.00
H918   H     0.69450   0.98852   0.88657   0.00000  Uiso   1.00
H919   H     0.80681   0.97081   0.67564   0.00000  Uiso   1.00
H920   H     0.79882   0.60975   0.81507   0.00000  Uiso   1.00
H921   H     0.80483   0.89027   0.67437   0.00000  Uiso   1.00
H922   H     0.87189   0.61255   0.68484   0.00000  Uiso   1.00
H923   H     0.86601   0.88783   0.82702   0.00000  Uiso   1.00
H924   H     0.90546   0.78620   0.54543   0.00000  Uiso   1.00
N925   N     0.83333   0.75001   0.62934   0.00000  Uiso   1.00
N926   N     0.83333   0.74999   0.87066   0.00000  Uiso   1.00
O927   O     0.83334   0.68572   0.79072   0.00000  Uiso   1.00
O928   O     0.87496   0.97252   0.83830   0.00000  Uiso   1.00
O929   O     0.83333   0.81427   0.70928   0.00000  Uiso   1.00
O930   O     0.83334   0.68573   0.70928   0.00000  Uiso   1.00
O931   O     0.83333   0.81427   0.79072   0.00000  Uiso   1.00
O932   O     0.75828   0.74999   0.78132   0.00000  Uiso   1.00
O933   O     0.90839   0.75000   0.71868   0.00000  Uiso   1.00
O934   O     0.75828   0.75000   0.69988   0.00000  Uiso   1.00
O935   O     0.90839   0.75000   0.80012   0.00000  Uiso   1.00
O936   O     0.88165   0.52768   0.67678   0.00000  Uiso   1.00
loop_
_geom_bond_atom_site_label_1
_geom_bond_atom_site_label_2
_geom_bond_distance
_geom_bond_site_symmetry_2
_ccdc_geom_bond_type
C1     O72     1.292   .     A
C1     O69     1.292   .     A
C1     C14     1.458   .     S
C2     H44     1.081   .     S
C2     C4      1.411   .     A
C2     C33     1.407   .     A
C3     C23     1.411   .     A
C3     C34     1.411   .     A
C3     C472    1.517   1_554 S
C4     C29     1.411   .     A
C4     C471    1.517   .     S
C5     O74     1.285   .     A
C5     C7      1.432   .     S
C5     O76     1.286   .     A
C6     O75     1.285   .     A
C6     O77     1.286   .     A
C6     C8      1.432   .     S
C7     C164    1.334   1_455 S
C7     H193    1.087   1_455 S
C8     C85     1.334   .     S
C8     H126    1.087   .     S
C9     H59     1.083   .     S
C9     C20     1.403   .     A
C9     C11     1.388   .     A
C10    C21     1.403   .     A
C10    H61     1.083   .     S
C10    C13     1.388   .     A
C11    H62     1.083   .     S
C11    C14     1.399   .     A
C12    O73     1.292   .     A
C12    C15     1.460   .     S
C12    O71     1.293   .     A
C13    H63     1.083   .     S
C13    C15     1.399   .     A
C14    C16     1.400   .     A
C15    C17     1.401   .     A
C16    C18     1.394   .     A
C16    H64     1.084   .     S
C17    H65     1.084   .     S
C17    C19     1.394   .     A
C18    O78     1.386   .     S
C18    C20     1.416   .     A
C19    C21     1.416   .     A
C19    O70     1.386   .     S
C20    C255    1.468   1_545 S
C21    C254    1.468   .     S
C22    O78     1.416   .     S
C22    C24     1.536   .     S
C22    H279    1.111   1_545 S
C22    H280    1.110   1_545 S
C23    H66     1.081   .     S
C23    C30     1.407   .     A
C24    H49     1.111   .     S
C24    H47     1.111   .     S
C24    C103    1.527   .     S
C25    H50     1.110   .     S
C25    H51     1.110   .     S
C25    H52     1.111   .     S
C25    C180    1.527   1_455 S
C26    C27     1.537   .     S
C26    O70     1.416   .     S
C26    H287    1.111   .     S
C26    H288    1.109   .     S
C27    H55     1.111   .     S
C27    H56     1.111   .     S
C27    C106    1.526   .     S
C28    H57     1.110   .     S
C28    H60     1.111   .     S
C28    H58     1.110   .     S
C28    C183    1.526   1_455 S
C29    H38     1.081   .     S
C29    C31     1.407   .     A
C30    N67     1.364   .     A
C30    H39     1.081   .     S
C31    H40     1.081   .     S
C31    N68     1.364   .     A
C32    H41     1.081   .     S
C32    C34     1.407   .     A
C32    N67     1.364   .     A
C33    H42     1.081   .     S
C33    N68     1.364   .     A
C34    H43     1.081   .     S
Cu35   O74     1.953   .     S
Cu35   Cu36    2.675   .     S
Cu35   O77     1.956   .     S
Cu35   O73     1.955   .     S
Cu35   N68     2.009   .     S
Cu35   O69     1.954   .     S
Cu36   N67     2.009   .     S
Cu36   O76     1.956   .     S
Cu36   O71     1.954   .     S
Cu36   O75     1.953   .     S
Cu36   O72     1.955   .     S
H37    C85     1.087   .     S
H45    C256    1.111   .     S
H46    C256    1.110   .     S
H48    C164    1.087   1_455 S
H53    C260    1.111   1_545 S
H54    C260    1.109   1_545 S
C79    O150    1.292   .     A
C79    O147    1.292   .     A
C79    C92     1.458   .     S
C80    H122    1.081   .     S
C80    C82     1.411   .     A
C80    C111    1.407   .     A
C81    C101    1.411   .     A
C81    C112    1.411   .     A
C81    C550    1.517   1_554 S
C82    C107    1.411   .     A
C82    C549    1.517   .     S
C83    O152    1.285   .     A
C83    C85     1.432   .     S
C83    O154    1.286   .     A
C84    O153    1.285   .     A
C84    O155    1.286   .     A
C84    C86     1.432   .     S
C86    C163    1.334   .     S
C86    H204    1.087   .     S
C87    H137    1.083   .     S
C87    C98     1.403   .     A
C87    C89     1.388   .     A
C88    C99     1.403   .     A
C88    H139    1.083   .     S
C88    C91     1.388   .     A
C89    H140    1.083   .     S
C89    C92     1.399   .     A
C90    O151    1.292   .     A
C90    C93     1.460   .     S
C90    O149    1.293   .     A
C91    H141    1.083   .     S
C91    C93     1.399   .     A
C92    C94     1.400   .     A
C93    C95     1.401   .     A
C94    C96     1.394   .     A
C94    H142    1.084   .     S
C95    H143    1.084   .     S
C95    C97     1.394   .     A
C96    O156    1.386   .     S
C96    C98     1.416   .     A
C97    C99     1.416   .     A
C97    O148    1.386   .     S
C98    C333    1.468   1_545 S
C99    C332    1.468   .     S
C100   O156    1.416   .     S
C100   C102    1.536   .     S
C100   H357    1.111   1_545 S
C100   H358    1.110   1_545 S
C101   H144    1.081   .     S
C101   C108    1.407   .     A
C102   H127    1.111   .     S
C102   H125    1.111   .     S
C102   C181    1.527   .     S
C103   H128    1.110   .     S
C103   H129    1.110   .     S
C103   H130    1.111   .     S
C104   C105    1.537   .     S
C104   O148    1.416   .     S
C104   H365    1.111   .     S
C104   H366    1.109   .     S
C105   H133    1.111   .     S
C105   H134    1.111   .     S
C105   C184    1.526   .     S
C106   H135    1.110   .     S
C106   H138    1.111   .     S
C106   H136    1.110   .     S
C107   H116    1.081   .     S
C107   C109    1.407   .     A
C108   N145    1.364   .     A
C108   H117    1.081   .     S
C109   H118    1.081   .     S
C109   N146    1.364   .     A
C110   H119    1.081   .     S
C110   C112    1.407   .     A
C110   N145    1.364   .     A
C111   H120    1.081   .     S
C111   N146    1.364   .     A
C112   H121    1.081   .     S
Cu113  O152    1.953   .     S
Cu113  Cu114   2.675   .     S
Cu113  O155    1.956   .     S
Cu113  O151    1.955   .     S
Cu113  N146    2.009   .     S
Cu113  O147    1.954   .     S
Cu114  N145    2.009   .     S
Cu114  O154    1.956   .     S
Cu114  O149    1.954   .     S
Cu114  O153    1.953   .     S
Cu114  O150    1.955   .     S
H115   C163    1.087   .     S
H123   C334    1.111   .     S
H124   C334    1.110   .     S
H131   C338    1.111   1_545 S
H132   C338    1.109   1_545 S
C157   O228    1.292   .     A
C157   O225    1.292   .     A
C157   C170    1.458   .     S
C158   H200    1.081   .     S
C158   C160    1.411   .     A
C158   C189    1.407   .     A
C159   C179    1.411   .     A
C159   C190    1.411   .     A
C159   C628    1.517   1_554 S
C160   C185    1.411   .     A
C160   C627    1.517   .     S
C161   O230    1.285   .     A
C161   C163    1.432   .     S
C161   O232    1.286   .     A
C162   O231    1.285   .     A
C162   O233    1.286   .     A
C162   C164    1.432   .     S
C164   C7      1.334   1_655 S
C164   H48     1.087   1_655 S
C165   H215    1.083   .     S
C165   C176    1.403   .     A
C165   C167    1.388   .     A
C166   C177    1.403   .     A
C166   H217    1.083   .     S
C166   C169    1.388   .     A
C167   H218    1.083   .     S
C167   C170    1.399   .     A
C168   O229    1.292   .     A
C168   C171    1.460   .     S
C168   O227    1.293   .     A
C169   H219    1.083   .     S
C169   C171    1.399   .     A
C170   C172    1.400   .     A
C171   C173    1.401   .     A
C172   C174    1.394   .     A
C172   H220    1.084   .     S
C173   H221    1.084   .     S
C173   C175    1.394   .     A
C174   O234    1.386   .     S
C174   C176    1.416   .     A
C175   C177    1.416   .     A
C175   O226    1.386   .     S
C176   C411    1.468   1_545 S
C177   C410    1.468   .     S
C178   O234    1.416   .     S
C178   C180    1.536   .     S
C178   H435    1.111   1_545 S
C178   H436    1.110   1_545 S
C179   H222    1.081   .     S
C179   C186    1.407   .     A
C180   H205    1.111   .     S
C180   H203    1.111   .     S
C180   C25     1.527   1_655 S
C181   H206    1.110   .     S
C181   H207    1.110   .     S
C181   H208    1.111   .     S
C182   C183    1.537   .     S
C182   O226    1.416   .     S
C182   H443    1.111   .     S
C182   H444    1.109   .     S
C183   H211    1.111   .     S
C183   H212    1.111   .     S
C183   C28     1.526   1_655 S
C184   H213    1.110   .     S
C184   H216    1.111   .     S
C184   H214    1.110   .     S
C185   H194    1.081   .     S
C185   C187    1.407   .     A
C186   N223    1.364   .     A
C186   H195    1.081   .     S
C187   H196    1.081   .     S
C187   N224    1.364   .     A
C188   H197    1.081   .     S
C188   C190    1.407   .     A
C188   N223    1.364   .     A
C189   H198    1.081   .     S
C189   N224    1.364   .     A
C190   H199    1.081   .     S
Cu191  O230    1.953   .     S
Cu191  Cu192   2.675   .     S
Cu191  O233    1.956   .     S
Cu191  O229    1.955   .     S
Cu191  N224    2.009   .     S
Cu191  O225    1.954   .     S
Cu192  N223    2.009   .     S
Cu192  O232    1.956   .     S
Cu192  O227    1.954   .     S
Cu192  O231    1.953   .     S
Cu192  O228    1.955   .     S
H193   C7      1.087   1_655 S
H201   C412    1.111   .     S
H202   C412    1.110   .     S
H209   C416    1.111   1_545 S
H210   C416    1.109   1_545 S
C235   O306    1.292   .     A
C235   O303    1.292   .     A
C235   C248    1.458   .     S
C236   H278    1.081   .     S
C236   C238    1.411   .     A
C236   C267    1.407   .     A
C237   C257    1.411   .     A
C237   C268    1.411   .     A
C237   C706    1.517   1_554 S
C238   C263    1.411   .     A
C238   C705    1.517   .     S
C239   O308    1.285   .     A
C239   C241    1.432   .     S
C239   O310    1.286   .     A
C240   O309    1.285   .     A
C240   O311    1.286   .     A
C240   C242    1.432   .     S
C241   C398    1.334   1_455 S
C241   H427    1.087   1_455 S
C242   C319    1.334   .     S
C242   H360    1.087   .     S
C243   H293    1.083   .     S
C243   C254    1.403   .     A
C243   C245    1.388   .     A
C244   C255    1.403   .     A
C244   H295    1.083   .     S
C244   C247    1.388   .     A
C245   H296    1.083   .     S
C245   C248    1.399   .     A
C246   O307    1.292   .     A
C246   C249    1.460   .     S
C246   O305    1.293   .     A
C247   H297    1.083   .     S
C247   C249    1.399   .     A
C248   C250    1.400   .     A
C249   C251    1.401   .     A
C250   C252    1.394   .     A
C250   H298    1.084   .     S
C251   H299    1.084   .     S
C251   C253    1.394   .     A
C252   O312    1.386   .     S
C252   C254    1.416   .     A
C253   C255    1.416   .     A
C253   O304    1.386   .     S
C255   C20     1.468   1_565 S
C256   O312    1.416   .     S
C256   C258    1.536   .     S
C257   H300    1.081   .     S
C257   C264    1.407   .     A
C258   H283    1.111   .     S
C258   H281    1.111   .     S
C258   C337    1.527   .     S
C259   H284    1.110   .     S
C259   H285    1.110   .     S
C259   H286    1.111   .     S
C259   C414    1.527   1_455 S
C260   C261    1.537   .     S
C260   O304    1.416   .     S
C260   H53     1.111   1_565 S
C260   H54     1.109   1_565 S
C261   H289    1.111   .     S
C261   H290    1.111   .     S
C261   C340    1.526   .     S
C262   H291    1.110   .     S
C262   H294    1.111   .     S
C262   H292    1.110   .     S
C262   C417    1.526   1_455 S
C263   H272    1.081   .     S
C263   C265    1.407   .     A
C264   N301    1.364   .     A
C264   H273    1.081   .     S
C265   H274    1.081   .     S
C265   N302    1.364   .     A
C266   H275    1.081   .     S
C266   C268    1.407   .     A
C266   N301    1.364   .     A
C267   H276    1.081   .     S
C267   N302    1.364   .     A
C268   H277    1.081   .     S
Cu269  O308    1.953   .     S
Cu269  Cu270   2.675   .     S
Cu269  O311    1.956   .     S
Cu269  O307    1.955   .     S
Cu269  N302    2.009   .     S
Cu269  O303    1.954   .     S
Cu270  N301    2.009   .     S
Cu270  O310    1.956   .     S
Cu270  O305    1.954   .     S
Cu270  O309    1.953   .     S
Cu270  O306    1.955   .     S
H271   C319    1.087   .     S
H279   C22     1.111   1_565 S
H280   C22     1.110   1_565 S
H282   C398    1.087   1_455 S
C313   O384    1.292   .     A
C313   O381    1.292   .     A
C313   C326    1.458   .     S
C314   H356    1.081   .     S
C314   C316    1.411   .     A
C314   C345    1.407   .     A
C315   C335    1.411   .     A
C315   C346    1.411   .     A
C315   C784    1.517   1_554 S
C316   C341    1.411   .     A
C316   C783    1.517   .     S
C317   O386    1.285   .     A
C317   C319    1.432   .     S
C317   O388    1.286   .     A
C318   O387    1.285   .     A
C318   O389    1.286   .     A
C318   C320    1.432   .     S
C320   C397    1.334   .     S
C320   H438    1.087   .     S
C321   H371    1.083   .     S
C321   C332    1.403   .     A
C321   C323    1.388   .     A
C322   C333    1.403   .     A
C322   H373    1.083   .     S
C322   C325    1.388   .     A
C323   H374    1.083   .     S
C323   C326    1.399   .     A
C324   O385    1.292   .     A
C324   C327    1.460   .     S
C324   O383    1.293   .     A
C325   H375    1.083   .     S
C325   C327    1.399   .     A
C326   C328    1.400   .     A
C327   C329    1.401   .     A
C328   C330    1.394   .     A
C328   H376    1.084   .     S
C329   H377    1.084   .     S
C329   C331    1.394   .     A
C330   O390    1.386   .     S
C330   C332    1.416   .     A
C331   C333    1.416   .     A
C331   O382    1.386   .     S
C333   C98     1.468   1_565 S
C334   O390    1.416   .     S
C334   C336    1.536   .     S
C335   H378    1.081   .     S
C335   C342    1.407   .     A
C336   H361    1.111   .     S
C336   H359    1.111   .     S
C336   C415    1.527   .     S
C337   H362    1.110   .     S
C337   H363    1.110   .     S
C337   H364    1.111   .     S
C338   C339    1.537   .     S
C338   O382    1.416   .     S
C338   H131    1.111   1_565 S
C338   H132    1.109   1_565 S
C339   H367    1.111   .     S
C339   H368    1.111   .     S
C339   C418    1.526   .     S
C340   H369    1.110   .     S
C340   H372    1.111   .     S
C340   H370    1.110   .     S
C341   H350    1.081   .     S
C341   C343    1.407   .     A
C342   N379    1.364   .     A
C342   H351    1.081   .     S
C343   H352    1.081   .     S
C343   N380    1.364   .     A
C344   H353    1.081   .     S
C344   C346    1.407   .     A
C344   N379    1.364   .     A
C345   H354    1.081   .     S
C345   N380    1.364   .     A
C346   H355    1.081   .     S
Cu347  O386    1.953   .     S
Cu347  Cu348   2.675   .     S
Cu347  O389    1.956   .     S
Cu347  O385    1.955   .     S
Cu347  N380    2.009   .     S
Cu347  O381    1.954   .     S
Cu348  N379    2.009   .     S
Cu348  O388    1.956   .     S
Cu348  O383    1.954   .     S
Cu348  O387    1.953   .     S
Cu348  O384    1.955   .     S
H349   C397    1.087   .     S
H357   C100    1.111   1_565 S
H358   C100    1.110   1_565 S
C391   O462    1.292   .     A
C391   O459    1.292   .     A
C391   C404    1.458   .     S
C392   H434    1.081   .     S
C392   C394    1.411   .     A
C392   C423    1.407   .     A
C393   C413    1.411   .     A
C393   C424    1.411   .     A
C393   C862    1.517   1_554 S
C394   C419    1.411   .     A
C394   C861    1.517   .     S
C395   O464    1.285   .     A
C395   C397    1.432   .     S
C395   O466    1.286   .     A
C396   O465    1.285   .     A
C396   O467    1.286   .     A
C396   C398    1.432   .     S
C398   C241    1.334   1_655 S
C398   H282    1.087   1_655 S
C399   H449    1.083   .     S
C399   C410    1.403   .     A
C399   C401    1.388   .     A
C400   C411    1.403   .     A
C400   H451    1.083   .     S
C400   C403    1.388   .     A
C401   H452    1.083   .     S
C401   C404    1.399   .     A
C402   O463    1.292   .     A
C402   C405    1.460   .     S
C402   O461    1.293   .     A
C403   H453    1.083   .     S
C403   C405    1.399   .     A
C404   C406    1.400   .     A
C405   C407    1.401   .     A
C406   C408    1.394   .     A
C406   H454    1.084   .     S
C407   H455    1.084   .     S
C407   C409    1.394   .     A
C408   O468    1.386   .     S
C408   C410    1.416   .     A
C409   C411    1.416   .     A
C409   O460    1.386   .     S
C411   C176    1.468   1_565 S
C412   O468    1.416   .     S
C412   C414    1.536   .     S
C413   H456    1.081   .     S
C413   C420    1.407   .     A
C414   H439    1.111   .     S
C414   H437    1.111   .     S
C414   C259    1.527   1_655 S
C415   H440    1.110   .     S
C415   H441    1.110   .     S
C415   H442    1.111   .     S
C416   C417    1.537   .     S
C416   O460    1.416   .     S
C416   H209    1.111   1_565 S
C416   H210    1.109   1_565 S
C417   H445    1.111   .     S
C417   H446    1.111   .     S
C417   C262    1.526   1_655 S
C418   H447    1.110   .     S
C418   H450    1.111   .     S
C418   H448    1.110   .     S
C419   H428    1.081   .     S
C419   C421    1.407   .     A
C420   N457    1.364   .     A
C420   H429    1.081   .     S
C421   H430    1.081   .     S
C421   N458    1.364   .     A
C422   H431    1.081   .     S
C422   C424    1.407   .     A
C422   N457    1.364   .     A
C423   H432    1.081   .     S
C423   N458    1.364   .     A
C424   H433    1.081   .     S
Cu425  O464    1.953   .     S
Cu425  Cu426   2.675   .     S
Cu425  O467    1.956   .     S
Cu425  O463    1.955   .     S
Cu425  N458    2.009   .     S
Cu425  O459    1.954   .     S
Cu426  N457    2.009   .     S
Cu426  O466    1.956   .     S
Cu426  O461    1.954   .     S
Cu426  O465    1.953   .     S
Cu426  O462    1.955   .     S
H427   C241    1.087   1_655 S
H435   C178    1.111   1_565 S
H436   C178    1.110   1_565 S
C469   O540    1.292   .     A
C469   O537    1.292   .     A
C469   C482    1.458   .     S
C470   H512    1.081   .     S
C470   C472    1.411   .     A
C470   C501    1.407   .     A
C471   C491    1.411   .     A
C471   C502    1.411   .     A
C472   C497    1.411   .     A
C472   C3      1.517   1_556 S
C473   O542    1.285   .     A
C473   C475    1.432   .     S
C473   O544    1.286   .     A
C474   O543    1.285   .     A
C474   O545    1.286   .     A
C474   C476    1.432   .     S
C475   C632    1.334   1_455 S
C475   H661    1.087   1_455 S
C476   C553    1.334   .     S
C476   H594    1.087   .     S
C477   H527    1.083   .     S
C477   C488    1.403   .     A
C477   C479    1.388   .     A
C478   C489    1.403   .     A
C478   H529    1.083   .     S
C478   C481    1.388   .     A
C479   H530    1.083   .     S
C479   C482    1.399   .     A
C480   O541    1.292   .     A
C480   C483    1.460   .     S
C480   O539    1.293   .     A
C481   H531    1.083   .     S
C481   C483    1.399   .     A
C482   C484    1.400   .     A
C483   C485    1.401   .     A
C484   C486    1.394   .     A
C484   H532    1.084   .     S
C485   H533    1.084   .     S
C485   C487    1.394   .     A
C486   O546    1.386   .     S
C486   C488    1.416   .     A
C487   C489    1.416   .     A
C487   O538    1.386   .     S
C488   C723    1.468   1_545 S
C489   C722    1.468   .     S
C490   O546    1.416   .     S
C490   C492    1.536   .     S
C490   H747    1.111   1_545 S
C490   H748    1.110   1_545 S
C491   H534    1.081   .     S
C491   C498    1.407   .     A
C492   H517    1.111   .     S
C492   H515    1.111   .     S
C492   C571    1.527   .     S
C493   H518    1.110   .     S
C493   H519    1.110   .     S
C493   H520    1.111   .     S
C493   C648    1.527   1_455 S
C494   C495    1.537   .     S
C494   O538    1.416   .     S
C494   H755    1.111   .     S
C494   H756    1.109   .     S
C495   H523    1.111   .     S
C495   H524    1.111   .     S
C495   C574    1.526   .     S
C496   H525    1.110   .     S
C496   H528    1.111   .     S
C496   H526    1.110   .     S
C496   C651    1.526   1_455 S
C497   H506    1.081   .     S
C497   C499    1.407   .     A
C498   N535    1.364   .     A
C498   H507    1.081   .     S
C499   H508    1.081   .     S
C499   N536    1.364   .     A
C500   H509    1.081   .     S
C500   C502    1.407   .     A
C500   N535    1.364   .     A
C501   H510    1.081   .     S
C501   N536    1.364   .     A
C502   H511    1.081   .     S
Cu503  O542    1.953   .     S
Cu503  Cu504   2.675   .     S
Cu503  O545    1.956   .     S
Cu503  O541    1.955   .     S
Cu503  N536    2.009   .     S
Cu503  O537    1.954   .     S
Cu504  N535    2.009   .     S
Cu504  O544    1.956   .     S
Cu504  O539    1.954   .     S
Cu504  O543    1.953   .     S
Cu504  O540    1.955   .     S
H505   C553    1.087   .     S
H513   C724    1.111   .     S
H514   C724    1.110   .     S
H516   C632    1.087   1_455 S
H521   C728    1.111   1_545 S
H522   C728    1.109   1_545 S
C547   O618    1.292   .     A
C547   O615    1.292   .     A
C547   C560    1.458   .     S
C548   H590    1.081   .     S
C548   C550    1.411   .     A
C548   C579    1.407   .     A
C549   C569    1.411   .     A
C549   C580    1.411   .     A
C550   C575    1.411   .     A
C550   C81     1.517   1_556 S
C551   O620    1.285   .     A
C551   C553    1.432   .     S
C551   O622    1.286   .     A
C552   O621    1.285   .     A
C552   O623    1.286   .     A
C552   C554    1.432   .     S
C554   C631    1.334   .     S
C554   H672    1.087   .     S
C555   H605    1.083   .     S
C555   C566    1.403   .     A
C555   C557    1.388   .     A
C556   C567    1.403   .     A
C556   H607    1.083   .     S
C556   C559    1.388   .     A
C557   H608    1.083   .     S
C557   C560    1.399   .     A
C558   O619    1.292   .     A
C558   C561    1.460   .     S
C558   O617    1.293   .     A
C559   H609    1.083   .     S
C559   C561    1.399   .     A
C560   C562    1.400   .     A
C561   C563    1.401   .     A
C562   C564    1.394   .     A
C562   H610    1.084   .     S
C563   H611    1.084   .     S
C563   C565    1.394   .     A
C564   O624    1.386   .     S
C564   C566    1.416   .     A
C565   C567    1.416   .     A
C565   O616    1.386   .     S
C566   C801    1.468   1_545 S
C567   C800    1.468   .     S
C568   O624    1.416   .     S
C568   C570    1.536   .     S
C568   H825    1.111   1_545 S
C568   H826    1.110   1_545 S
C569   H612    1.081   .     S
C569   C576    1.407   .     A
C570   H595    1.111   .     S
C570   H593    1.111   .     S
C570   C649    1.527   .     S
C571   H596    1.110   .     S
C571   H597    1.110   .     S
C571   H598    1.111   .     S
C572   C573    1.537   .     S
C572   O616    1.416   .     S
C572   H833    1.111   .     S
C572   H834    1.109   .     S
C573   H601    1.111   .     S
C573   H602    1.111   .     S
C573   C652    1.526   .     S
C574   H603    1.110   .     S
C574   H606    1.111   .     S
C574   H604    1.110   .     S
C575   H584    1.081   .     S
C575   C577    1.407   .     A
C576   N613    1.364   .     A
C576   H585    1.081   .     S
C577   H586    1.081   .     S
C577   N614    1.364   .     A
C578   H587    1.081   .     S
C578   C580    1.407   .     A
C578   N613    1.364   .     A
C579   H588    1.081   .     S
C579   N614    1.364   .     A
C580   H589    1.081   .     S
Cu581  O620    1.953   .     S
Cu581  Cu582   2.675   .     S
Cu581  O623    1.956   .     S
Cu581  O619    1.955   .     S
Cu581  N614    2.009   .     S
Cu581  O615    1.954   .     S
Cu582  N613    2.009   .     S
Cu582  O622    1.956   .     S
Cu582  O617    1.954   .     S
Cu582  O621    1.953   .     S
Cu582  O618    1.955   .     S
H583   C631    1.087   .     S
H591   C802    1.111   .     S
H592   C802    1.110   .     S
H599   C806    1.111   1_545 S
H600   C806    1.109   1_545 S
C625   O696    1.292   .     A
C625   O693    1.292   .     A
C625   C638    1.458   .     S
C626   H668    1.081   .     S
C626   C628    1.411   .     A
C626   C657    1.407   .     A
C627   C647    1.411   .     A
C627   C658    1.411   .     A
C628   C653    1.411   .     A
C628   C159    1.517   1_556 S
C629   O698    1.285   .     A
C629   C631    1.432   .     S
C629   O700    1.286   .     A
C630   O699    1.285   .     A
C630   O701    1.286   .     A
C630   C632    1.432   .     S
C632   C475    1.334   1_655 S
C632   H516    1.087   1_655 S
C633   H683    1.083   .     S
C633   C644    1.403   .     A
C633   C635    1.388   .     A
C634   C645    1.403   .     A
C634   H685    1.083   .     S
C634   C637    1.388   .     A
C635   H686    1.083   .     S
C635   C638    1.399   .     A
C636   O697    1.292   .     A
C636   C639    1.460   .     S
C636   O695    1.293   .     A
C637   H687    1.083   .     S
C637   C639    1.399   .     A
C638   C640    1.400   .     A
C639   C641    1.401   .     A
C640   C642    1.394   .     A
C640   H688    1.084   .     S
C641   H689    1.084   .     S
C641   C643    1.394   .     A
C642   O702    1.386   .     S
C642   C644    1.416   .     A
C643   C645    1.416   .     A
C643   O694    1.386   .     S
C644   C879    1.468   1_545 S
C645   C878    1.468   .     S
C646   O702    1.416   .     S
C646   C648    1.536   .     S
C646   H903    1.111   1_545 S
C646   H904    1.110   1_545 S
C647   H690    1.081   .     S
C647   C654    1.407   .     A
C648   H673    1.111   .     S
C648   H671    1.111   .     S
C648   C493    1.527   1_655 S
C649   H674    1.110   .     S
C649   H675    1.110   .     S
C649   H676    1.111   .     S
C650   C651    1.537   .     S
C650   O694    1.416   .     S
C650   H911    1.111   .     S
C650   H912    1.109   .     S
C651   H679    1.111   .     S
C651   H680    1.111   .     S
C651   C496    1.526   1_655 S
C652   H681    1.110   .     S
C652   H684    1.111   .     S
C652   H682    1.110   .     S
C653   H662    1.081   .     S
C653   C655    1.407   .     A
C654   N691    1.364   .     A
C654   H663    1.081   .     S
C655   H664    1.081   .     S
C655   N692    1.364   .     A
C656   H665    1.081   .     S
C656   C658    1.407   .     A
C656   N691    1.364   .     A
C657   H666    1.081   .     S
C657   N692    1.364   .     A
C658   H667    1.081   .     S
Cu659  O698    1.953   .     S
Cu659  Cu660   2.675   .     S
Cu659  O701    1.956   .     S
Cu659  O697    1.955   .     S
Cu659  N692    2.009   .     S
Cu659  O693    1.954   .     S
Cu660  N691    2.009   .     S
Cu660  O700    1.956   .     S
Cu660  O695    1.954   .     S
Cu660  O699    1.953   .     S
Cu660  O696    1.955   .     S
H661   C475    1.087   1_655 S
H669   C880    1.111   .     S
H670   C880    1.110   .     S
H677   C884    1.111   1_545 S
H678   C884    1.109   1_545 S
C703   O774    1.292   .     A
C703   O771    1.292   .     A
C703   C716    1.458   .     S
C704   H746    1.081   .     S
C704   C706    1.411   .     A
C704   C735    1.407   .     A
C705   C725    1.411   .     A
C705   C736    1.411   .     A
C706   C731    1.411   .     A
C706   C237    1.517   1_556 S
C707   O776    1.285   .     A
C707   C709    1.432   .     S
C707   O778    1.286   .     A
C708   O777    1.285   .     A
C708   O779    1.286   .     A
C708   C710    1.432   .     S
C709   C866    1.334   1_455 S
C709   H895    1.087   1_455 S
C710   C787    1.334   .     S
C710   H828    1.087   .     S
C711   H761    1.083   .     S
C711   C722    1.403   .     A
C711   C713    1.388   .     A
C712   C723    1.403   .     A
C712   H763    1.083   .     S
C712   C715    1.388   .     A
C713   H764    1.083   .     S
C713   C716    1.399   .     A
C714   O775    1.292   .     A
C714   C717    1.460   .     S
C714   O773    1.293   .     A
C715   H765    1.083   .     S
C715   C717    1.399   .     A
C716   C718    1.400   .     A
C717   C719    1.401   .     A
C718   C720    1.394   .     A
C718   H766    1.084   .     S
C719   H767    1.084   .     S
C719   C721    1.394   .     A
C720   O780    1.386   .     S
C720   C722    1.416   .     A
C721   C723    1.416   .     A
C721   O772    1.386   .     S
C723   C488    1.468   1_565 S
C724   O780    1.416   .     S
C724   C726    1.536   .     S
C725   H768    1.081   .     S
C725   C732    1.407   .     A
C726   H751    1.111   .     S
C726   H749    1.111   .     S
C726   C805    1.527   .     S
C727   H752    1.110   .     S
C727   H753    1.110   .     S
C727   H754    1.111   .     S
C727   C882    1.527   1_455 S
C728   C729    1.537   .     S
C728   O772    1.416   .     S
C728   H521    1.111   1_565 S
C728   H522    1.109   1_565 S
C729   H757    1.111   .     S
C729   H758    1.111   .     S
C729   C808    1.526   .     S
C730   H759    1.110   .     S
C730   H762    1.111   .     S
C730   H760    1.110   .     S
C730   C885    1.526   1_455 S
C731   H740    1.081   .     S
C731   C733    1.407   .     A
C732   N769    1.364   .     A
C732   H741    1.081   .     S
C733   H742    1.081   .     S
C733   N770    1.364   .     A
C734   H743    1.081   .     S
C734   C736    1.407   .     A
C734   N769    1.364   .     A
C735   H744    1.081   .     S
C735   N770    1.364   .     A
C736   H745    1.081   .     S
Cu737  O776    1.953   .     S
Cu737  Cu738   2.675   .     S
Cu737  O779    1.956   .     S
Cu737  O775    1.955   .     S
Cu737  N770    2.009   .     S
Cu737  O771    1.954   .     S
Cu738  N769    2.009   .     S
Cu738  O778    1.956   .     S
Cu738  O773    1.954   .     S
Cu738  O777    1.953   .     S
Cu738  O774    1.955   .     S
H739   C787    1.087   .     S
H747   C490    1.111   1_565 S
H748   C490    1.110   1_565 S
H750   C866    1.087   1_455 S
C781   O852    1.292   .     A
C781   O849    1.292   .     A
C781   C794    1.458   .     S
C782   H824    1.081   .     S
C782   C784    1.411   .     A
C782   C813    1.407   .     A
C783   C803    1.411   .     A
C783   C814    1.411   .     A
C784   C809    1.411   .     A
C784   C315    1.517   1_556 S
C785   O854    1.285   .     A
C785   C787    1.432   .     S
C785   O856    1.286   .     A
C786   O855    1.285   .     A
C786   O857    1.286   .     A
C786   C788    1.432   .     S
C788   C865    1.334   .     S
C788   H906    1.087   .     S
C789   H839    1.083   .     S
C789   C800    1.403   .     A
C789   C791    1.388   .     A
C790   C801    1.403   .     A
C790   H841    1.083   .     S
C790   C793    1.388   .     A
C791   H842    1.083   .     S
C791   C794    1.399   .     A
C792   O853    1.292   .     A
C792   C795    1.460   .     S
C792   O851    1.293   .     A
C793   H843    1.083   .     S
C793   C795    1.399   .     A
C794   C796    1.400   .     A
C795   C797    1.401   .     A
C796   C798    1.394   .     A
C796   H844    1.084   .     S
C797   H845    1.084   .     S
C797   C799    1.394   .     A
C798   O858    1.386   .     S
C798   C800    1.416   .     A
C799   C801    1.416   .     A
C799   O850    1.386   .     S
C801   C566    1.468   1_565 S
C802   O858    1.416   .     S
C802   C804    1.536   .     S
C803   H846    1.081   .     S
C803   C810    1.407   .     A
C804   H829    1.111   .     S
C804   H827    1.111   .     S
C804   C883    1.527   .     S
C805   H830    1.110   .     S
C805   H831    1.110   .     S
C805   H832    1.111   .     S
C806   C807    1.537   .     S
C806   O850    1.416   .     S
C806   H599    1.111   1_565 S
C806   H600    1.109   1_565 S
C807   H835    1.111   .     S
C807   H836    1.111   .     S
C807   C886    1.526   .     S
C808   H837    1.110   .     S
C808   H840    1.111   .     S
C808   H838    1.110   .     S
C809   H818    1.081   .     S
C809   C811    1.407   .     A
C810   N847    1.364   .     A
C810   H819    1.081   .     S
C811   H820    1.081   .     S
C811   N848    1.364   .     A
C812   H821    1.081   .     S
C812   C814    1.407   .     A
C812   N847    1.364   .     A
C813   H822    1.081   .     S
C813   N848    1.364   .     A
C814   H823    1.081   .     S
Cu815  O854    1.953   .     S
Cu815  Cu816   2.675   .     S
Cu815  O857    1.956   .     S
Cu815  O853    1.955   .     S
Cu815  N848    2.009   .     S
Cu815  O849    1.954   .     S
Cu816  N847    2.009   .     S
Cu816  O856    1.956   .     S
Cu816  O851    1.954   .     S
Cu816  O855    1.953   .     S
Cu816  O852    1.955   .     S
H817   C865    1.087   .     S
H825   C568    1.111   1_565 S
H826   C568    1.110   1_565 S
C859   O930    1.292   .     A
C859   O927    1.292   .     A
C859   C872    1.458   .     S
C860   H902    1.081   .     S
C860   C862    1.411   .     A
C860   C891    1.407   .     A
C861   C881    1.411   .     A
C861   C892    1.411   .     A
C862   C887    1.411   .     A
C862   C393    1.517   1_556 S
C863   O932    1.285   .     A
C863   C865    1.432   .     S
C863   O934    1.286   .     A
C864   O933    1.285   .     A
C864   O935    1.286   .     A
C864   C866    1.432   .     S
C866   C709    1.334   1_655 S
C866   H750    1.087   1_655 S
C867   H917    1.083   .     S
C867   C878    1.403   .     A
C867   C869    1.388   .     A
C868   C879    1.403   .     A
C868   H919    1.083   .     S
C868   C871    1.388   .     A
C869   H920    1.083   .     S
C869   C872    1.399   .     A
C870   O931    1.292   .     A
C870   C873    1.460   .     S
C870   O929    1.293   .     A
C871   H921    1.083   .     S
C871   C873    1.399   .     A
C872   C874    1.400   .     A
C873   C875    1.401   .     A
C874   C876    1.394   .     A
C874   H922    1.084   .     S
C875   H923    1.084   .     S
C875   C877    1.394   .     A
C876   O936    1.386   .     S
C876   C878    1.416   .     A
C877   C879    1.416   .     A
C877   O928    1.386   .     S
C879   C644    1.468   1_565 S
C880   O936    1.416   .     S
C880   C882    1.536   .     S
C881   H924    1.081   .     S
C881   C888    1.407   .     A
C882   H907    1.111   .     S
C882   H905    1.111   .     S
C882   C727    1.527   1_655 S
C883   H908    1.110   .     S
C883   H909    1.110   .     S
C883   H910    1.111   .     S
C884   C885    1.537   .     S
C884   O928    1.416   .     S
C884   H677    1.111   1_565 S
C884   H678    1.109   1_565 S
C885   H913    1.111   .     S
C885   H914    1.111   .     S
C885   C730    1.526   1_655 S
C886   H915    1.110   .     S
C886   H918    1.111   .     S
C886   H916    1.110   .     S
C887   H896    1.081   .     S
C887   C889    1.407   .     A
C888   N925    1.364   .     A
C888   H897    1.081   .     S
C889   H898    1.081   .     S
C889   N926    1.364   .     A
C890   H899    1.081   .     S
C890   C892    1.407   .     A
C890   N925    1.364   .     A
C891   H900    1.081   .     S
C891   N926    1.364   .     A
C892   H901    1.081   .     S
Cu893  O932    1.953   .     S
Cu893  Cu894   2.675   .     S
Cu893  O935    1.956   .     S
Cu893  O931    1.955   .     S
Cu893  N926    2.009   .     S
Cu893  O927    1.954   .     S
Cu894  N925    2.009   .     S
Cu894  O934    1.956   .     S
Cu894  O929    1.954   .     S
Cu894  O933    1.953   .     S
Cu894  O930    1.955   .     S
H895   C709    1.087   1_655 S
H903   C646    1.111   1_565 S
H904   C646    1.110   1_565 S
