data_str_m2_o1_o17_pcu_sym.18
_audit_creation_date              2020-01-03
_audit_creation_method            'Materials Studio'
_symmetry_space_group_name_H-M    'P1'
_symmetry_Int_Tables_number       1
_symmetry_cell_setting            triclinic
loop_
_symmetry_equiv_pos_as_xyz
  x,y,z
_cell_length_a                    32.4807
_cell_length_b                    29.2346
_cell_length_c                    30.1216
_cell_angle_alpha                 89.6472
_cell_angle_beta                  92.2531
_cell_angle_gamma                 89.4165
loop_
_atom_site_label
_atom_site_type_symbol
_atom_site_fract_x
_atom_site_fract_y
_atom_site_fract_z
_atom_site_U_iso_or_equiv
_atom_site_adp_type
_atom_site_occupancy
C1     C     0.08777   0.16682   0.25378   0.00000  Uiso   1.00
C2     C     0.04288   0.16687   0.25784   0.00000  Uiso   1.00
C3     C     0.14146   0.02499   0.22091   0.00000  Uiso   1.00
C4     C     0.19193   0.30834   0.27890   0.00000  Uiso   1.00
C5     C     0.19106   0.02396   0.27981   0.00000  Uiso   1.00
C6     C     0.14141   0.30926   0.22101   0.00000  Uiso   1.00
C7     C     0.16585   0.16690   0.16448   0.00000  Uiso   1.00
C8     C     0.16860   0.16667   0.33546   0.00000  Uiso   1.00
C9     C     0.20952   0.16698   0.40795   0.00000  Uiso   1.00
C10    C     0.13112   0.17955   0.09015   0.00000  Uiso   1.00
C11    C     0.17096   0.16783   0.38422   0.00000  Uiso   1.00
C12    C     0.24566   0.16624   0.24656   0.00000  Uiso   1.00
C13    C     0.16703   0.16840   0.11578   0.00000  Uiso   1.00
C14    C     0.13460   0.17709   0.40608   0.00000  Uiso   1.00
C15    C     0.20512   0.16356   0.09570   0.00000  Uiso   1.00
C16    C     0.13639   0.18876   0.45123   0.00000  Uiso   1.00
C17    C     0.20807   0.17195   0.04966   0.00000  Uiso   1.00
C18    C     0.17313   0.18021   0.47667   0.00000  Uiso   1.00
C19    C     0.17183   0.18079   0.02355   0.00000  Uiso   1.00
C20    C     0.21057   0.17003   0.45539   0.00000  Uiso   1.00
C21    C     0.13393   0.18908   0.04418   0.00000  Uiso   1.00
C22    C     0.10261   0.20976   0.47159   0.00000  Uiso   1.00
C23    C     0.10068   0.20839   0.01828   0.00000  Uiso   1.00
C24    C     0.24626   0.17157   0.02884   0.00000  Uiso   1.00
C25    C     0.08934   0.27717   0.42509   0.00000  Uiso   1.00
C26    C     0.28940   0.22866   0.06432   0.00000  Uiso   1.00
C27    C     0.07313   0.27776   0.05018   0.00000  Uiso   1.00
C28    C     0.29732   0.10676   0.46728   0.00000  Uiso   1.00
C29    C     0.24746   0.16584   0.48247   0.00000  Uiso   1.00
C30    C     0.02192   0.12509   0.26115   0.00000  Uiso   1.00
C31    C     0.31200   0.20638   0.23999   0.00000  Uiso   1.00
C32    C     0.31327   0.12358   0.24999   0.00000  Uiso   1.00
C33    C     0.02019   0.20789   0.25253   0.00000  Uiso   1.00
C34    C     0.29072   0.16499   0.24344   0.00000  Uiso   1.00
Cu35   Cu    0.16667   0.21355   0.25000   0.00000  Uiso   1.00
Cu36   Cu    0.16667   0.11978   0.25000   0.00000  Uiso   1.00
H37    H     0.04457   0.24123   0.45803   0.00000  Uiso   1.00
H38    H     0.04918   0.28881   0.07324   0.00000  Uiso   1.00
H39    H     0.07013   0.29924   0.01975   0.00000  Uiso   1.00
H40    H     0.10390   0.28297   0.06670   0.00000  Uiso   1.00
H41    H     0.30958   0.17668   0.47203   0.00000  Uiso   1.00
H42    H     0.32629   0.10085   0.44969   0.00000  Uiso   1.00
H43    H     0.27283   0.08538   0.45142   0.00000  Uiso   1.00
H44    H     0.30228   0.09616   0.00257   0.00000  Uiso   1.00
H45    H     0.06433   0.29486   0.40526   0.00000  Uiso   1.00
H46    H     0.11424   0.26836   0.40234   0.00000  Uiso   1.00
H47    H     0.10163   0.30089   0.45088   0.00000  Uiso   1.00
H48    H     0.30977   0.16435   0.04475   0.00000  Uiso   1.00
H49    H     0.31698   0.23224   0.08695   0.00000  Uiso   1.00
H50    H     0.26239   0.24280   0.08137   0.00000  Uiso   1.00
H51    H     0.29411   0.24850   0.03338   0.00000  Uiso   1.00
H52    H     0.03831   0.22250   0.02661   0.00000  Uiso   1.00
I53    I     0.26411   0.16494   0.36910   0.00000  Uiso   1.00
I54    I     0.23513   0.27426   0.32303   0.00000  Uiso   1.00
I55    I     0.22762   0.05582   0.33109   0.00000  Uiso   1.00
I56    I     0.10076   0.27624   0.17430   0.00000  Uiso   1.00
I57    I     0.07255   0.16846   0.11946   0.00000  Uiso   1.00
I58    I     0.07651   0.16564   0.37199   0.00000  Uiso   1.00
I59    I     0.25449   0.13147   0.13388   0.00000  Uiso   1.00
I60    I     0.04956   0.06640   0.29447   0.00000  Uiso   1.00
I61    I     0.28672   0.26307   0.20239   0.00000  Uiso   1.00
I62    I     0.28998   0.05791   0.23078   0.00000  Uiso   1.00
I63    I     0.04176   0.27063   0.28026   0.00000  Uiso   1.00
I64    I     0.09944   0.05927   0.17525   0.00000  Uiso   1.00
N65    N     0.16667   0.28402   0.25000   0.00000  Uiso   1.00
N66    N     0.16667   0.04931   0.25000   0.00000  Uiso   1.00
N67    N     0.07328   0.23637   0.44550   0.00000  Uiso   1.00
N68    N     0.28335   0.18087   0.05402   0.00000  Uiso   1.00
N69    N     0.06730   0.23009   0.03935   0.00000  Uiso   1.00
N70    N     0.28584   0.15469   0.46402   0.00000  Uiso   1.00
O71    O     0.10655   0.20625   0.25000   0.00000  Uiso   1.00
O72    O     0.22679   0.12709   0.25001   0.00000  Uiso   1.00
O73    O     0.22679   0.20625   0.25001   0.00000  Uiso   1.00
O74    O     0.10655   0.12709   0.25000   0.00000  Uiso   1.00
O75    O     0.16666   0.20627   0.18513   0.00000  Uiso   1.00
O76    O     0.16668   0.12707   0.31487   0.00000  Uiso   1.00
O77    O     0.16668   0.20627   0.31487   0.00000  Uiso   1.00
O78    O     0.16666   0.12707   0.18513   0.00000  Uiso   1.00
C79    C     0.42110   0.16682   0.25378   0.00000  Uiso   1.00
C80    C     0.37622   0.16687   0.25784   0.00000  Uiso   1.00
C81    C     0.47479   0.02499   0.22091   0.00000  Uiso   1.00
C82    C     0.52526   0.30834   0.27890   0.00000  Uiso   1.00
C83    C     0.52439   0.02396   0.27981   0.00000  Uiso   1.00
C84    C     0.47474   0.30926   0.22101   0.00000  Uiso   1.00
C85    C     0.49918   0.16690   0.16448   0.00000  Uiso   1.00
C86    C     0.50193   0.16667   0.33546   0.00000  Uiso   1.00
C87    C     0.54285   0.16698   0.40795   0.00000  Uiso   1.00
C88    C     0.46445   0.17955   0.09015   0.00000  Uiso   1.00
C89    C     0.50430   0.16783   0.38422   0.00000  Uiso   1.00
C90    C     0.57900   0.16624   0.24656   0.00000  Uiso   1.00
C91    C     0.50036   0.16840   0.11578   0.00000  Uiso   1.00
C92    C     0.46793   0.17709   0.40608   0.00000  Uiso   1.00
C93    C     0.53845   0.16356   0.09570   0.00000  Uiso   1.00
C94    C     0.46973   0.18876   0.45123   0.00000  Uiso   1.00
C95    C     0.54140   0.17195   0.04966   0.00000  Uiso   1.00
C96    C     0.50646   0.18021   0.47667   0.00000  Uiso   1.00
C97    C     0.50517   0.18079   0.02355   0.00000  Uiso   1.00
C98    C     0.54390   0.17003   0.45539   0.00000  Uiso   1.00
C99    C     0.46726   0.18908   0.04418   0.00000  Uiso   1.00
C100   C     0.43594   0.20976   0.47159   0.00000  Uiso   1.00
C101   C     0.43401   0.20839   0.01828   0.00000  Uiso   1.00
C102   C     0.57960   0.17157   0.02884   0.00000  Uiso   1.00
C103   C     0.42267   0.27717   0.42509   0.00000  Uiso   1.00
C104   C     0.62273   0.22866   0.06432   0.00000  Uiso   1.00
C105   C     0.40646   0.27776   0.05018   0.00000  Uiso   1.00
C106   C     0.63065   0.10676   0.46728   0.00000  Uiso   1.00
C107   C     0.58079   0.16584   0.48247   0.00000  Uiso   1.00
C108   C     0.35525   0.12509   0.26115   0.00000  Uiso   1.00
C109   C     0.64533   0.20638   0.23999   0.00000  Uiso   1.00
C110   C     0.64660   0.12358   0.24999   0.00000  Uiso   1.00
C111   C     0.35352   0.20789   0.25253   0.00000  Uiso   1.00
C112   C     0.62405   0.16499   0.24344   0.00000  Uiso   1.00
Cu113  Cu    0.50000   0.21355   0.25000   0.00000  Uiso   1.00
Cu114  Cu    0.50000   0.11978   0.25000   0.00000  Uiso   1.00
H115   H     0.37790   0.24123   0.45803   0.00000  Uiso   1.00
H116   H     0.38252   0.28881   0.07324   0.00000  Uiso   1.00
H117   H     0.40346   0.29924   0.01975   0.00000  Uiso   1.00
H118   H     0.43724   0.28297   0.06670   0.00000  Uiso   1.00
H119   H     0.64291   0.17668   0.47203   0.00000  Uiso   1.00
H120   H     0.65962   0.10085   0.44969   0.00000  Uiso   1.00
H121   H     0.60616   0.08538   0.45142   0.00000  Uiso   1.00
H122   H     0.63562   0.09616   0.00257   0.00000  Uiso   1.00
H123   H     0.39766   0.29486   0.40526   0.00000  Uiso   1.00
H124   H     0.44757   0.26836   0.40234   0.00000  Uiso   1.00
H125   H     0.43497   0.30089   0.45088   0.00000  Uiso   1.00
H126   H     0.64310   0.16435   0.04475   0.00000  Uiso   1.00
H127   H     0.65031   0.23224   0.08695   0.00000  Uiso   1.00
H128   H     0.59573   0.24280   0.08137   0.00000  Uiso   1.00
H129   H     0.62744   0.24850   0.03338   0.00000  Uiso   1.00
H130   H     0.37164   0.22250   0.02661   0.00000  Uiso   1.00
I131   I     0.59745   0.16494   0.36910   0.00000  Uiso   1.00
I132   I     0.56847   0.27426   0.32303   0.00000  Uiso   1.00
I133   I     0.56095   0.05582   0.33109   0.00000  Uiso   1.00
I134   I     0.43410   0.27624   0.17430   0.00000  Uiso   1.00
I135   I     0.40588   0.16846   0.11946   0.00000  Uiso   1.00
I136   I     0.40984   0.16564   0.37199   0.00000  Uiso   1.00
I137   I     0.58783   0.13147   0.13388   0.00000  Uiso   1.00
I138   I     0.38289   0.06640   0.29447   0.00000  Uiso   1.00
I139   I     0.62006   0.26307   0.20239   0.00000  Uiso   1.00
I140   I     0.62331   0.05791   0.23078   0.00000  Uiso   1.00
I141   I     0.37509   0.27063   0.28026   0.00000  Uiso   1.00
I142   I     0.43278   0.05927   0.17525   0.00000  Uiso   1.00
N143   N     0.50000   0.28402   0.25000   0.00000  Uiso   1.00
N144   N     0.50000   0.04931   0.25000   0.00000  Uiso   1.00
N145   N     0.40661   0.23637   0.44550   0.00000  Uiso   1.00
N146   N     0.61668   0.18087   0.05402   0.00000  Uiso   1.00
N147   N     0.40063   0.23009   0.03935   0.00000  Uiso   1.00
N148   N     0.61917   0.15469   0.46402   0.00000  Uiso   1.00
O149   O     0.43988   0.20625   0.25000   0.00000  Uiso   1.00
O150   O     0.56012   0.12709   0.25001   0.00000  Uiso   1.00
O151   O     0.56012   0.20625   0.25001   0.00000  Uiso   1.00
O152   O     0.43988   0.12709   0.25000   0.00000  Uiso   1.00
O153   O     0.49999   0.20627   0.18513   0.00000  Uiso   1.00
O154   O     0.50001   0.12707   0.31487   0.00000  Uiso   1.00
O155   O     0.50001   0.20627   0.31487   0.00000  Uiso   1.00
O156   O     0.49999   0.12707   0.18513   0.00000  Uiso   1.00
C157   C     0.75444   0.16682   0.25378   0.00000  Uiso   1.00
C158   C     0.70955   0.16687   0.25784   0.00000  Uiso   1.00
C159   C     0.80813   0.02499   0.22091   0.00000  Uiso   1.00
C160   C     0.85859   0.30834   0.27890   0.00000  Uiso   1.00
C161   C     0.85772   0.02396   0.27981   0.00000  Uiso   1.00
C162   C     0.80807   0.30926   0.22101   0.00000  Uiso   1.00
C163   C     0.83252   0.16690   0.16448   0.00000  Uiso   1.00
C164   C     0.83527   0.16667   0.33546   0.00000  Uiso   1.00
C165   C     0.87618   0.16698   0.40795   0.00000  Uiso   1.00
C166   C     0.79779   0.17955   0.09015   0.00000  Uiso   1.00
C167   C     0.83763   0.16783   0.38422   0.00000  Uiso   1.00
C168   C     0.91233   0.16624   0.24656   0.00000  Uiso   1.00
C169   C     0.83370   0.16840   0.11578   0.00000  Uiso   1.00
C170   C     0.80126   0.17709   0.40608   0.00000  Uiso   1.00
C171   C     0.87179   0.16356   0.09570   0.00000  Uiso   1.00
C172   C     0.80306   0.18876   0.45123   0.00000  Uiso   1.00
C173   C     0.87474   0.17195   0.04966   0.00000  Uiso   1.00
C174   C     0.83980   0.18021   0.47667   0.00000  Uiso   1.00
C175   C     0.83850   0.18079   0.02355   0.00000  Uiso   1.00
C176   C     0.87724   0.17003   0.45539   0.00000  Uiso   1.00
C177   C     0.80060   0.18908   0.04418   0.00000  Uiso   1.00
C178   C     0.76927   0.20976   0.47159   0.00000  Uiso   1.00
C179   C     0.76735   0.20839   0.01828   0.00000  Uiso   1.00
C180   C     0.91293   0.17157   0.02884   0.00000  Uiso   1.00
C181   C     0.75600   0.27717   0.42509   0.00000  Uiso   1.00
C182   C     0.95607   0.22866   0.06432   0.00000  Uiso   1.00
C183   C     0.73980   0.27776   0.05018   0.00000  Uiso   1.00
C184   C     0.96398   0.10676   0.46728   0.00000  Uiso   1.00
C185   C     0.91412   0.16584   0.48247   0.00000  Uiso   1.00
C186   C     0.68858   0.12509   0.26115   0.00000  Uiso   1.00
C187   C     0.97866   0.20638   0.23999   0.00000  Uiso   1.00
C188   C     0.97994   0.12358   0.24999   0.00000  Uiso   1.00
C189   C     0.68685   0.20789   0.25253   0.00000  Uiso   1.00
C190   C     0.95739   0.16499   0.24344   0.00000  Uiso   1.00
Cu191  Cu    0.83333   0.21355   0.25000   0.00000  Uiso   1.00
Cu192  Cu    0.83333   0.11978   0.25000   0.00000  Uiso   1.00
H193   H     0.71124   0.24123   0.45803   0.00000  Uiso   1.00
H194   H     0.71585   0.28881   0.07324   0.00000  Uiso   1.00
H195   H     0.73679   0.29924   0.01975   0.00000  Uiso   1.00
H196   H     0.77057   0.28297   0.06670   0.00000  Uiso   1.00
H197   H     0.97624   0.17668   0.47203   0.00000  Uiso   1.00
H198   H     0.99295   0.10085   0.44969   0.00000  Uiso   1.00
H199   H     0.93950   0.08538   0.45142   0.00000  Uiso   1.00
H200   H     0.96895   0.09616   0.00257   0.00000  Uiso   1.00
H201   H     0.73100   0.29486   0.40526   0.00000  Uiso   1.00
H202   H     0.78091   0.26836   0.40234   0.00000  Uiso   1.00
H203   H     0.76830   0.30089   0.45088   0.00000  Uiso   1.00
H204   H     0.97643   0.16435   0.04475   0.00000  Uiso   1.00
H205   H     0.98365   0.23224   0.08695   0.00000  Uiso   1.00
H206   H     0.92906   0.24280   0.08137   0.00000  Uiso   1.00
H207   H     0.96077   0.24850   0.03338   0.00000  Uiso   1.00
H208   H     0.70497   0.22250   0.02661   0.00000  Uiso   1.00
I209   I     0.93078   0.16494   0.36910   0.00000  Uiso   1.00
I210   I     0.90180   0.27426   0.32303   0.00000  Uiso   1.00
I211   I     0.89428   0.05582   0.33109   0.00000  Uiso   1.00
I212   I     0.76743   0.27624   0.17430   0.00000  Uiso   1.00
I213   I     0.73921   0.16846   0.11946   0.00000  Uiso   1.00
I214   I     0.74317   0.16564   0.37199   0.00000  Uiso   1.00
I215   I     0.92116   0.13147   0.13388   0.00000  Uiso   1.00
I216   I     0.71623   0.06640   0.29447   0.00000  Uiso   1.00
I217   I     0.95339   0.26307   0.20239   0.00000  Uiso   1.00
I218   I     0.95664   0.05791   0.23078   0.00000  Uiso   1.00
I219   I     0.70842   0.27063   0.28026   0.00000  Uiso   1.00
I220   I     0.76611   0.05927   0.17525   0.00000  Uiso   1.00
N221   N     0.83333   0.28402   0.25000   0.00000  Uiso   1.00
N222   N     0.83333   0.04931   0.25000   0.00000  Uiso   1.00
N223   N     0.73994   0.23637   0.44550   0.00000  Uiso   1.00
N224   N     0.95001   0.18087   0.05402   0.00000  Uiso   1.00
N225   N     0.73397   0.23009   0.03935   0.00000  Uiso   1.00
N226   N     0.95251   0.15469   0.46402   0.00000  Uiso   1.00
O227   O     0.77321   0.20625   0.25000   0.00000  Uiso   1.00
O228   O     0.89345   0.12709   0.25001   0.00000  Uiso   1.00
O229   O     0.89345   0.20625   0.25001   0.00000  Uiso   1.00
O230   O     0.77321   0.12709   0.25000   0.00000  Uiso   1.00
O231   O     0.83332   0.20627   0.18513   0.00000  Uiso   1.00
O232   O     0.83334   0.12707   0.31487   0.00000  Uiso   1.00
O233   O     0.83334   0.20627   0.31487   0.00000  Uiso   1.00
O234   O     0.83332   0.12707   0.18513   0.00000  Uiso   1.00
C235   C     0.08777   0.50016   0.25378   0.00000  Uiso   1.00
C236   C     0.04288   0.50020   0.25784   0.00000  Uiso   1.00
C237   C     0.14146   0.35832   0.22091   0.00000  Uiso   1.00
C238   C     0.19193   0.64167   0.27890   0.00000  Uiso   1.00
C239   C     0.19106   0.35729   0.27981   0.00000  Uiso   1.00
C240   C     0.14141   0.64259   0.22101   0.00000  Uiso   1.00
C241   C     0.16585   0.50023   0.16448   0.00000  Uiso   1.00
C242   C     0.16860   0.50000   0.33546   0.00000  Uiso   1.00
C243   C     0.20952   0.50031   0.40795   0.00000  Uiso   1.00
C244   C     0.13112   0.51288   0.09015   0.00000  Uiso   1.00
C245   C     0.17096   0.50116   0.38422   0.00000  Uiso   1.00
C246   C     0.24566   0.49957   0.24656   0.00000  Uiso   1.00
C247   C     0.16703   0.50174   0.11578   0.00000  Uiso   1.00
C248   C     0.13460   0.51042   0.40608   0.00000  Uiso   1.00
C249   C     0.20512   0.49690   0.09570   0.00000  Uiso   1.00
C250   C     0.13639   0.52210   0.45123   0.00000  Uiso   1.00
C251   C     0.20807   0.50528   0.04966   0.00000  Uiso   1.00
C252   C     0.17313   0.51354   0.47667   0.00000  Uiso   1.00
C253   C     0.17183   0.51412   0.02355   0.00000  Uiso   1.00
C254   C     0.21057   0.50336   0.45539   0.00000  Uiso   1.00
C255   C     0.13393   0.52242   0.04418   0.00000  Uiso   1.00
C256   C     0.10261   0.54309   0.47159   0.00000  Uiso   1.00
C257   C     0.10068   0.54172   0.01828   0.00000  Uiso   1.00
C258   C     0.24626   0.50490   0.02884   0.00000  Uiso   1.00
C259   C     0.08934   0.61050   0.42509   0.00000  Uiso   1.00
C260   C     0.28940   0.56199   0.06432   0.00000  Uiso   1.00
C261   C     0.07313   0.61110   0.05018   0.00000  Uiso   1.00
C262   C     0.29732   0.44009   0.46728   0.00000  Uiso   1.00
C263   C     0.24746   0.49917   0.48247   0.00000  Uiso   1.00
C264   C     0.02192   0.45842   0.26115   0.00000  Uiso   1.00
C265   C     0.31200   0.53971   0.23999   0.00000  Uiso   1.00
C266   C     0.31327   0.45691   0.24999   0.00000  Uiso   1.00
C267   C     0.02019   0.54123   0.25253   0.00000  Uiso   1.00
C268   C     0.29072   0.49833   0.24344   0.00000  Uiso   1.00
Cu269  Cu    0.16667   0.54689   0.25000   0.00000  Uiso   1.00
Cu270  Cu    0.16667   0.45311   0.25000   0.00000  Uiso   1.00
H271   H     0.04457   0.57457   0.45803   0.00000  Uiso   1.00
H272   H     0.04918   0.62214   0.07324   0.00000  Uiso   1.00
H273   H     0.07013   0.63257   0.01975   0.00000  Uiso   1.00
H274   H     0.10390   0.61631   0.06670   0.00000  Uiso   1.00
H275   H     0.30958   0.51001   0.47203   0.00000  Uiso   1.00
H276   H     0.32629   0.43418   0.44969   0.00000  Uiso   1.00
H277   H     0.27283   0.41871   0.45142   0.00000  Uiso   1.00
H278   H     0.30228   0.42949   0.00257   0.00000  Uiso   1.00
H279   H     0.06433   0.62819   0.40526   0.00000  Uiso   1.00
H280   H     0.11424   0.60169   0.40234   0.00000  Uiso   1.00
H281   H     0.10163   0.63422   0.45088   0.00000  Uiso   1.00
H282   H     0.30977   0.49769   0.04475   0.00000  Uiso   1.00
H283   H     0.31698   0.56557   0.08695   0.00000  Uiso   1.00
H284   H     0.26239   0.57613   0.08137   0.00000  Uiso   1.00
H285   H     0.29411   0.58183   0.03338   0.00000  Uiso   1.00
H286   H     0.03831   0.55583   0.02661   0.00000  Uiso   1.00
I287   I     0.26411   0.49828   0.36910   0.00000  Uiso   1.00
I288   I     0.23513   0.60760   0.32303   0.00000  Uiso   1.00
I289   I     0.22762   0.38915   0.33109   0.00000  Uiso   1.00
I290   I     0.10076   0.60957   0.17430   0.00000  Uiso   1.00
I291   I     0.07255   0.50179   0.11946   0.00000  Uiso   1.00
I292   I     0.07651   0.49897   0.37199   0.00000  Uiso   1.00
I293   I     0.25449   0.46481   0.13388   0.00000  Uiso   1.00
I294   I     0.04956   0.39973   0.29447   0.00000  Uiso   1.00
I295   I     0.28672   0.59641   0.20239   0.00000  Uiso   1.00
I296   I     0.28998   0.39124   0.23078   0.00000  Uiso   1.00
I297   I     0.04176   0.60397   0.28026   0.00000  Uiso   1.00
I298   I     0.09944   0.39260   0.17525   0.00000  Uiso   1.00
N299   N     0.16667   0.61736   0.25000   0.00000  Uiso   1.00
N300   N     0.16667   0.38264   0.25000   0.00000  Uiso   1.00
N301   N     0.07328   0.56970   0.44550   0.00000  Uiso   1.00
N302   N     0.28335   0.51421   0.05402   0.00000  Uiso   1.00
N303   N     0.06730   0.56343   0.03935   0.00000  Uiso   1.00
N304   N     0.28584   0.48802   0.46402   0.00000  Uiso   1.00
O305   O     0.10655   0.53958   0.25000   0.00000  Uiso   1.00
O306   O     0.22679   0.46042   0.25001   0.00000  Uiso   1.00
O307   O     0.22679   0.53958   0.25001   0.00000  Uiso   1.00
O308   O     0.10655   0.46042   0.25000   0.00000  Uiso   1.00
O309   O     0.16666   0.53960   0.18513   0.00000  Uiso   1.00
O310   O     0.16668   0.46040   0.31487   0.00000  Uiso   1.00
O311   O     0.16668   0.53960   0.31487   0.00000  Uiso   1.00
O312   O     0.16666   0.46040   0.18513   0.00000  Uiso   1.00
C313   C     0.42110   0.50016   0.25378   0.00000  Uiso   1.00
C314   C     0.37622   0.50020   0.25784   0.00000  Uiso   1.00
C315   C     0.47479   0.35832   0.22091   0.00000  Uiso   1.00
C316   C     0.52526   0.64167   0.27890   0.00000  Uiso   1.00
C317   C     0.52439   0.35729   0.27981   0.00000  Uiso   1.00
C318   C     0.47474   0.64259   0.22101   0.00000  Uiso   1.00
C319   C     0.49918   0.50023   0.16448   0.00000  Uiso   1.00
C320   C     0.50193   0.50000   0.33546   0.00000  Uiso   1.00
C321   C     0.54285   0.50031   0.40795   0.00000  Uiso   1.00
C322   C     0.46445   0.51288   0.09015   0.00000  Uiso   1.00
C323   C     0.50430   0.50116   0.38422   0.00000  Uiso   1.00
C324   C     0.57900   0.49957   0.24656   0.00000  Uiso   1.00
C325   C     0.50036   0.50174   0.11578   0.00000  Uiso   1.00
C326   C     0.46793   0.51042   0.40608   0.00000  Uiso   1.00
C327   C     0.53845   0.49690   0.09570   0.00000  Uiso   1.00
C328   C     0.46973   0.52210   0.45123   0.00000  Uiso   1.00
C329   C     0.54140   0.50528   0.04966   0.00000  Uiso   1.00
C330   C     0.50646   0.51354   0.47667   0.00000  Uiso   1.00
C331   C     0.50517   0.51412   0.02355   0.00000  Uiso   1.00
C332   C     0.54390   0.50336   0.45539   0.00000  Uiso   1.00
C333   C     0.46726   0.52242   0.04418   0.00000  Uiso   1.00
C334   C     0.43594   0.54309   0.47159   0.00000  Uiso   1.00
C335   C     0.43401   0.54172   0.01828   0.00000  Uiso   1.00
C336   C     0.57960   0.50490   0.02884   0.00000  Uiso   1.00
C337   C     0.42267   0.61050   0.42509   0.00000  Uiso   1.00
C338   C     0.62273   0.56199   0.06432   0.00000  Uiso   1.00
C339   C     0.40646   0.61110   0.05018   0.00000  Uiso   1.00
C340   C     0.63065   0.44009   0.46728   0.00000  Uiso   1.00
C341   C     0.58079   0.49917   0.48247   0.00000  Uiso   1.00
C342   C     0.35525   0.45842   0.26115   0.00000  Uiso   1.00
C343   C     0.64533   0.53971   0.23999   0.00000  Uiso   1.00
C344   C     0.64660   0.45691   0.24999   0.00000  Uiso   1.00
C345   C     0.35352   0.54123   0.25253   0.00000  Uiso   1.00
C346   C     0.62405   0.49833   0.24344   0.00000  Uiso   1.00
Cu347  Cu    0.50000   0.54689   0.25000   0.00000  Uiso   1.00
Cu348  Cu    0.50000   0.45311   0.25000   0.00000  Uiso   1.00
H349   H     0.37790   0.57457   0.45803   0.00000  Uiso   1.00
H350   H     0.38252   0.62214   0.07324   0.00000  Uiso   1.00
H351   H     0.40346   0.63257   0.01975   0.00000  Uiso   1.00
H352   H     0.43724   0.61631   0.06670   0.00000  Uiso   1.00
H353   H     0.64291   0.51001   0.47203   0.00000  Uiso   1.00
H354   H     0.65962   0.43418   0.44969   0.00000  Uiso   1.00
H355   H     0.60616   0.41871   0.45142   0.00000  Uiso   1.00
H356   H     0.63562   0.42949   0.00257   0.00000  Uiso   1.00
H357   H     0.39766   0.62819   0.40526   0.00000  Uiso   1.00
H358   H     0.44757   0.60169   0.40234   0.00000  Uiso   1.00
H359   H     0.43497   0.63422   0.45088   0.00000  Uiso   1.00
H360   H     0.64310   0.49769   0.04475   0.00000  Uiso   1.00
H361   H     0.65031   0.56557   0.08695   0.00000  Uiso   1.00
H362   H     0.59573   0.57613   0.08137   0.00000  Uiso   1.00
H363   H     0.62744   0.58183   0.03338   0.00000  Uiso   1.00
H364   H     0.37164   0.55583   0.02661   0.00000  Uiso   1.00
I365   I     0.59745   0.49828   0.36910   0.00000  Uiso   1.00
I366   I     0.56847   0.60760   0.32303   0.00000  Uiso   1.00
I367   I     0.56095   0.38915   0.33109   0.00000  Uiso   1.00
I368   I     0.43410   0.60957   0.17430   0.00000  Uiso   1.00
I369   I     0.40588   0.50179   0.11946   0.00000  Uiso   1.00
I370   I     0.40984   0.49897   0.37199   0.00000  Uiso   1.00
I371   I     0.58783   0.46481   0.13388   0.00000  Uiso   1.00
I372   I     0.38289   0.39973   0.29447   0.00000  Uiso   1.00
I373   I     0.62006   0.59641   0.20239   0.00000  Uiso   1.00
I374   I     0.62331   0.39124   0.23078   0.00000  Uiso   1.00
I375   I     0.37509   0.60397   0.28026   0.00000  Uiso   1.00
I376   I     0.43278   0.39260   0.17525   0.00000  Uiso   1.00
N377   N     0.50000   0.61736   0.25000   0.00000  Uiso   1.00
N378   N     0.50000   0.38264   0.25000   0.00000  Uiso   1.00
N379   N     0.40661   0.56970   0.44550   0.00000  Uiso   1.00
N380   N     0.61668   0.51421   0.05402   0.00000  Uiso   1.00
N381   N     0.40063   0.56343   0.03935   0.00000  Uiso   1.00
N382   N     0.61917   0.48802   0.46402   0.00000  Uiso   1.00
O383   O     0.43988   0.53958   0.25000   0.00000  Uiso   1.00
O384   O     0.56012   0.46042   0.25001   0.00000  Uiso   1.00
O385   O     0.56012   0.53958   0.25001   0.00000  Uiso   1.00
O386   O     0.43988   0.46042   0.25000   0.00000  Uiso   1.00
O387   O     0.49999   0.53960   0.18513   0.00000  Uiso   1.00
O388   O     0.50001   0.46040   0.31487   0.00000  Uiso   1.00
O389   O     0.50001   0.53960   0.31487   0.00000  Uiso   1.00
O390   O     0.49999   0.46040   0.18513   0.00000  Uiso   1.00
C391   C     0.75444   0.50016   0.25378   0.00000  Uiso   1.00
C392   C     0.70955   0.50020   0.25784   0.00000  Uiso   1.00
C393   C     0.80813   0.35832   0.22091   0.00000  Uiso   1.00
C394   C     0.85859   0.64167   0.27890   0.00000  Uiso   1.00
C395   C     0.85772   0.35729   0.27981   0.00000  Uiso   1.00
C396   C     0.80807   0.64259   0.22101   0.00000  Uiso   1.00
C397   C     0.83252   0.50023   0.16448   0.00000  Uiso   1.00
C398   C     0.83527   0.50000   0.33546   0.00000  Uiso   1.00
C399   C     0.87618   0.50031   0.40795   0.00000  Uiso   1.00
C400   C     0.79779   0.51288   0.09015   0.00000  Uiso   1.00
C401   C     0.83763   0.50116   0.38422   0.00000  Uiso   1.00
C402   C     0.91233   0.49957   0.24656   0.00000  Uiso   1.00
C403   C     0.83370   0.50174   0.11578   0.00000  Uiso   1.00
C404   C     0.80126   0.51042   0.40608   0.00000  Uiso   1.00
C405   C     0.87179   0.49690   0.09570   0.00000  Uiso   1.00
C406   C     0.80306   0.52210   0.45123   0.00000  Uiso   1.00
C407   C     0.87474   0.50528   0.04966   0.00000  Uiso   1.00
C408   C     0.83980   0.51354   0.47667   0.00000  Uiso   1.00
C409   C     0.83850   0.51412   0.02355   0.00000  Uiso   1.00
C410   C     0.87724   0.50336   0.45539   0.00000  Uiso   1.00
C411   C     0.80060   0.52242   0.04418   0.00000  Uiso   1.00
C412   C     0.76927   0.54309   0.47159   0.00000  Uiso   1.00
C413   C     0.76735   0.54172   0.01828   0.00000  Uiso   1.00
C414   C     0.91293   0.50490   0.02884   0.00000  Uiso   1.00
C415   C     0.75600   0.61050   0.42509   0.00000  Uiso   1.00
C416   C     0.95607   0.56199   0.06432   0.00000  Uiso   1.00
C417   C     0.73980   0.61110   0.05018   0.00000  Uiso   1.00
C418   C     0.96398   0.44009   0.46728   0.00000  Uiso   1.00
C419   C     0.91412   0.49917   0.48247   0.00000  Uiso   1.00
C420   C     0.68858   0.45842   0.26115   0.00000  Uiso   1.00
C421   C     0.97866   0.53971   0.23999   0.00000  Uiso   1.00
C422   C     0.97994   0.45691   0.24999   0.00000  Uiso   1.00
C423   C     0.68685   0.54123   0.25253   0.00000  Uiso   1.00
C424   C     0.95739   0.49833   0.24344   0.00000  Uiso   1.00
Cu425  Cu    0.83333   0.54689   0.25000   0.00000  Uiso   1.00
Cu426  Cu    0.83333   0.45311   0.25000   0.00000  Uiso   1.00
H427   H     0.71124   0.57457   0.45803   0.00000  Uiso   1.00
H428   H     0.71585   0.62214   0.07324   0.00000  Uiso   1.00
H429   H     0.73679   0.63257   0.01975   0.00000  Uiso   1.00
H430   H     0.77057   0.61631   0.06670   0.00000  Uiso   1.00
H431   H     0.97624   0.51001   0.47203   0.00000  Uiso   1.00
H432   H     0.99295   0.43418   0.44969   0.00000  Uiso   1.00
H433   H     0.93950   0.41871   0.45142   0.00000  Uiso   1.00
H434   H     0.96895   0.42949   0.00257   0.00000  Uiso   1.00
H435   H     0.73100   0.62819   0.40526   0.00000  Uiso   1.00
H436   H     0.78091   0.60169   0.40234   0.00000  Uiso   1.00
H437   H     0.76830   0.63422   0.45088   0.00000  Uiso   1.00
H438   H     0.97643   0.49769   0.04475   0.00000  Uiso   1.00
H439   H     0.98365   0.56557   0.08695   0.00000  Uiso   1.00
H440   H     0.92906   0.57613   0.08137   0.00000  Uiso   1.00
H441   H     0.96077   0.58183   0.03338   0.00000  Uiso   1.00
H442   H     0.70497   0.55583   0.02661   0.00000  Uiso   1.00
I443   I     0.93078   0.49828   0.36910   0.00000  Uiso   1.00
I444   I     0.90180   0.60760   0.32303   0.00000  Uiso   1.00
I445   I     0.89428   0.38915   0.33109   0.00000  Uiso   1.00
I446   I     0.76743   0.60957   0.17430   0.00000  Uiso   1.00
I447   I     0.73921   0.50179   0.11946   0.00000  Uiso   1.00
I448   I     0.74317   0.49897   0.37199   0.00000  Uiso   1.00
I449   I     0.92116   0.46481   0.13388   0.00000  Uiso   1.00
I450   I     0.71623   0.39973   0.29447   0.00000  Uiso   1.00
I451   I     0.95339   0.59641   0.20239   0.00000  Uiso   1.00
I452   I     0.95664   0.39124   0.23078   0.00000  Uiso   1.00
I453   I     0.70842   0.60397   0.28026   0.00000  Uiso   1.00
I454   I     0.76611   0.39260   0.17525   0.00000  Uiso   1.00
N455   N     0.83333   0.61736   0.25000   0.00000  Uiso   1.00
N456   N     0.83333   0.38264   0.25000   0.00000  Uiso   1.00
N457   N     0.73994   0.56970   0.44550   0.00000  Uiso   1.00
N458   N     0.95001   0.51421   0.05402   0.00000  Uiso   1.00
N459   N     0.73397   0.56343   0.03935   0.00000  Uiso   1.00
N460   N     0.95251   0.48802   0.46402   0.00000  Uiso   1.00
O461   O     0.77321   0.53958   0.25000   0.00000  Uiso   1.00
O462   O     0.89345   0.46042   0.25001   0.00000  Uiso   1.00
O463   O     0.89345   0.53958   0.25001   0.00000  Uiso   1.00
O464   O     0.77321   0.46042   0.25000   0.00000  Uiso   1.00
O465   O     0.83332   0.53960   0.18513   0.00000  Uiso   1.00
O466   O     0.83334   0.46040   0.31487   0.00000  Uiso   1.00
O467   O     0.83334   0.53960   0.31487   0.00000  Uiso   1.00
O468   O     0.83332   0.46040   0.18513   0.00000  Uiso   1.00
C469   C     0.08777   0.83349   0.25378   0.00000  Uiso   1.00
C470   C     0.04288   0.83353   0.25784   0.00000  Uiso   1.00
C471   C     0.14146   0.69166   0.22091   0.00000  Uiso   1.00
C472   C     0.19193   0.97500   0.27890   0.00000  Uiso   1.00
C473   C     0.19106   0.69063   0.27981   0.00000  Uiso   1.00
C474   C     0.14141   0.97593   0.22101   0.00000  Uiso   1.00
C475   C     0.16585   0.83356   0.16448   0.00000  Uiso   1.00
C476   C     0.16860   0.83334   0.33546   0.00000  Uiso   1.00
C477   C     0.20952   0.83365   0.40795   0.00000  Uiso   1.00
C478   C     0.13112   0.84621   0.09015   0.00000  Uiso   1.00
C479   C     0.17096   0.83450   0.38422   0.00000  Uiso   1.00
C480   C     0.24566   0.83291   0.24656   0.00000  Uiso   1.00
C481   C     0.16703   0.83507   0.11578   0.00000  Uiso   1.00
C482   C     0.13460   0.84376   0.40608   0.00000  Uiso   1.00
C483   C     0.20512   0.83023   0.09570   0.00000  Uiso   1.00
C484   C     0.13639   0.85543   0.45123   0.00000  Uiso   1.00
C485   C     0.20807   0.83861   0.04966   0.00000  Uiso   1.00
C486   C     0.17313   0.84688   0.47667   0.00000  Uiso   1.00
C487   C     0.17183   0.84745   0.02355   0.00000  Uiso   1.00
C488   C     0.21057   0.83669   0.45539   0.00000  Uiso   1.00
C489   C     0.13393   0.85575   0.04418   0.00000  Uiso   1.00
C490   C     0.10261   0.87642   0.47159   0.00000  Uiso   1.00
C491   C     0.10068   0.87506   0.01828   0.00000  Uiso   1.00
C492   C     0.24626   0.83824   0.02884   0.00000  Uiso   1.00
C493   C     0.08934   0.94383   0.42509   0.00000  Uiso   1.00
C494   C     0.28940   0.89533   0.06432   0.00000  Uiso   1.00
C495   C     0.07313   0.94443   0.05018   0.00000  Uiso   1.00
C496   C     0.29732   0.77342   0.46728   0.00000  Uiso   1.00
C497   C     0.24746   0.83251   0.48247   0.00000  Uiso   1.00
C498   C     0.02192   0.79176   0.26115   0.00000  Uiso   1.00
C499   C     0.31200   0.87304   0.23999   0.00000  Uiso   1.00
C500   C     0.31327   0.79024   0.24999   0.00000  Uiso   1.00
C501   C     0.02019   0.87456   0.25253   0.00000  Uiso   1.00
C502   C     0.29072   0.83166   0.24344   0.00000  Uiso   1.00
Cu503  Cu    0.16667   0.88022   0.25000   0.00000  Uiso   1.00
Cu504  Cu    0.16667   0.78645   0.25000   0.00000  Uiso   1.00
H505   H     0.04457   0.90790   0.45803   0.00000  Uiso   1.00
H506   H     0.04918   0.95548   0.07324   0.00000  Uiso   1.00
H507   H     0.07013   0.96590   0.01975   0.00000  Uiso   1.00
H508   H     0.10390   0.94964   0.06670   0.00000  Uiso   1.00
H509   H     0.30958   0.84335   0.47203   0.00000  Uiso   1.00
H510   H     0.32629   0.76751   0.44969   0.00000  Uiso   1.00
H511   H     0.27283   0.75204   0.45142   0.00000  Uiso   1.00
H512   H     0.30228   0.76282   0.00257   0.00000  Uiso   1.00
H513   H     0.06433   0.96152   0.40526   0.00000  Uiso   1.00
H514   H     0.11424   0.93502   0.40234   0.00000  Uiso   1.00
H515   H     0.10163   0.96756   0.45088   0.00000  Uiso   1.00
H516   H     0.30977   0.83102   0.04475   0.00000  Uiso   1.00
H517   H     0.31698   0.89890   0.08695   0.00000  Uiso   1.00
H518   H     0.26239   0.90947   0.08137   0.00000  Uiso   1.00
H519   H     0.29411   0.91517   0.03338   0.00000  Uiso   1.00
H520   H     0.03831   0.88916   0.02661   0.00000  Uiso   1.00
I521   I     0.26411   0.83161   0.36910   0.00000  Uiso   1.00
I522   I     0.23513   0.94093   0.32303   0.00000  Uiso   1.00
I523   I     0.22762   0.72248   0.33109   0.00000  Uiso   1.00
I524   I     0.10076   0.94291   0.17430   0.00000  Uiso   1.00
I525   I     0.07255   0.83512   0.11946   0.00000  Uiso   1.00
I526   I     0.07651   0.83231   0.37199   0.00000  Uiso   1.00
I527   I     0.25449   0.79814   0.13388   0.00000  Uiso   1.00
I528   I     0.04956   0.73306   0.29447   0.00000  Uiso   1.00
I529   I     0.28672   0.92974   0.20239   0.00000  Uiso   1.00
I530   I     0.28998   0.72458   0.23078   0.00000  Uiso   1.00
I531   I     0.04176   0.93730   0.28026   0.00000  Uiso   1.00
I532   I     0.09944   0.72594   0.17525   0.00000  Uiso   1.00
N533   N     0.16667   0.95069   0.25000   0.00000  Uiso   1.00
N534   N     0.16667   0.71598   0.25000   0.00000  Uiso   1.00
N535   N     0.07328   0.90303   0.44550   0.00000  Uiso   1.00
N536   N     0.28335   0.84754   0.05402   0.00000  Uiso   1.00
N537   N     0.06730   0.89676   0.03935   0.00000  Uiso   1.00
N538   N     0.28584   0.82136   0.46402   0.00000  Uiso   1.00
O539   O     0.10655   0.87291   0.25000   0.00000  Uiso   1.00
O540   O     0.22679   0.79375   0.25001   0.00000  Uiso   1.00
O541   O     0.22679   0.87291   0.25001   0.00000  Uiso   1.00
O542   O     0.10655   0.79375   0.25000   0.00000  Uiso   1.00
O543   O     0.16666   0.87293   0.18513   0.00000  Uiso   1.00
O544   O     0.16668   0.79373   0.31487   0.00000  Uiso   1.00
O545   O     0.16668   0.87293   0.31487   0.00000  Uiso   1.00
O546   O     0.16666   0.79373   0.18513   0.00000  Uiso   1.00
C547   C     0.42110   0.83349   0.25378   0.00000  Uiso   1.00
C548   C     0.37622   0.83353   0.25784   0.00000  Uiso   1.00
C549   C     0.47479   0.69166   0.22091   0.00000  Uiso   1.00
C550   C     0.52526   0.97500   0.27890   0.00000  Uiso   1.00
C551   C     0.52439   0.69063   0.27981   0.00000  Uiso   1.00
C552   C     0.47474   0.97593   0.22101   0.00000  Uiso   1.00
C553   C     0.49918   0.83356   0.16448   0.00000  Uiso   1.00
C554   C     0.50193   0.83334   0.33546   0.00000  Uiso   1.00
C555   C     0.54285   0.83365   0.40795   0.00000  Uiso   1.00
C556   C     0.46445   0.84621   0.09015   0.00000  Uiso   1.00
C557   C     0.50430   0.83450   0.38422   0.00000  Uiso   1.00
C558   C     0.57900   0.83291   0.24656   0.00000  Uiso   1.00
C559   C     0.50036   0.83507   0.11578   0.00000  Uiso   1.00
C560   C     0.46793   0.84376   0.40608   0.00000  Uiso   1.00
C561   C     0.53845   0.83023   0.09570   0.00000  Uiso   1.00
C562   C     0.46973   0.85543   0.45123   0.00000  Uiso   1.00
C563   C     0.54140   0.83861   0.04966   0.00000  Uiso   1.00
C564   C     0.50646   0.84688   0.47667   0.00000  Uiso   1.00
C565   C     0.50517   0.84745   0.02355   0.00000  Uiso   1.00
C566   C     0.54390   0.83669   0.45539   0.00000  Uiso   1.00
C567   C     0.46726   0.85575   0.04418   0.00000  Uiso   1.00
C568   C     0.43594   0.87642   0.47159   0.00000  Uiso   1.00
C569   C     0.43401   0.87506   0.01828   0.00000  Uiso   1.00
C570   C     0.57960   0.83824   0.02884   0.00000  Uiso   1.00
C571   C     0.42267   0.94383   0.42509   0.00000  Uiso   1.00
C572   C     0.62273   0.89533   0.06432   0.00000  Uiso   1.00
C573   C     0.40646   0.94443   0.05018   0.00000  Uiso   1.00
C574   C     0.63065   0.77342   0.46728   0.00000  Uiso   1.00
C575   C     0.58079   0.83251   0.48247   0.00000  Uiso   1.00
C576   C     0.35525   0.79176   0.26115   0.00000  Uiso   1.00
C577   C     0.64533   0.87304   0.23999   0.00000  Uiso   1.00
C578   C     0.64660   0.79024   0.24999   0.00000  Uiso   1.00
C579   C     0.35352   0.87456   0.25253   0.00000  Uiso   1.00
C580   C     0.62405   0.83166   0.24344   0.00000  Uiso   1.00
Cu581  Cu    0.50000   0.88022   0.25000   0.00000  Uiso   1.00
Cu582  Cu    0.50000   0.78645   0.25000   0.00000  Uiso   1.00
H583   H     0.37790   0.90790   0.45803   0.00000  Uiso   1.00
H584   H     0.38252   0.95548   0.07324   0.00000  Uiso   1.00
H585   H     0.40346   0.96590   0.01975   0.00000  Uiso   1.00
H586   H     0.43724   0.94964   0.06670   0.00000  Uiso   1.00
H587   H     0.64291   0.84335   0.47203   0.00000  Uiso   1.00
H588   H     0.65962   0.76751   0.44969   0.00000  Uiso   1.00
H589   H     0.60616   0.75204   0.45142   0.00000  Uiso   1.00
H590   H     0.63562   0.76282   0.00257   0.00000  Uiso   1.00
H591   H     0.39766   0.96152   0.40526   0.00000  Uiso   1.00
H592   H     0.44757   0.93502   0.40234   0.00000  Uiso   1.00
H593   H     0.43497   0.96756   0.45088   0.00000  Uiso   1.00
H594   H     0.64310   0.83102   0.04475   0.00000  Uiso   1.00
H595   H     0.65031   0.89890   0.08695   0.00000  Uiso   1.00
H596   H     0.59573   0.90947   0.08137   0.00000  Uiso   1.00
H597   H     0.62744   0.91517   0.03338   0.00000  Uiso   1.00
H598   H     0.37164   0.88916   0.02661   0.00000  Uiso   1.00
I599   I     0.59745   0.83161   0.36910   0.00000  Uiso   1.00
I600   I     0.56847   0.94093   0.32303   0.00000  Uiso   1.00
I601   I     0.56095   0.72248   0.33109   0.00000  Uiso   1.00
I602   I     0.43410   0.94291   0.17430   0.00000  Uiso   1.00
I603   I     0.40588   0.83512   0.11946   0.00000  Uiso   1.00
I604   I     0.40984   0.83231   0.37199   0.00000  Uiso   1.00
I605   I     0.58783   0.79814   0.13388   0.00000  Uiso   1.00
I606   I     0.38289   0.73306   0.29447   0.00000  Uiso   1.00
I607   I     0.62006   0.92974   0.20239   0.00000  Uiso   1.00
I608   I     0.62331   0.72458   0.23078   0.00000  Uiso   1.00
I609   I     0.37509   0.93730   0.28026   0.00000  Uiso   1.00
I610   I     0.43278   0.72594   0.17525   0.00000  Uiso   1.00
N611   N     0.50000   0.95069   0.25000   0.00000  Uiso   1.00
N612   N     0.50000   0.71598   0.25000   0.00000  Uiso   1.00
N613   N     0.40661   0.90303   0.44550   0.00000  Uiso   1.00
N614   N     0.61668   0.84754   0.05402   0.00000  Uiso   1.00
N615   N     0.40063   0.89676   0.03935   0.00000  Uiso   1.00
N616   N     0.61917   0.82136   0.46402   0.00000  Uiso   1.00
O617   O     0.43988   0.87291   0.25000   0.00000  Uiso   1.00
O618   O     0.56012   0.79375   0.25001   0.00000  Uiso   1.00
O619   O     0.56012   0.87291   0.25001   0.00000  Uiso   1.00
O620   O     0.43988   0.79375   0.25000   0.00000  Uiso   1.00
O621   O     0.49999   0.87293   0.18513   0.00000  Uiso   1.00
O622   O     0.50001   0.79373   0.31487   0.00000  Uiso   1.00
O623   O     0.50001   0.87293   0.31487   0.00000  Uiso   1.00
O624   O     0.49999   0.79373   0.18513   0.00000  Uiso   1.00
C625   C     0.75444   0.83349   0.25378   0.00000  Uiso   1.00
C626   C     0.70955   0.83353   0.25784   0.00000  Uiso   1.00
C627   C     0.80813   0.69166   0.22091   0.00000  Uiso   1.00
C628   C     0.85859   0.97500   0.27890   0.00000  Uiso   1.00
C629   C     0.85772   0.69063   0.27981   0.00000  Uiso   1.00
C630   C     0.80807   0.97593   0.22101   0.00000  Uiso   1.00
C631   C     0.83252   0.83356   0.16448   0.00000  Uiso   1.00
C632   C     0.83527   0.83334   0.33546   0.00000  Uiso   1.00
C633   C     0.87618   0.83365   0.40795   0.00000  Uiso   1.00
C634   C     0.79779   0.84621   0.09015   0.00000  Uiso   1.00
C635   C     0.83763   0.83450   0.38422   0.00000  Uiso   1.00
C636   C     0.91233   0.83291   0.24656   0.00000  Uiso   1.00
C637   C     0.83370   0.83507   0.11578   0.00000  Uiso   1.00
C638   C     0.80126   0.84376   0.40608   0.00000  Uiso   1.00
C639   C     0.87179   0.83023   0.09570   0.00000  Uiso   1.00
C640   C     0.80306   0.85543   0.45123   0.00000  Uiso   1.00
C641   C     0.87474   0.83861   0.04966   0.00000  Uiso   1.00
C642   C     0.83980   0.84688   0.47667   0.00000  Uiso   1.00
C643   C     0.83850   0.84745   0.02355   0.00000  Uiso   1.00
C644   C     0.87724   0.83669   0.45539   0.00000  Uiso   1.00
C645   C     0.80060   0.85575   0.04418   0.00000  Uiso   1.00
C646   C     0.76927   0.87642   0.47159   0.00000  Uiso   1.00
C647   C     0.76735   0.87506   0.01828   0.00000  Uiso   1.00
C648   C     0.91293   0.83824   0.02884   0.00000  Uiso   1.00
C649   C     0.75600   0.94383   0.42509   0.00000  Uiso   1.00
C650   C     0.95607   0.89533   0.06432   0.00000  Uiso   1.00
C651   C     0.73980   0.94443   0.05018   0.00000  Uiso   1.00
C652   C     0.96398   0.77342   0.46728   0.00000  Uiso   1.00
C653   C     0.91412   0.83251   0.48247   0.00000  Uiso   1.00
C654   C     0.68858   0.79176   0.26115   0.00000  Uiso   1.00
C655   C     0.97866   0.87304   0.23999   0.00000  Uiso   1.00
C656   C     0.97994   0.79024   0.24999   0.00000  Uiso   1.00
C657   C     0.68685   0.87456   0.25253   0.00000  Uiso   1.00
C658   C     0.95739   0.83166   0.24344   0.00000  Uiso   1.00
Cu659  Cu    0.83333   0.88022   0.25000   0.00000  Uiso   1.00
Cu660  Cu    0.83333   0.78645   0.25000   0.00000  Uiso   1.00
H661   H     0.71124   0.90790   0.45803   0.00000  Uiso   1.00
H662   H     0.71585   0.95548   0.07324   0.00000  Uiso   1.00
H663   H     0.73679   0.96590   0.01975   0.00000  Uiso   1.00
H664   H     0.77057   0.94964   0.06670   0.00000  Uiso   1.00
H665   H     0.97624   0.84335   0.47203   0.00000  Uiso   1.00
H666   H     0.99295   0.76751   0.44969   0.00000  Uiso   1.00
H667   H     0.93950   0.75204   0.45142   0.00000  Uiso   1.00
H668   H     0.96895   0.76282   0.00257   0.00000  Uiso   1.00
H669   H     0.73100   0.96152   0.40526   0.00000  Uiso   1.00
H670   H     0.78091   0.93502   0.40234   0.00000  Uiso   1.00
H671   H     0.76830   0.96756   0.45088   0.00000  Uiso   1.00
H672   H     0.97643   0.83102   0.04475   0.00000  Uiso   1.00
H673   H     0.98365   0.89890   0.08695   0.00000  Uiso   1.00
H674   H     0.92906   0.90947   0.08137   0.00000  Uiso   1.00
H675   H     0.96077   0.91517   0.03338   0.00000  Uiso   1.00
H676   H     0.70497   0.88916   0.02661   0.00000  Uiso   1.00
I677   I     0.93078   0.83161   0.36910   0.00000  Uiso   1.00
I678   I     0.90180   0.94093   0.32303   0.00000  Uiso   1.00
I679   I     0.89428   0.72248   0.33109   0.00000  Uiso   1.00
I680   I     0.76743   0.94291   0.17430   0.00000  Uiso   1.00
I681   I     0.73921   0.83512   0.11946   0.00000  Uiso   1.00
I682   I     0.74317   0.83231   0.37199   0.00000  Uiso   1.00
I683   I     0.92116   0.79814   0.13388   0.00000  Uiso   1.00
I684   I     0.71623   0.73306   0.29447   0.00000  Uiso   1.00
I685   I     0.95339   0.92974   0.20239   0.00000  Uiso   1.00
I686   I     0.95664   0.72458   0.23078   0.00000  Uiso   1.00
I687   I     0.70842   0.93730   0.28026   0.00000  Uiso   1.00
I688   I     0.76611   0.72594   0.17525   0.00000  Uiso   1.00
N689   N     0.83333   0.95069   0.25000   0.00000  Uiso   1.00
N690   N     0.83333   0.71598   0.25000   0.00000  Uiso   1.00
N691   N     0.73994   0.90303   0.44550   0.00000  Uiso   1.00
N692   N     0.95001   0.84754   0.05402   0.00000  Uiso   1.00
N693   N     0.73397   0.89676   0.03935   0.00000  Uiso   1.00
N694   N     0.95251   0.82136   0.46402   0.00000  Uiso   1.00
O695   O     0.77321   0.87291   0.25000   0.00000  Uiso   1.00
O696   O     0.89345   0.79375   0.25001   0.00000  Uiso   1.00
O697   O     0.89345   0.87291   0.25001   0.00000  Uiso   1.00
O698   O     0.77321   0.79375   0.25000   0.00000  Uiso   1.00
O699   O     0.83332   0.87293   0.18513   0.00000  Uiso   1.00
O700   O     0.83334   0.79373   0.31487   0.00000  Uiso   1.00
O701   O     0.83334   0.87293   0.31487   0.00000  Uiso   1.00
O702   O     0.83332   0.79373   0.18513   0.00000  Uiso   1.00
C703   C     0.08777   0.16682   0.75378   0.00000  Uiso   1.00
C704   C     0.04288   0.16687   0.75784   0.00000  Uiso   1.00
C705   C     0.14146   0.02499   0.72091   0.00000  Uiso   1.00
C706   C     0.19193   0.30834   0.77890   0.00000  Uiso   1.00
C707   C     0.19106   0.02396   0.77981   0.00000  Uiso   1.00
C708   C     0.14141   0.30926   0.72101   0.00000  Uiso   1.00
C709   C     0.16585   0.16690   0.66448   0.00000  Uiso   1.00
C710   C     0.16860   0.16667   0.83546   0.00000  Uiso   1.00
C711   C     0.20952   0.16698   0.90795   0.00000  Uiso   1.00
C712   C     0.13112   0.17955   0.59015   0.00000  Uiso   1.00
C713   C     0.17096   0.16783   0.88422   0.00000  Uiso   1.00
C714   C     0.24566   0.16624   0.74656   0.00000  Uiso   1.00
C715   C     0.16703   0.16840   0.61578   0.00000  Uiso   1.00
C716   C     0.13460   0.17709   0.90608   0.00000  Uiso   1.00
C717   C     0.20512   0.16356   0.59570   0.00000  Uiso   1.00
C718   C     0.13639   0.18876   0.95123   0.00000  Uiso   1.00
C719   C     0.20807   0.17195   0.54966   0.00000  Uiso   1.00
C720   C     0.17313   0.18021   0.97667   0.00000  Uiso   1.00
C721   C     0.17183   0.18079   0.52355   0.00000  Uiso   1.00
C722   C     0.21057   0.17003   0.95539   0.00000  Uiso   1.00
C723   C     0.13393   0.18908   0.54418   0.00000  Uiso   1.00
C724   C     0.10261   0.20976   0.97159   0.00000  Uiso   1.00
C725   C     0.10068   0.20839   0.51828   0.00000  Uiso   1.00
C726   C     0.24626   0.17157   0.52884   0.00000  Uiso   1.00
C727   C     0.08934   0.27717   0.92509   0.00000  Uiso   1.00
C728   C     0.28940   0.22866   0.56432   0.00000  Uiso   1.00
C729   C     0.07313   0.27776   0.55018   0.00000  Uiso   1.00
C730   C     0.29732   0.10676   0.96728   0.00000  Uiso   1.00
C731   C     0.24746   0.16584   0.98247   0.00000  Uiso   1.00
C732   C     0.02192   0.12509   0.76115   0.00000  Uiso   1.00
C733   C     0.31200   0.20638   0.73999   0.00000  Uiso   1.00
C734   C     0.31327   0.12358   0.74999   0.00000  Uiso   1.00
C735   C     0.02019   0.20789   0.75253   0.00000  Uiso   1.00
C736   C     0.29072   0.16499   0.74344   0.00000  Uiso   1.00
Cu737  Cu    0.16667   0.21355   0.75000   0.00000  Uiso   1.00
Cu738  Cu    0.16667   0.11978   0.75000   0.00000  Uiso   1.00
H739   H     0.04457   0.24123   0.95803   0.00000  Uiso   1.00
H740   H     0.04918   0.28881   0.57324   0.00000  Uiso   1.00
H741   H     0.07013   0.29924   0.51975   0.00000  Uiso   1.00
H742   H     0.10390   0.28297   0.56670   0.00000  Uiso   1.00
H743   H     0.30958   0.17668   0.97203   0.00000  Uiso   1.00
H744   H     0.32629   0.10085   0.94969   0.00000  Uiso   1.00
H745   H     0.27283   0.08538   0.95142   0.00000  Uiso   1.00
H746   H     0.30228   0.09616   0.50257   0.00000  Uiso   1.00
H747   H     0.06433   0.29486   0.90526   0.00000  Uiso   1.00
H748   H     0.11424   0.26836   0.90234   0.00000  Uiso   1.00
H749   H     0.10163   0.30089   0.95088   0.00000  Uiso   1.00
H750   H     0.30977   0.16435   0.54475   0.00000  Uiso   1.00
H751   H     0.31698   0.23224   0.58695   0.00000  Uiso   1.00
H752   H     0.26239   0.24280   0.58137   0.00000  Uiso   1.00
H753   H     0.29411   0.24850   0.53338   0.00000  Uiso   1.00
H754   H     0.03831   0.22250   0.52661   0.00000  Uiso   1.00
I755   I     0.26411   0.16494   0.86910   0.00000  Uiso   1.00
I756   I     0.23513   0.27426   0.82303   0.00000  Uiso   1.00
I757   I     0.22762   0.05582   0.83109   0.00000  Uiso   1.00
I758   I     0.10076   0.27624   0.67430   0.00000  Uiso   1.00
I759   I     0.07255   0.16846   0.61946   0.00000  Uiso   1.00
I760   I     0.07651   0.16564   0.87199   0.00000  Uiso   1.00
I761   I     0.25449   0.13147   0.63388   0.00000  Uiso   1.00
I762   I     0.04956   0.06640   0.79447   0.00000  Uiso   1.00
I763   I     0.28672   0.26307   0.70239   0.00000  Uiso   1.00
I764   I     0.28998   0.05791   0.73078   0.00000  Uiso   1.00
I765   I     0.04176   0.27063   0.78026   0.00000  Uiso   1.00
I766   I     0.09944   0.05927   0.67525   0.00000  Uiso   1.00
N767   N     0.16667   0.28402   0.75000   0.00000  Uiso   1.00
N768   N     0.16667   0.04931   0.75000   0.00000  Uiso   1.00
N769   N     0.07328   0.23637   0.94550   0.00000  Uiso   1.00
N770   N     0.28335   0.18087   0.55402   0.00000  Uiso   1.00
N771   N     0.06730   0.23009   0.53935   0.00000  Uiso   1.00
N772   N     0.28584   0.15469   0.96402   0.00000  Uiso   1.00
O773   O     0.10655   0.20625   0.75000   0.00000  Uiso   1.00
O774   O     0.22679   0.12709   0.75001   0.00000  Uiso   1.00
O775   O     0.22679   0.20625   0.75001   0.00000  Uiso   1.00
O776   O     0.10655   0.12709   0.75000   0.00000  Uiso   1.00
O777   O     0.16666   0.20627   0.68513   0.00000  Uiso   1.00
O778   O     0.16668   0.12707   0.81487   0.00000  Uiso   1.00
O779   O     0.16668   0.20627   0.81487   0.00000  Uiso   1.00
O780   O     0.16666   0.12707   0.68513   0.00000  Uiso   1.00
C781   C     0.42110   0.16682   0.75378   0.00000  Uiso   1.00
C782   C     0.37622   0.16687   0.75784   0.00000  Uiso   1.00
C783   C     0.47479   0.02499   0.72091   0.00000  Uiso   1.00
C784   C     0.52526   0.30834   0.77890   0.00000  Uiso   1.00
C785   C     0.52439   0.02396   0.77981   0.00000  Uiso   1.00
C786   C     0.47474   0.30926   0.72101   0.00000  Uiso   1.00
C787   C     0.49918   0.16690   0.66448   0.00000  Uiso   1.00
C788   C     0.50193   0.16667   0.83546   0.00000  Uiso   1.00
C789   C     0.54285   0.16698   0.90795   0.00000  Uiso   1.00
C790   C     0.46445   0.17955   0.59015   0.00000  Uiso   1.00
C791   C     0.50430   0.16783   0.88422   0.00000  Uiso   1.00
C792   C     0.57900   0.16624   0.74656   0.00000  Uiso   1.00
C793   C     0.50036   0.16840   0.61578   0.00000  Uiso   1.00
C794   C     0.46793   0.17709   0.90608   0.00000  Uiso   1.00
C795   C     0.53845   0.16356   0.59570   0.00000  Uiso   1.00
C796   C     0.46973   0.18876   0.95123   0.00000  Uiso   1.00
C797   C     0.54140   0.17195   0.54966   0.00000  Uiso   1.00
C798   C     0.50646   0.18021   0.97667   0.00000  Uiso   1.00
C799   C     0.50517   0.18079   0.52355   0.00000  Uiso   1.00
C800   C     0.54390   0.17003   0.95539   0.00000  Uiso   1.00
C801   C     0.46726   0.18908   0.54418   0.00000  Uiso   1.00
C802   C     0.43594   0.20976   0.97159   0.00000  Uiso   1.00
C803   C     0.43401   0.20839   0.51828   0.00000  Uiso   1.00
C804   C     0.57960   0.17157   0.52884   0.00000  Uiso   1.00
C805   C     0.42267   0.27717   0.92509   0.00000  Uiso   1.00
C806   C     0.62273   0.22866   0.56432   0.00000  Uiso   1.00
C807   C     0.40646   0.27776   0.55018   0.00000  Uiso   1.00
C808   C     0.63065   0.10676   0.96728   0.00000  Uiso   1.00
C809   C     0.58079   0.16584   0.98247   0.00000  Uiso   1.00
C810   C     0.35525   0.12509   0.76115   0.00000  Uiso   1.00
C811   C     0.64533   0.20638   0.73999   0.00000  Uiso   1.00
C812   C     0.64660   0.12358   0.74999   0.00000  Uiso   1.00
C813   C     0.35352   0.20789   0.75253   0.00000  Uiso   1.00
C814   C     0.62405   0.16499   0.74344   0.00000  Uiso   1.00
Cu815  Cu    0.50000   0.21355   0.75000   0.00000  Uiso   1.00
Cu816  Cu    0.50000   0.11978   0.75000   0.00000  Uiso   1.00
H817   H     0.37790   0.24123   0.95803   0.00000  Uiso   1.00
H818   H     0.38252   0.28881   0.57324   0.00000  Uiso   1.00
H819   H     0.40346   0.29924   0.51975   0.00000  Uiso   1.00
H820   H     0.43724   0.28297   0.56670   0.00000  Uiso   1.00
H821   H     0.64291   0.17668   0.97203   0.00000  Uiso   1.00
H822   H     0.65962   0.10085   0.94969   0.00000  Uiso   1.00
H823   H     0.60616   0.08538   0.95142   0.00000  Uiso   1.00
H824   H     0.63562   0.09616   0.50257   0.00000  Uiso   1.00
H825   H     0.39766   0.29486   0.90526   0.00000  Uiso   1.00
H826   H     0.44757   0.26836   0.90234   0.00000  Uiso   1.00
H827   H     0.43497   0.30089   0.95088   0.00000  Uiso   1.00
H828   H     0.64310   0.16435   0.54475   0.00000  Uiso   1.00
H829   H     0.65031   0.23224   0.58695   0.00000  Uiso   1.00
H830   H     0.59573   0.24280   0.58137   0.00000  Uiso   1.00
H831   H     0.62744   0.24850   0.53338   0.00000  Uiso   1.00
H832   H     0.37164   0.22250   0.52661   0.00000  Uiso   1.00
I833   I     0.59745   0.16494   0.86910   0.00000  Uiso   1.00
I834   I     0.56847   0.27426   0.82303   0.00000  Uiso   1.00
I835   I     0.56095   0.05582   0.83109   0.00000  Uiso   1.00
I836   I     0.43410   0.27624   0.67430   0.00000  Uiso   1.00
I837   I     0.40588   0.16846   0.61946   0.00000  Uiso   1.00
I838   I     0.40984   0.16564   0.87199   0.00000  Uiso   1.00
I839   I     0.58783   0.13147   0.63388   0.00000  Uiso   1.00
I840   I     0.38289   0.06640   0.79447   0.00000  Uiso   1.00
I841   I     0.62006   0.26307   0.70239   0.00000  Uiso   1.00
I842   I     0.62331   0.05791   0.73078   0.00000  Uiso   1.00
I843   I     0.37509   0.27063   0.78026   0.00000  Uiso   1.00
I844   I     0.43278   0.05927   0.67525   0.00000  Uiso   1.00
N845   N     0.50000   0.28402   0.75000   0.00000  Uiso   1.00
N846   N     0.50000   0.04931   0.75000   0.00000  Uiso   1.00
N847   N     0.40661   0.23637   0.94550   0.00000  Uiso   1.00
N848   N     0.61668   0.18087   0.55402   0.00000  Uiso   1.00
N849   N     0.40063   0.23009   0.53935   0.00000  Uiso   1.00
N850   N     0.61917   0.15469   0.96402   0.00000  Uiso   1.00
O851   O     0.43988   0.20625   0.75000   0.00000  Uiso   1.00
O852   O     0.56012   0.12709   0.75001   0.00000  Uiso   1.00
O853   O     0.56012   0.20625   0.75001   0.00000  Uiso   1.00
O854   O     0.43988   0.12709   0.75000   0.00000  Uiso   1.00
O855   O     0.49999   0.20627   0.68513   0.00000  Uiso   1.00
O856   O     0.50001   0.12707   0.81487   0.00000  Uiso   1.00
O857   O     0.50001   0.20627   0.81487   0.00000  Uiso   1.00
O858   O     0.49999   0.12707   0.68513   0.00000  Uiso   1.00
C859   C     0.75444   0.16682   0.75378   0.00000  Uiso   1.00
C860   C     0.70955   0.16687   0.75784   0.00000  Uiso   1.00
C861   C     0.80813   0.02499   0.72091   0.00000  Uiso   1.00
C862   C     0.85859   0.30834   0.77890   0.00000  Uiso   1.00
C863   C     0.85772   0.02396   0.77981   0.00000  Uiso   1.00
C864   C     0.80807   0.30926   0.72101   0.00000  Uiso   1.00
C865   C     0.83252   0.16690   0.66448   0.00000  Uiso   1.00
C866   C     0.83527   0.16667   0.83546   0.00000  Uiso   1.00
C867   C     0.87618   0.16698   0.90795   0.00000  Uiso   1.00
C868   C     0.79779   0.17955   0.59015   0.00000  Uiso   1.00
C869   C     0.83763   0.16783   0.88422   0.00000  Uiso   1.00
C870   C     0.91233   0.16624   0.74656   0.00000  Uiso   1.00
C871   C     0.83370   0.16840   0.61578   0.00000  Uiso   1.00
C872   C     0.80126   0.17709   0.90608   0.00000  Uiso   1.00
C873   C     0.87179   0.16356   0.59570   0.00000  Uiso   1.00
C874   C     0.80306   0.18876   0.95123   0.00000  Uiso   1.00
C875   C     0.87474   0.17195   0.54966   0.00000  Uiso   1.00
C876   C     0.83980   0.18021   0.97667   0.00000  Uiso   1.00
C877   C     0.83850   0.18079   0.52355   0.00000  Uiso   1.00
C878   C     0.87724   0.17003   0.95539   0.00000  Uiso   1.00
C879   C     0.80060   0.18908   0.54418   0.00000  Uiso   1.00
C880   C     0.76927   0.20976   0.97159   0.00000  Uiso   1.00
C881   C     0.76735   0.20839   0.51828   0.00000  Uiso   1.00
C882   C     0.91293   0.17157   0.52884   0.00000  Uiso   1.00
C883   C     0.75600   0.27717   0.92509   0.00000  Uiso   1.00
C884   C     0.95607   0.22866   0.56432   0.00000  Uiso   1.00
C885   C     0.73980   0.27776   0.55018   0.00000  Uiso   1.00
C886   C     0.96398   0.10676   0.96728   0.00000  Uiso   1.00
C887   C     0.91412   0.16584   0.98247   0.00000  Uiso   1.00
C888   C     0.68858   0.12509   0.76115   0.00000  Uiso   1.00
C889   C     0.97866   0.20638   0.73999   0.00000  Uiso   1.00
C890   C     0.97994   0.12358   0.74999   0.00000  Uiso   1.00
C891   C     0.68685   0.20789   0.75253   0.00000  Uiso   1.00
C892   C     0.95739   0.16499   0.74344   0.00000  Uiso   1.00
Cu893  Cu    0.83333   0.21355   0.75000   0.00000  Uiso   1.00
Cu894  Cu    0.83333   0.11978   0.75000   0.00000  Uiso   1.00
H895   H     0.71124   0.24123   0.95803   0.00000  Uiso   1.00
H896   H     0.71585   0.28881   0.57324   0.00000  Uiso   1.00
H897   H     0.73679   0.29924   0.51975   0.00000  Uiso   1.00
H898   H     0.77057   0.28297   0.56670   0.00000  Uiso   1.00
H899   H     0.97624   0.17668   0.97203   0.00000  Uiso   1.00
H900   H     0.99295   0.10085   0.94969   0.00000  Uiso   1.00
H901   H     0.93950   0.08538   0.95142   0.00000  Uiso   1.00
H902   H     0.96895   0.09616   0.50257   0.00000  Uiso   1.00
H903   H     0.73100   0.29486   0.90526   0.00000  Uiso   1.00
H904   H     0.78091   0.26836   0.90234   0.00000  Uiso   1.00
H905   H     0.76830   0.30089   0.95088   0.00000  Uiso   1.00
H906   H     0.97643   0.16435   0.54475   0.00000  Uiso   1.00
H907   H     0.98365   0.23224   0.58695   0.00000  Uiso   1.00
H908   H     0.92906   0.24280   0.58137   0.00000  Uiso   1.00
H909   H     0.96077   0.24850   0.53338   0.00000  Uiso   1.00
H910   H     0.70497   0.22250   0.52661   0.00000  Uiso   1.00
I911   I     0.93078   0.16494   0.86910   0.00000  Uiso   1.00
I912   I     0.90180   0.27426   0.82303   0.00000  Uiso   1.00
I913   I     0.89428   0.05582   0.83109   0.00000  Uiso   1.00
I914   I     0.76743   0.27624   0.67430   0.00000  Uiso   1.00
I915   I     0.73921   0.16846   0.61946   0.00000  Uiso   1.00
I916   I     0.74317   0.16564   0.87199   0.00000  Uiso   1.00
I917   I     0.92116   0.13147   0.63388   0.00000  Uiso   1.00
I918   I     0.71623   0.06640   0.79447   0.00000  Uiso   1.00
I919   I     0.95339   0.26307   0.70239   0.00000  Uiso   1.00
I920   I     0.95664   0.05791   0.73078   0.00000  Uiso   1.00
I921   I     0.70842   0.27063   0.78026   0.00000  Uiso   1.00
I922   I     0.76611   0.05927   0.67525   0.00000  Uiso   1.00
N923   N     0.83333   0.28402   0.75000   0.00000  Uiso   1.00
N924   N     0.83333   0.04931   0.75000   0.00000  Uiso   1.00
N925   N     0.73994   0.23637   0.94550   0.00000  Uiso   1.00
N926   N     0.95001   0.18087   0.55402   0.00000  Uiso   1.00
N927   N     0.73397   0.23009   0.53935   0.00000  Uiso   1.00
N928   N     0.95251   0.15469   0.96402   0.00000  Uiso   1.00
O929   O     0.77321   0.20625   0.75000   0.00000  Uiso   1.00
O930   O     0.89345   0.12709   0.75001   0.00000  Uiso   1.00
O931   O     0.89345   0.20625   0.75001   0.00000  Uiso   1.00
O932   O     0.77321   0.12709   0.75000   0.00000  Uiso   1.00
O933   O     0.83332   0.20627   0.68513   0.00000  Uiso   1.00
O934   O     0.83334   0.12707   0.81487   0.00000  Uiso   1.00
O935   O     0.83334   0.20627   0.81487   0.00000  Uiso   1.00
O936   O     0.83332   0.12707   0.68513   0.00000  Uiso   1.00
C937   C     0.08777   0.50016   0.75378   0.00000  Uiso   1.00
C938   C     0.04288   0.50020   0.75784   0.00000  Uiso   1.00
C939   C     0.14146   0.35832   0.72091   0.00000  Uiso   1.00
C940   C     0.19193   0.64167   0.77890   0.00000  Uiso   1.00
C941   C     0.19106   0.35729   0.77981   0.00000  Uiso   1.00
C942   C     0.14141   0.64259   0.72101   0.00000  Uiso   1.00
C943   C     0.16585   0.50023   0.66448   0.00000  Uiso   1.00
C944   C     0.16860   0.50000   0.83546   0.00000  Uiso   1.00
C945   C     0.20952   0.50031   0.90795   0.00000  Uiso   1.00
C946   C     0.13112   0.51288   0.59015   0.00000  Uiso   1.00
C947   C     0.17096   0.50116   0.88422   0.00000  Uiso   1.00
C948   C     0.24566   0.49957   0.74656   0.00000  Uiso   1.00
C949   C     0.16703   0.50174   0.61578   0.00000  Uiso   1.00
C950   C     0.13460   0.51042   0.90608   0.00000  Uiso   1.00
C951   C     0.20512   0.49690   0.59570   0.00000  Uiso   1.00
C952   C     0.13639   0.52210   0.95123   0.00000  Uiso   1.00
C953   C     0.20807   0.50528   0.54966   0.00000  Uiso   1.00
C954   C     0.17313   0.51354   0.97667   0.00000  Uiso   1.00
C955   C     0.17183   0.51412   0.52355   0.00000  Uiso   1.00
C956   C     0.21057   0.50336   0.95539   0.00000  Uiso   1.00
C957   C     0.13393   0.52242   0.54418   0.00000  Uiso   1.00
C958   C     0.10261   0.54309   0.97159   0.00000  Uiso   1.00
C959   C     0.10068   0.54172   0.51828   0.00000  Uiso   1.00
C960   C     0.24626   0.50490   0.52884   0.00000  Uiso   1.00
C961   C     0.08934   0.61050   0.92509   0.00000  Uiso   1.00
C962   C     0.28940   0.56199   0.56432   0.00000  Uiso   1.00
C963   C     0.07313   0.61110   0.55018   0.00000  Uiso   1.00
C964   C     0.29732   0.44009   0.96728   0.00000  Uiso   1.00
C965   C     0.24746   0.49917   0.98247   0.00000  Uiso   1.00
C966   C     0.02192   0.45842   0.76115   0.00000  Uiso   1.00
C967   C     0.31200   0.53971   0.73999   0.00000  Uiso   1.00
C968   C     0.31327   0.45691   0.74999   0.00000  Uiso   1.00
C969   C     0.02019   0.54123   0.75253   0.00000  Uiso   1.00
C970   C     0.29072   0.49833   0.74344   0.00000  Uiso   1.00
Cu971  Cu    0.16667   0.54689   0.75000   0.00000  Uiso   1.00
Cu972  Cu    0.16667   0.45311   0.75000   0.00000  Uiso   1.00
H973   H     0.04457   0.57457   0.95803   0.00000  Uiso   1.00
H974   H     0.04918   0.62214   0.57324   0.00000  Uiso   1.00
H975   H     0.07013   0.63257   0.51975   0.00000  Uiso   1.00
H976   H     0.10390   0.61631   0.56670   0.00000  Uiso   1.00
H977   H     0.30958   0.51001   0.97203   0.00000  Uiso   1.00
H978   H     0.32629   0.43418   0.94969   0.00000  Uiso   1.00
H979   H     0.27283   0.41871   0.95142   0.00000  Uiso   1.00
H980   H     0.30228   0.42949   0.50257   0.00000  Uiso   1.00
H981   H     0.06433   0.62819   0.90526   0.00000  Uiso   1.00
H982   H     0.11424   0.60169   0.90234   0.00000  Uiso   1.00
H983   H     0.10163   0.63422   0.95088   0.00000  Uiso   1.00
H984   H     0.30977   0.49769   0.54475   0.00000  Uiso   1.00
H985   H     0.31698   0.56557   0.58695   0.00000  Uiso   1.00
H986   H     0.26239   0.57613   0.58137   0.00000  Uiso   1.00
H987   H     0.29411   0.58183   0.53338   0.00000  Uiso   1.00
H988   H     0.03831   0.55583   0.52661   0.00000  Uiso   1.00
I989   I     0.26411   0.49828   0.86910   0.00000  Uiso   1.00
I990   I     0.23513   0.60760   0.82303   0.00000  Uiso   1.00
I991   I     0.22762   0.38915   0.83109   0.00000  Uiso   1.00
I992   I     0.10076   0.60957   0.67430   0.00000  Uiso   1.00
I993   I     0.07255   0.50179   0.61946   0.00000  Uiso   1.00
I994   I     0.07651   0.49897   0.87199   0.00000  Uiso   1.00
I995   I     0.25449   0.46481   0.63388   0.00000  Uiso   1.00
I996   I     0.04956   0.39973   0.79447   0.00000  Uiso   1.00
I997   I     0.28672   0.59641   0.70239   0.00000  Uiso   1.00
I998   I     0.28998   0.39124   0.73078   0.00000  Uiso   1.00
I999   I     0.04176   0.60397   0.78026   0.00000  Uiso   1.00
I1000  I     0.09944   0.39260   0.67525   0.00000  Uiso   1.00
N1001  N     0.16667   0.61736   0.75000   0.00000  Uiso   1.00
N1002  N     0.16667   0.38264   0.75000   0.00000  Uiso   1.00
N1003  N     0.07328   0.56970   0.94550   0.00000  Uiso   1.00
N1004  N     0.28335   0.51421   0.55402   0.00000  Uiso   1.00
N1005  N     0.06730   0.56343   0.53935   0.00000  Uiso   1.00
N1006  N     0.28584   0.48802   0.96402   0.00000  Uiso   1.00
O1007  O     0.10655   0.53958   0.75000   0.00000  Uiso   1.00
O1008  O     0.22679   0.46042   0.75001   0.00000  Uiso   1.00
O1009  O     0.22679   0.53958   0.75001   0.00000  Uiso   1.00
O1010  O     0.10655   0.46042   0.75000   0.00000  Uiso   1.00
O1011  O     0.16666   0.53960   0.68513   0.00000  Uiso   1.00
O1012  O     0.16668   0.46040   0.81487   0.00000  Uiso   1.00
O1013  O     0.16668   0.53960   0.81487   0.00000  Uiso   1.00
O1014  O     0.16666   0.46040   0.68513   0.00000  Uiso   1.00
C1015  C     0.42110   0.50016   0.75378   0.00000  Uiso   1.00
C1016  C     0.37622   0.50020   0.75784   0.00000  Uiso   1.00
C1017  C     0.47479   0.35832   0.72091   0.00000  Uiso   1.00
C1018  C     0.52526   0.64167   0.77890   0.00000  Uiso   1.00
C1019  C     0.52439   0.35729   0.77981   0.00000  Uiso   1.00
C1020  C     0.47474   0.64259   0.72101   0.00000  Uiso   1.00
C1021  C     0.49918   0.50023   0.66448   0.00000  Uiso   1.00
C1022  C     0.50193   0.50000   0.83546   0.00000  Uiso   1.00
C1023  C     0.54285   0.50031   0.90795   0.00000  Uiso   1.00
C1024  C     0.46445   0.51288   0.59015   0.00000  Uiso   1.00
C1025  C     0.50430   0.50116   0.88422   0.00000  Uiso   1.00
C1026  C     0.57900   0.49957   0.74656   0.00000  Uiso   1.00
C1027  C     0.50036   0.50174   0.61578   0.00000  Uiso   1.00
C1028  C     0.46793   0.51042   0.90608   0.00000  Uiso   1.00
C1029  C     0.53845   0.49690   0.59570   0.00000  Uiso   1.00
C1030  C     0.46973   0.52210   0.95123   0.00000  Uiso   1.00
C1031  C     0.54140   0.50528   0.54966   0.00000  Uiso   1.00
C1032  C     0.50646   0.51354   0.97667   0.00000  Uiso   1.00
C1033  C     0.50517   0.51412   0.52355   0.00000  Uiso   1.00
C1034  C     0.54390   0.50336   0.95539   0.00000  Uiso   1.00
C1035  C     0.46726   0.52242   0.54418   0.00000  Uiso   1.00
C1036  C     0.43594   0.54309   0.97159   0.00000  Uiso   1.00
C1037  C     0.43401   0.54172   0.51828   0.00000  Uiso   1.00
C1038  C     0.57960   0.50490   0.52884   0.00000  Uiso   1.00
C1039  C     0.42267   0.61050   0.92509   0.00000  Uiso   1.00
C1040  C     0.62273   0.56199   0.56432   0.00000  Uiso   1.00
C1041  C     0.40646   0.61110   0.55018   0.00000  Uiso   1.00
C1042  C     0.63065   0.44009   0.96728   0.00000  Uiso   1.00
C1043  C     0.58079   0.49917   0.98247   0.00000  Uiso   1.00
C1044  C     0.35525   0.45842   0.76115   0.00000  Uiso   1.00
C1045  C     0.64533   0.53971   0.73999   0.00000  Uiso   1.00
C1046  C     0.64660   0.45691   0.74999   0.00000  Uiso   1.00
C1047  C     0.35352   0.54123   0.75253   0.00000  Uiso   1.00
C1048  C     0.62405   0.49833   0.74344   0.00000  Uiso   1.00
Cu1049 Cu    0.50000   0.54689   0.75000   0.00000  Uiso   1.00
Cu1050 Cu    0.50000   0.45311   0.75000   0.00000  Uiso   1.00
H1051  H     0.37790   0.57457   0.95803   0.00000  Uiso   1.00
H1052  H     0.38252   0.62214   0.57324   0.00000  Uiso   1.00
H1053  H     0.40346   0.63257   0.51975   0.00000  Uiso   1.00
H1054  H     0.43724   0.61631   0.56670   0.00000  Uiso   1.00
H1055  H     0.64291   0.51001   0.97203   0.00000  Uiso   1.00
H1056  H     0.65962   0.43418   0.94969   0.00000  Uiso   1.00
H1057  H     0.60616   0.41871   0.95142   0.00000  Uiso   1.00
H1058  H     0.63562   0.42949   0.50257   0.00000  Uiso   1.00
H1059  H     0.39766   0.62819   0.90526   0.00000  Uiso   1.00
H1060  H     0.44757   0.60169   0.90234   0.00000  Uiso   1.00
H1061  H     0.43497   0.63422   0.95088   0.00000  Uiso   1.00
H1062  H     0.64310   0.49769   0.54475   0.00000  Uiso   1.00
H1063  H     0.65031   0.56557   0.58695   0.00000  Uiso   1.00
H1064  H     0.59573   0.57613   0.58137   0.00000  Uiso   1.00
H1065  H     0.62744   0.58183   0.53338   0.00000  Uiso   1.00
H1066  H     0.37164   0.55583   0.52661   0.00000  Uiso   1.00
I1067  I     0.59745   0.49828   0.86910   0.00000  Uiso   1.00
I1068  I     0.56847   0.60760   0.82303   0.00000  Uiso   1.00
I1069  I     0.56095   0.38915   0.83109   0.00000  Uiso   1.00
I1070  I     0.43410   0.60957   0.67430   0.00000  Uiso   1.00
I1071  I     0.40588   0.50179   0.61946   0.00000  Uiso   1.00
I1072  I     0.40984   0.49897   0.87199   0.00000  Uiso   1.00
I1073  I     0.58783   0.46481   0.63388   0.00000  Uiso   1.00
I1074  I     0.38289   0.39973   0.79447   0.00000  Uiso   1.00
I1075  I     0.62006   0.59641   0.70239   0.00000  Uiso   1.00
I1076  I     0.62331   0.39124   0.73078   0.00000  Uiso   1.00
I1077  I     0.37509   0.60397   0.78026   0.00000  Uiso   1.00
I1078  I     0.43278   0.39260   0.67525   0.00000  Uiso   1.00
N1079  N     0.50000   0.61736   0.75000   0.00000  Uiso   1.00
N1080  N     0.50000   0.38264   0.75000   0.00000  Uiso   1.00
N1081  N     0.40661   0.56970   0.94550   0.00000  Uiso   1.00
N1082  N     0.61668   0.51421   0.55402   0.00000  Uiso   1.00
N1083  N     0.40063   0.56343   0.53935   0.00000  Uiso   1.00
N1084  N     0.61917   0.48802   0.96402   0.00000  Uiso   1.00
O1085  O     0.43988   0.53958   0.75000   0.00000  Uiso   1.00
O1086  O     0.56012   0.46042   0.75001   0.00000  Uiso   1.00
O1087  O     0.56012   0.53958   0.75001   0.00000  Uiso   1.00
O1088  O     0.43988   0.46042   0.75000   0.00000  Uiso   1.00
O1089  O     0.49999   0.53960   0.68513   0.00000  Uiso   1.00
O1090  O     0.50001   0.46040   0.81487   0.00000  Uiso   1.00
O1091  O     0.50001   0.53960   0.81487   0.00000  Uiso   1.00
O1092  O     0.49999   0.46040   0.68513   0.00000  Uiso   1.00
C1093  C     0.75444   0.50016   0.75378   0.00000  Uiso   1.00
C1094  C     0.70955   0.50020   0.75784   0.00000  Uiso   1.00
C1095  C     0.80813   0.35832   0.72091   0.00000  Uiso   1.00
C1096  C     0.85859   0.64167   0.77890   0.00000  Uiso   1.00
C1097  C     0.85772   0.35729   0.77981   0.00000  Uiso   1.00
C1098  C     0.80807   0.64259   0.72101   0.00000  Uiso   1.00
C1099  C     0.83252   0.50023   0.66448   0.00000  Uiso   1.00
C1100  C     0.83527   0.50000   0.83546   0.00000  Uiso   1.00
C1101  C     0.87618   0.50031   0.90795   0.00000  Uiso   1.00
C1102  C     0.79779   0.51288   0.59015   0.00000  Uiso   1.00
C1103  C     0.83763   0.50116   0.88422   0.00000  Uiso   1.00
C1104  C     0.91233   0.49957   0.74656   0.00000  Uiso   1.00
C1105  C     0.83370   0.50174   0.61578   0.00000  Uiso   1.00
C1106  C     0.80126   0.51042   0.90608   0.00000  Uiso   1.00
C1107  C     0.87179   0.49690   0.59570   0.00000  Uiso   1.00
C1108  C     0.80306   0.52210   0.95123   0.00000  Uiso   1.00
C1109  C     0.87474   0.50528   0.54966   0.00000  Uiso   1.00
C1110  C     0.83980   0.51354   0.97667   0.00000  Uiso   1.00
C1111  C     0.83850   0.51412   0.52355   0.00000  Uiso   1.00
C1112  C     0.87724   0.50336   0.95539   0.00000  Uiso   1.00
C1113  C     0.80060   0.52242   0.54418   0.00000  Uiso   1.00
C1114  C     0.76927   0.54309   0.97159   0.00000  Uiso   1.00
C1115  C     0.76735   0.54172   0.51828   0.00000  Uiso   1.00
C1116  C     0.91293   0.50490   0.52884   0.00000  Uiso   1.00
C1117  C     0.75600   0.61050   0.92509   0.00000  Uiso   1.00
C1118  C     0.95607   0.56199   0.56432   0.00000  Uiso   1.00
C1119  C     0.73980   0.61110   0.55018   0.00000  Uiso   1.00
C1120  C     0.96398   0.44009   0.96728   0.00000  Uiso   1.00
C1121  C     0.91412   0.49917   0.98247   0.00000  Uiso   1.00
C1122  C     0.68858   0.45842   0.76115   0.00000  Uiso   1.00
C1123  C     0.97866   0.53971   0.73999   0.00000  Uiso   1.00
C1124  C     0.97994   0.45691   0.74999   0.00000  Uiso   1.00
C1125  C     0.68685   0.54123   0.75253   0.00000  Uiso   1.00
C1126  C     0.95739   0.49833   0.74344   0.00000  Uiso   1.00
Cu1127 Cu    0.83333   0.54689   0.75000   0.00000  Uiso   1.00
Cu1128 Cu    0.83333   0.45311   0.75000   0.00000  Uiso   1.00
H1129  H     0.71124   0.57457   0.95803   0.00000  Uiso   1.00
H1130  H     0.71585   0.62214   0.57324   0.00000  Uiso   1.00
H1131  H     0.73679   0.63257   0.51975   0.00000  Uiso   1.00
H1132  H     0.77057   0.61631   0.56670   0.00000  Uiso   1.00
H1133  H     0.97624   0.51001   0.97203   0.00000  Uiso   1.00
H1134  H     0.99295   0.43418   0.94969   0.00000  Uiso   1.00
H1135  H     0.93950   0.41871   0.95142   0.00000  Uiso   1.00
H1136  H     0.96895   0.42949   0.50257   0.00000  Uiso   1.00
H1137  H     0.73100   0.62819   0.90526   0.00000  Uiso   1.00
H1138  H     0.78091   0.60169   0.90234   0.00000  Uiso   1.00
H1139  H     0.76830   0.63422   0.95088   0.00000  Uiso   1.00
H1140  H     0.97643   0.49769   0.54475   0.00000  Uiso   1.00
H1141  H     0.98365   0.56557   0.58695   0.00000  Uiso   1.00
H1142  H     0.92906   0.57613   0.58137   0.00000  Uiso   1.00
H1143  H     0.96077   0.58183   0.53338   0.00000  Uiso   1.00
H1144  H     0.70497   0.55583   0.52661   0.00000  Uiso   1.00
I1145  I     0.93078   0.49828   0.86910   0.00000  Uiso   1.00
I1146  I     0.90180   0.60760   0.82303   0.00000  Uiso   1.00
I1147  I     0.89428   0.38915   0.83109   0.00000  Uiso   1.00
I1148  I     0.76743   0.60957   0.67430   0.00000  Uiso   1.00
I1149  I     0.73921   0.50179   0.61946   0.00000  Uiso   1.00
I1150  I     0.74317   0.49897   0.87199   0.00000  Uiso   1.00
I1151  I     0.92116   0.46481   0.63388   0.00000  Uiso   1.00
I1152  I     0.71623   0.39973   0.79447   0.00000  Uiso   1.00
I1153  I     0.95339   0.59641   0.70239   0.00000  Uiso   1.00
I1154  I     0.95664   0.39124   0.73078   0.00000  Uiso   1.00
I1155  I     0.70842   0.60397   0.78026   0.00000  Uiso   1.00
I1156  I     0.76611   0.39260   0.67525   0.00000  Uiso   1.00
N1157  N     0.83333   0.61736   0.75000   0.00000  Uiso   1.00
N1158  N     0.83333   0.38264   0.75000   0.00000  Uiso   1.00
N1159  N     0.73994   0.56970   0.94550   0.00000  Uiso   1.00
N1160  N     0.95001   0.51421   0.55402   0.00000  Uiso   1.00
N1161  N     0.73397   0.56343   0.53935   0.00000  Uiso   1.00
N1162  N     0.95251   0.48802   0.96402   0.00000  Uiso   1.00
O1163  O     0.77321   0.53958   0.75000   0.00000  Uiso   1.00
O1164  O     0.89345   0.46042   0.75001   0.00000  Uiso   1.00
O1165  O     0.89345   0.53958   0.75001   0.00000  Uiso   1.00
O1166  O     0.77321   0.46042   0.75000   0.00000  Uiso   1.00
O1167  O     0.83332   0.53960   0.68513   0.00000  Uiso   1.00
O1168  O     0.83334   0.46040   0.81487   0.00000  Uiso   1.00
O1169  O     0.83334   0.53960   0.81487   0.00000  Uiso   1.00
O1170  O     0.83332   0.46040   0.68513   0.00000  Uiso   1.00
C1171  C     0.08777   0.83349   0.75378   0.00000  Uiso   1.00
C1172  C     0.04288   0.83353   0.75784   0.00000  Uiso   1.00
C1173  C     0.14146   0.69166   0.72091   0.00000  Uiso   1.00
C1174  C     0.19193   0.97500   0.77890   0.00000  Uiso   1.00
C1175  C     0.19106   0.69063   0.77981   0.00000  Uiso   1.00
C1176  C     0.14141   0.97593   0.72101   0.00000  Uiso   1.00
C1177  C     0.16585   0.83356   0.66448   0.00000  Uiso   1.00
C1178  C     0.16860   0.83334   0.83546   0.00000  Uiso   1.00
C1179  C     0.20952   0.83365   0.90795   0.00000  Uiso   1.00
C1180  C     0.13112   0.84621   0.59015   0.00000  Uiso   1.00
C1181  C     0.17096   0.83450   0.88422   0.00000  Uiso   1.00
C1182  C     0.24566   0.83291   0.74656   0.00000  Uiso   1.00
C1183  C     0.16703   0.83507   0.61578   0.00000  Uiso   1.00
C1184  C     0.13460   0.84376   0.90608   0.00000  Uiso   1.00
C1185  C     0.20512   0.83023   0.59570   0.00000  Uiso   1.00
C1186  C     0.13639   0.85543   0.95123   0.00000  Uiso   1.00
C1187  C     0.20807   0.83861   0.54966   0.00000  Uiso   1.00
C1188  C     0.17313   0.84688   0.97667   0.00000  Uiso   1.00
C1189  C     0.17183   0.84745   0.52355   0.00000  Uiso   1.00
C1190  C     0.21057   0.83669   0.95539   0.00000  Uiso   1.00
C1191  C     0.13393   0.85575   0.54418   0.00000  Uiso   1.00
C1192  C     0.10261   0.87642   0.97159   0.00000  Uiso   1.00
C1193  C     0.10068   0.87506   0.51828   0.00000  Uiso   1.00
C1194  C     0.24626   0.83824   0.52884   0.00000  Uiso   1.00
C1195  C     0.08934   0.94383   0.92509   0.00000  Uiso   1.00
C1196  C     0.28940   0.89533   0.56432   0.00000  Uiso   1.00
C1197  C     0.07313   0.94443   0.55018   0.00000  Uiso   1.00
C1198  C     0.29732   0.77342   0.96728   0.00000  Uiso   1.00
C1199  C     0.24746   0.83251   0.98247   0.00000  Uiso   1.00
C1200  C     0.02192   0.79176   0.76115   0.00000  Uiso   1.00
C1201  C     0.31200   0.87304   0.73999   0.00000  Uiso   1.00
C1202  C     0.31327   0.79024   0.74999   0.00000  Uiso   1.00
C1203  C     0.02019   0.87456   0.75253   0.00000  Uiso   1.00
C1204  C     0.29072   0.83166   0.74344   0.00000  Uiso   1.00
Cu1205 Cu    0.16667   0.88022   0.75000   0.00000  Uiso   1.00
Cu1206 Cu    0.16667   0.78645   0.75000   0.00000  Uiso   1.00
H1207  H     0.04457   0.90790   0.95803   0.00000  Uiso   1.00
H1208  H     0.04918   0.95548   0.57324   0.00000  Uiso   1.00
H1209  H     0.07013   0.96590   0.51975   0.00000  Uiso   1.00
H1210  H     0.10390   0.94964   0.56670   0.00000  Uiso   1.00
H1211  H     0.30958   0.84335   0.97203   0.00000  Uiso   1.00
H1212  H     0.32629   0.76751   0.94969   0.00000  Uiso   1.00
H1213  H     0.27283   0.75204   0.95142   0.00000  Uiso   1.00
H1214  H     0.30228   0.76282   0.50257   0.00000  Uiso   1.00
H1215  H     0.06433   0.96152   0.90526   0.00000  Uiso   1.00
H1216  H     0.11424   0.93502   0.90234   0.00000  Uiso   1.00
H1217  H     0.10163   0.96756   0.95088   0.00000  Uiso   1.00
H1218  H     0.30977   0.83102   0.54475   0.00000  Uiso   1.00
H1219  H     0.31698   0.89890   0.58695   0.00000  Uiso   1.00
H1220  H     0.26239   0.90947   0.58137   0.00000  Uiso   1.00
H1221  H     0.29411   0.91517   0.53338   0.00000  Uiso   1.00
H1222  H     0.03831   0.88916   0.52661   0.00000  Uiso   1.00
I1223  I     0.26411   0.83161   0.86910   0.00000  Uiso   1.00
I1224  I     0.23513   0.94093   0.82303   0.00000  Uiso   1.00
I1225  I     0.22762   0.72248   0.83109   0.00000  Uiso   1.00
I1226  I     0.10076   0.94291   0.67430   0.00000  Uiso   1.00
I1227  I     0.07255   0.83512   0.61946   0.00000  Uiso   1.00
I1228  I     0.07651   0.83231   0.87199   0.00000  Uiso   1.00
I1229  I     0.25449   0.79814   0.63388   0.00000  Uiso   1.00
I1230  I     0.04956   0.73306   0.79447   0.00000  Uiso   1.00
I1231  I     0.28672   0.92974   0.70239   0.00000  Uiso   1.00
I1232  I     0.28998   0.72458   0.73078   0.00000  Uiso   1.00
I1233  I     0.04176   0.93730   0.78026   0.00000  Uiso   1.00
I1234  I     0.09944   0.72594   0.67525   0.00000  Uiso   1.00
N1235  N     0.16667   0.95069   0.75000   0.00000  Uiso   1.00
N1236  N     0.16667   0.71598   0.75000   0.00000  Uiso   1.00
N1237  N     0.07328   0.90303   0.94550   0.00000  Uiso   1.00
N1238  N     0.28335   0.84754   0.55402   0.00000  Uiso   1.00
N1239  N     0.06730   0.89676   0.53935   0.00000  Uiso   1.00
N1240  N     0.28584   0.82136   0.96402   0.00000  Uiso   1.00
O1241  O     0.10655   0.87291   0.75000   0.00000  Uiso   1.00
O1242  O     0.22679   0.79375   0.75001   0.00000  Uiso   1.00
O1243  O     0.22679   0.87291   0.75001   0.00000  Uiso   1.00
O1244  O     0.10655   0.79375   0.75000   0.00000  Uiso   1.00
O1245  O     0.16666   0.87293   0.68513   0.00000  Uiso   1.00
O1246  O     0.16668   0.79373   0.81487   0.00000  Uiso   1.00
O1247  O     0.16668   0.87293   0.81487   0.00000  Uiso   1.00
O1248  O     0.16666   0.79373   0.68513   0.00000  Uiso   1.00
C1249  C     0.42110   0.83349   0.75378   0.00000  Uiso   1.00
C1250  C     0.37622   0.83353   0.75784   0.00000  Uiso   1.00
C1251  C     0.47479   0.69166   0.72091   0.00000  Uiso   1.00
C1252  C     0.52526   0.97500   0.77890   0.00000  Uiso   1.00
C1253  C     0.52439   0.69063   0.77981   0.00000  Uiso   1.00
C1254  C     0.47474   0.97593   0.72101   0.00000  Uiso   1.00
C1255  C     0.49918   0.83356   0.66448   0.00000  Uiso   1.00
C1256  C     0.50193   0.83334   0.83546   0.00000  Uiso   1.00
C1257  C     0.54285   0.83365   0.90795   0.00000  Uiso   1.00
C1258  C     0.46445   0.84621   0.59015   0.00000  Uiso   1.00
C1259  C     0.50430   0.83450   0.88422   0.00000  Uiso   1.00
C1260  C     0.57900   0.83291   0.74656   0.00000  Uiso   1.00
C1261  C     0.50036   0.83507   0.61578   0.00000  Uiso   1.00
C1262  C     0.46793   0.84376   0.90608   0.00000  Uiso   1.00
C1263  C     0.53845   0.83023   0.59570   0.00000  Uiso   1.00
C1264  C     0.46973   0.85543   0.95123   0.00000  Uiso   1.00
C1265  C     0.54140   0.83861   0.54966   0.00000  Uiso   1.00
C1266  C     0.50646   0.84688   0.97667   0.00000  Uiso   1.00
C1267  C     0.50517   0.84745   0.52355   0.00000  Uiso   1.00
C1268  C     0.54390   0.83669   0.95539   0.00000  Uiso   1.00
C1269  C     0.46726   0.85575   0.54418   0.00000  Uiso   1.00
C1270  C     0.43594   0.87642   0.97159   0.00000  Uiso   1.00
C1271  C     0.43401   0.87506   0.51828   0.00000  Uiso   1.00
C1272  C     0.57960   0.83824   0.52884   0.00000  Uiso   1.00
C1273  C     0.42267   0.94383   0.92509   0.00000  Uiso   1.00
C1274  C     0.62273   0.89533   0.56432   0.00000  Uiso   1.00
C1275  C     0.40646   0.94443   0.55018   0.00000  Uiso   1.00
C1276  C     0.63065   0.77342   0.96728   0.00000  Uiso   1.00
C1277  C     0.58079   0.83251   0.98247   0.00000  Uiso   1.00
C1278  C     0.35525   0.79176   0.76115   0.00000  Uiso   1.00
C1279  C     0.64533   0.87304   0.73999   0.00000  Uiso   1.00
C1280  C     0.64660   0.79024   0.74999   0.00000  Uiso   1.00
C1281  C     0.35352   0.87456   0.75253   0.00000  Uiso   1.00
C1282  C     0.62405   0.83166   0.74344   0.00000  Uiso   1.00
Cu1283 Cu    0.50000   0.88022   0.75000   0.00000  Uiso   1.00
Cu1284 Cu    0.50000   0.78645   0.75000   0.00000  Uiso   1.00
H1285  H     0.37790   0.90790   0.95803   0.00000  Uiso   1.00
H1286  H     0.38252   0.95548   0.57324   0.00000  Uiso   1.00
H1287  H     0.40346   0.96590   0.51975   0.00000  Uiso   1.00
H1288  H     0.43724   0.94964   0.56670   0.00000  Uiso   1.00
H1289  H     0.64291   0.84335   0.97203   0.00000  Uiso   1.00
H1290  H     0.65962   0.76751   0.94969   0.00000  Uiso   1.00
H1291  H     0.60616   0.75204   0.95142   0.00000  Uiso   1.00
H1292  H     0.63562   0.76282   0.50257   0.00000  Uiso   1.00
H1293  H     0.39766   0.96152   0.90526   0.00000  Uiso   1.00
H1294  H     0.44757   0.93502   0.90234   0.00000  Uiso   1.00
H1295  H     0.43497   0.96756   0.95088   0.00000  Uiso   1.00
H1296  H     0.64310   0.83102   0.54475   0.00000  Uiso   1.00
H1297  H     0.65031   0.89890   0.58695   0.00000  Uiso   1.00
H1298  H     0.59573   0.90947   0.58137   0.00000  Uiso   1.00
H1299  H     0.62744   0.91517   0.53338   0.00000  Uiso   1.00
H1300  H     0.37164   0.88916   0.52661   0.00000  Uiso   1.00
I1301  I     0.59745   0.83161   0.86910   0.00000  Uiso   1.00
I1302  I     0.56847   0.94093   0.82303   0.00000  Uiso   1.00
I1303  I     0.56095   0.72248   0.83109   0.00000  Uiso   1.00
I1304  I     0.43410   0.94291   0.67430   0.00000  Uiso   1.00
I1305  I     0.40588   0.83512   0.61946   0.00000  Uiso   1.00
I1306  I     0.40984   0.83231   0.87199   0.00000  Uiso   1.00
I1307  I     0.58783   0.79814   0.63388   0.00000  Uiso   1.00
I1308  I     0.38289   0.73306   0.79447   0.00000  Uiso   1.00
I1309  I     0.62006   0.92974   0.70239   0.00000  Uiso   1.00
I1310  I     0.62331   0.72458   0.73078   0.00000  Uiso   1.00
I1311  I     0.37509   0.93730   0.78026   0.00000  Uiso   1.00
I1312  I     0.43278   0.72594   0.67525   0.00000  Uiso   1.00
N1313  N     0.50000   0.95069   0.75000   0.00000  Uiso   1.00
N1314  N     0.50000   0.71598   0.75000   0.00000  Uiso   1.00
N1315  N     0.40661   0.90303   0.94550   0.00000  Uiso   1.00
N1316  N     0.61668   0.84754   0.55402   0.00000  Uiso   1.00
N1317  N     0.40063   0.89676   0.53935   0.00000  Uiso   1.00
N1318  N     0.61917   0.82136   0.96402   0.00000  Uiso   1.00
O1319  O     0.43988   0.87291   0.75000   0.00000  Uiso   1.00
O1320  O     0.56012   0.79375   0.75001   0.00000  Uiso   1.00
O1321  O     0.56012   0.87291   0.75001   0.00000  Uiso   1.00
O1322  O     0.43988   0.79375   0.75000   0.00000  Uiso   1.00
O1323  O     0.49999   0.87293   0.68513   0.00000  Uiso   1.00
O1324  O     0.50001   0.79373   0.81487   0.00000  Uiso   1.00
O1325  O     0.50001   0.87293   0.81487   0.00000  Uiso   1.00
O1326  O     0.49999   0.79373   0.68513   0.00000  Uiso   1.00
C1327  C     0.75444   0.83349   0.75378   0.00000  Uiso   1.00
C1328  C     0.70955   0.83353   0.75784   0.00000  Uiso   1.00
C1329  C     0.80813   0.69166   0.72091   0.00000  Uiso   1.00
C1330  C     0.85859   0.97500   0.77890   0.00000  Uiso   1.00
C1331  C     0.85772   0.69063   0.77981   0.00000  Uiso   1.00
C1332  C     0.80807   0.97593   0.72101   0.00000  Uiso   1.00
C1333  C     0.83252   0.83356   0.66448   0.00000  Uiso   1.00
C1334  C     0.83527   0.83334   0.83546   0.00000  Uiso   1.00
C1335  C     0.87618   0.83365   0.90795   0.00000  Uiso   1.00
C1336  C     0.79779   0.84621   0.59015   0.00000  Uiso   1.00
C1337  C     0.83763   0.83450   0.88422   0.00000  Uiso   1.00
C1338  C     0.91233   0.83291   0.74656   0.00000  Uiso   1.00
C1339  C     0.83370   0.83507   0.61578   0.00000  Uiso   1.00
C1340  C     0.80126   0.84376   0.90608   0.00000  Uiso   1.00
C1341  C     0.87179   0.83023   0.59570   0.00000  Uiso   1.00
C1342  C     0.80306   0.85543   0.95123   0.00000  Uiso   1.00
C1343  C     0.87474   0.83861   0.54966   0.00000  Uiso   1.00
C1344  C     0.83980   0.84688   0.97667   0.00000  Uiso   1.00
C1345  C     0.83850   0.84745   0.52355   0.00000  Uiso   1.00
C1346  C     0.87724   0.83669   0.95539   0.00000  Uiso   1.00
C1347  C     0.80060   0.85575   0.54418   0.00000  Uiso   1.00
C1348  C     0.76927   0.87642   0.97159   0.00000  Uiso   1.00
C1349  C     0.76735   0.87506   0.51828   0.00000  Uiso   1.00
C1350  C     0.91293   0.83824   0.52884   0.00000  Uiso   1.00
C1351  C     0.75600   0.94383   0.92509   0.00000  Uiso   1.00
C1352  C     0.95607   0.89533   0.56432   0.00000  Uiso   1.00
C1353  C     0.73980   0.94443   0.55018   0.00000  Uiso   1.00
C1354  C     0.96398   0.77342   0.96728   0.00000  Uiso   1.00
C1355  C     0.91412   0.83251   0.98247   0.00000  Uiso   1.00
C1356  C     0.68858   0.79176   0.76115   0.00000  Uiso   1.00
C1357  C     0.97866   0.87304   0.73999   0.00000  Uiso   1.00
C1358  C     0.97994   0.79024   0.74999   0.00000  Uiso   1.00
C1359  C     0.68685   0.87456   0.75253   0.00000  Uiso   1.00
C1360  C     0.95739   0.83166   0.74344   0.00000  Uiso   1.00
Cu1361 Cu    0.83333   0.88022   0.75000   0.00000  Uiso   1.00
Cu1362 Cu    0.83333   0.78645   0.75000   0.00000  Uiso   1.00
H1363  H     0.71124   0.90790   0.95803   0.00000  Uiso   1.00
H1364  H     0.71585   0.95548   0.57324   0.00000  Uiso   1.00
H1365  H     0.73679   0.96590   0.51975   0.00000  Uiso   1.00
H1366  H     0.77057   0.94964   0.56670   0.00000  Uiso   1.00
H1367  H     0.97624   0.84335   0.97203   0.00000  Uiso   1.00
H1368  H     0.99295   0.76751   0.94969   0.00000  Uiso   1.00
H1369  H     0.93950   0.75204   0.95142   0.00000  Uiso   1.00
H1370  H     0.96895   0.76282   0.50257   0.00000  Uiso   1.00
H1371  H     0.73100   0.96152   0.90526   0.00000  Uiso   1.00
H1372  H     0.78091   0.93502   0.90234   0.00000  Uiso   1.00
H1373  H     0.76830   0.96756   0.95088   0.00000  Uiso   1.00
H1374  H     0.97643   0.83102   0.54475   0.00000  Uiso   1.00
H1375  H     0.98365   0.89890   0.58695   0.00000  Uiso   1.00
H1376  H     0.92906   0.90947   0.58137   0.00000  Uiso   1.00
H1377  H     0.96077   0.91517   0.53338   0.00000  Uiso   1.00
H1378  H     0.70497   0.88916   0.52661   0.00000  Uiso   1.00
I1379  I     0.93078   0.83161   0.86910   0.00000  Uiso   1.00
I1380  I     0.90180   0.94093   0.82303   0.00000  Uiso   1.00
I1381  I     0.89428   0.72248   0.83109   0.00000  Uiso   1.00
I1382  I     0.76743   0.94291   0.67430   0.00000  Uiso   1.00
I1383  I     0.73921   0.83512   0.61946   0.00000  Uiso   1.00
I1384  I     0.74317   0.83231   0.87199   0.00000  Uiso   1.00
I1385  I     0.92116   0.79814   0.63388   0.00000  Uiso   1.00
I1386  I     0.71623   0.73306   0.79447   0.00000  Uiso   1.00
I1387  I     0.95339   0.92974   0.70239   0.00000  Uiso   1.00
I1388  I     0.95664   0.72458   0.73078   0.00000  Uiso   1.00
I1389  I     0.70842   0.93730   0.78026   0.00000  Uiso   1.00
I1390  I     0.76611   0.72594   0.67525   0.00000  Uiso   1.00
N1391  N     0.83333   0.95069   0.75000   0.00000  Uiso   1.00
N1392  N     0.83333   0.71598   0.75000   0.00000  Uiso   1.00
N1393  N     0.73994   0.90303   0.94550   0.00000  Uiso   1.00
N1394  N     0.95001   0.84754   0.55402   0.00000  Uiso   1.00
N1395  N     0.73397   0.89676   0.53935   0.00000  Uiso   1.00
N1396  N     0.95251   0.82136   0.96402   0.00000  Uiso   1.00
O1397  O     0.77321   0.87291   0.75000   0.00000  Uiso   1.00
O1398  O     0.89345   0.79375   0.75001   0.00000  Uiso   1.00
O1399  O     0.89345   0.87291   0.75001   0.00000  Uiso   1.00
O1400  O     0.77321   0.79375   0.75000   0.00000  Uiso   1.00
O1401  O     0.83332   0.87293   0.68513   0.00000  Uiso   1.00
O1402  O     0.83334   0.79373   0.81487   0.00000  Uiso   1.00
O1403  O     0.83334   0.87293   0.81487   0.00000  Uiso   1.00
O1404  O     0.83332   0.79373   0.68513   0.00000  Uiso   1.00
loop_
_geom_bond_atom_site_label_1
_geom_bond_atom_site_label_2
_geom_bond_distance
_geom_bond_site_symmetry_2
_ccdc_geom_bond_type
C1     O71     1.316   .     A
C1     O74     1.314   .     A
C1     C2      1.468   .     S
C2     C33     1.406   .     A
C2     C30     1.409   .     A
C3     I64     2.137   .     S
C3     N66     1.381   .     A
C3     C474    1.434   1_545 S
C4     N65     1.378   .     A
C4     I54     2.130   .     S
C4     C239    1.432   .     S
C5     I55     2.135   .     S
C5     N66     1.381   .     A
C5     C472    1.432   1_545 S
C6     N65     1.380   .     A
C6     I56     2.133   .     S
C6     C237    1.434   .     S
C7     O75     1.312   .     A
C7     O78     1.316   .     A
C7     C13     1.469   .     S
C8     O76     1.318   .     A
C8     O77     1.310   .     A
C8     C11     1.468   .     S
C9     C20     1.431   .     A
C9     C11     1.417   .     A
C9     I53     2.163   .     S
C10    C21     1.417   .     A
C10    I57     2.155   .     S
C10    C13     1.408   .     A
C11    C14     1.400   .     A
C12    O72     1.310   .     A
C12    O73     1.322   .     A
C12    C34     1.470   .     S
C13    C15     1.405   .     A
C14    I58     2.143   .     S
C14    C16     1.403   .     A
C15    C17     1.414   .     A
C15    I59     2.142   .     S
C16    C22     1.415   .     A
C16    C18     1.412   .     A
C17    C24     1.412   .     A
C17    C19     1.410   .     A
C18    C20     1.426   .     A
C18    C721    1.415   .     S
C19    C21     1.420   .     A
C19    C720    1.415   1_554 S
C20    C29     1.426   .     A
C21    C23     1.418   .     A
C22    N67     1.431   .     S
C22    C725    1.411   .     S
C23    N69     1.423   .     S
C23    C724    1.411   1_554 S
C24    N68     1.427   .     S
C24    C731    1.410   1_554 S
C25    N67     1.450   .     S
C25    H47     1.110   .     S
C25    H45     1.111   .     S
C25    H46     1.110   .     S
C26    H50     1.111   .     S
C26    H49     1.110   .     S
C26    N68     1.447   .     S
C26    H51     1.111   .     S
C27    H38     1.110   .     S
C27    H39     1.108   .     S
C27    N69     1.446   .     S
C27    H40     1.111   .     S
C28    N70     1.448   .     S
C28    H43     1.111   .     S
C28    H42     1.110   .     S
C28    H746    1.111   .     S
C29    N70     1.421   .     S
C29    C726    1.410   .     S
C30    I60     2.153   .     S
C30    C188    1.393   1_455 S
C31    I61     2.140   .     S
C31    C34     1.405   .     A
C31    C111    1.387   .     S
C32    C34     1.417   .     A
C32    I62     2.145   .     S
C32    C108    1.393   .     S
C33    I63     2.133   .     S
C33    C187    1.387   1_455 S
Cu35   Cu36    2.741   .     S
Cu35   O75     1.967   .     S
Cu35   N65     2.060   .     S
Cu35   O71     1.967   .     S
Cu35   O73     1.962   .     S
Cu35   O77     1.964   .     S
Cu36   N66     2.060   .     S
Cu36   O76     1.967   .     S
Cu36   O74     1.962   .     S
Cu36   O78     1.964   .     S
Cu36   O72     1.967   .     S
H37    N67     1.028   .     S
H41    N70     1.031   .     S
H44    C730    1.111   1_554 S
H48    N68     1.029   .     S
H52    N69     1.030   .     S
C79    O149    1.316   .     A
C79    O152    1.314   .     A
C79    C80     1.468   .     S
C80    C111    1.406   .     A
C80    C108    1.409   .     A
C81    I142    2.137   .     S
C81    N144    1.381   .     A
C81    C552    1.434   1_545 S
C82    N143    1.378   .     A
C82    I132    2.130   .     S
C82    C317    1.432   .     S
C83    I133    2.135   .     S
C83    N144    1.381   .     A
C83    C550    1.432   1_545 S
C84    N143    1.380   .     A
C84    I134    2.133   .     S
C84    C315    1.434   .     S
C85    O153    1.312   .     A
C85    O156    1.316   .     A
C85    C91     1.469   .     S
C86    O154    1.318   .     A
C86    O155    1.310   .     A
C86    C89     1.468   .     S
C87    C98     1.431   .     A
C87    C89     1.417   .     A
C87    I131    2.163   .     S
C88    C99     1.417   .     A
C88    I135    2.155   .     S
C88    C91     1.408   .     A
C89    C92     1.400   .     A
C90    O150    1.310   .     A
C90    O151    1.322   .     A
C90    C112    1.470   .     S
C91    C93     1.405   .     A
C92    I136    2.143   .     S
C92    C94     1.403   .     A
C93    C95     1.414   .     A
C93    I137    2.142   .     S
C94    C100    1.415   .     A
C94    C96     1.412   .     A
C95    C102    1.412   .     A
C95    C97     1.410   .     A
C96    C98     1.426   .     A
C96    C799    1.415   .     S
C97    C99     1.420   .     A
C97    C798    1.415   1_554 S
C98    C107    1.426   .     A
C99    C101    1.418   .     A
C100   N145    1.431   .     S
C100   C803    1.411   .     S
C101   N147    1.423   .     S
C101   C802    1.411   1_554 S
C102   N146    1.427   .     S
C102   C809    1.410   1_554 S
C103   N145    1.450   .     S
C103   H125    1.110   .     S
C103   H123    1.111   .     S
C103   H124    1.110   .     S
C104   H128    1.111   .     S
C104   H127    1.110   .     S
C104   N146    1.447   .     S
C104   H129    1.111   .     S
C105   H116    1.110   .     S
C105   H117    1.108   .     S
C105   N147    1.446   .     S
C105   H118    1.111   .     S
C106   N148    1.448   .     S
C106   H121    1.111   .     S
C106   H120    1.110   .     S
C106   H824    1.111   .     S
C107   N148    1.421   .     S
C107   C804    1.410   .     S
C108   I138    2.153   .     S
C109   I139    2.140   .     S
C109   C112    1.405   .     A
C109   C189    1.387   .     S
C110   C112    1.417   .     A
C110   I140    2.145   .     S
C110   C186    1.393   .     S
C111   I141    2.133   .     S
Cu113  Cu114   2.741   .     S
Cu113  O153    1.967   .     S
Cu113  N143    2.060   .     S
Cu113  O149    1.967   .     S
Cu113  O151    1.962   .     S
Cu113  O155    1.964   .     S
Cu114  N144    2.060   .     S
Cu114  O154    1.967   .     S
Cu114  O152    1.962   .     S
Cu114  O156    1.964   .     S
Cu114  O150    1.967   .     S
H115   N145    1.028   .     S
H119   N148    1.031   .     S
H122   C808    1.111   1_554 S
H126   N146    1.029   .     S
H130   N147    1.030   .     S
C157   O227    1.316   .     A
C157   O230    1.314   .     A
C157   C158    1.468   .     S
C158   C189    1.406   .     A
C158   C186    1.409   .     A
C159   I220    2.137   .     S
C159   N222    1.381   .     A
C159   C630    1.434   1_545 S
C160   N221    1.378   .     A
C160   I210    2.130   .     S
C160   C395    1.432   .     S
C161   I211    2.135   .     S
C161   N222    1.381   .     A
C161   C628    1.432   1_545 S
C162   N221    1.380   .     A
C162   I212    2.133   .     S
C162   C393    1.434   .     S
C163   O231    1.312   .     A
C163   O234    1.316   .     A
C163   C169    1.469   .     S
C164   O232    1.318   .     A
C164   O233    1.310   .     A
C164   C167    1.468   .     S
C165   C176    1.431   .     A
C165   C167    1.417   .     A
C165   I209    2.163   .     S
C166   C177    1.417   .     A
C166   I213    2.155   .     S
C166   C169    1.408   .     A
C167   C170    1.400   .     A
C168   O228    1.310   .     A
C168   O229    1.322   .     A
C168   C190    1.470   .     S
C169   C171    1.405   .     A
C170   I214    2.143   .     S
C170   C172    1.403   .     A
C171   C173    1.414   .     A
C171   I215    2.142   .     S
C172   C178    1.415   .     A
C172   C174    1.412   .     A
C173   C180    1.412   .     A
C173   C175    1.410   .     A
C174   C176    1.426   .     A
C174   C877    1.415   .     S
C175   C177    1.420   .     A
C175   C876    1.415   1_554 S
C176   C185    1.426   .     A
C177   C179    1.418   .     A
C178   N223    1.431   .     S
C178   C881    1.411   .     S
C179   N225    1.423   .     S
C179   C880    1.411   1_554 S
C180   N224    1.427   .     S
C180   C887    1.410   1_554 S
C181   N223    1.450   .     S
C181   H203    1.110   .     S
C181   H201    1.111   .     S
C181   H202    1.110   .     S
C182   H206    1.111   .     S
C182   H205    1.110   .     S
C182   N224    1.447   .     S
C182   H207    1.111   .     S
C183   H194    1.110   .     S
C183   H195    1.108   .     S
C183   N225    1.446   .     S
C183   H196    1.111   .     S
C184   N226    1.448   .     S
C184   H199    1.111   .     S
C184   H198    1.110   .     S
C184   H902    1.111   .     S
C185   N226    1.421   .     S
C185   C882    1.410   .     S
C186   I216    2.153   .     S
C187   I217    2.140   .     S
C187   C190    1.405   .     A
C187   C33     1.387   1_655 S
C188   C190    1.417   .     A
C188   I218    2.145   .     S
C188   C30     1.393   1_655 S
C189   I219    2.133   .     S
Cu191  Cu192   2.741   .     S
Cu191  O231    1.967   .     S
Cu191  N221    2.060   .     S
Cu191  O227    1.967   .     S
Cu191  O229    1.962   .     S
Cu191  O233    1.964   .     S
Cu192  N222    2.060   .     S
Cu192  O232    1.967   .     S
Cu192  O230    1.962   .     S
Cu192  O234    1.964   .     S
Cu192  O228    1.967   .     S
H193   N223    1.028   .     S
H197   N226    1.031   .     S
H200   C886    1.111   1_554 S
H204   N224    1.029   .     S
H208   N225    1.030   .     S
C235   O305    1.316   .     A
C235   O308    1.314   .     A
C235   C236    1.468   .     S
C236   C267    1.406   .     A
C236   C264    1.409   .     A
C237   I298    2.137   .     S
C237   N300    1.381   .     A
C238   N299    1.378   .     A
C238   I288    2.130   .     S
C238   C473    1.432   .     S
C239   I289    2.135   .     S
C239   N300    1.381   .     A
C240   N299    1.380   .     A
C240   I290    2.133   .     S
C240   C471    1.434   .     S
C241   O309    1.312   .     A
C241   O312    1.316   .     A
C241   C247    1.469   .     S
C242   O310    1.318   .     A
C242   O311    1.310   .     A
C242   C245    1.468   .     S
C243   C254    1.431   .     A
C243   C245    1.417   .     A
C243   I287    2.163   .     S
C244   C255    1.417   .     A
C244   I291    2.155   .     S
C244   C247    1.408   .     A
C245   C248    1.400   .     A
C246   O306    1.310   .     A
C246   O307    1.322   .     A
C246   C268    1.470   .     S
C247   C249    1.405   .     A
C248   I292    2.143   .     S
C248   C250    1.403   .     A
C249   C251    1.414   .     A
C249   I293    2.142   .     S
C250   C256    1.415   .     A
C250   C252    1.412   .     A
C251   C258    1.412   .     A
C251   C253    1.410   .     A
C252   C254    1.426   .     A
C252   C955    1.415   .     S
C253   C255    1.420   .     A
C253   C954    1.415   1_554 S
C254   C263    1.426   .     A
C255   C257    1.418   .     A
C256   N301    1.431   .     S
C256   C959    1.411   .     S
C257   N303    1.423   .     S
C257   C958    1.411   1_554 S
C258   N302    1.427   .     S
C258   C965    1.410   1_554 S
C259   N301    1.450   .     S
C259   H281    1.110   .     S
C259   H279    1.111   .     S
C259   H280    1.110   .     S
C260   H284    1.111   .     S
C260   H283    1.110   .     S
C260   N302    1.447   .     S
C260   H285    1.111   .     S
C261   H272    1.110   .     S
C261   H273    1.108   .     S
C261   N303    1.446   .     S
C261   H274    1.111   .     S
C262   N304    1.448   .     S
C262   H277    1.111   .     S
C262   H276    1.110   .     S
C262   H980    1.111   .     S
C263   N304    1.421   .     S
C263   C960    1.410   .     S
C264   I294    2.153   .     S
C264   C422    1.393   1_455 S
C265   I295    2.140   .     S
C265   C268    1.405   .     A
C265   C345    1.387   .     S
C266   C268    1.417   .     A
C266   I296    2.145   .     S
C266   C342    1.393   .     S
C267   I297    2.133   .     S
C267   C421    1.387   1_455 S
Cu269  Cu270   2.741   .     S
Cu269  O309    1.967   .     S
Cu269  N299    2.060   .     S
Cu269  O305    1.967   .     S
Cu269  O307    1.962   .     S
Cu269  O311    1.964   .     S
Cu270  N300    2.060   .     S
Cu270  O310    1.967   .     S
Cu270  O308    1.962   .     S
Cu270  O312    1.964   .     S
Cu270  O306    1.967   .     S
H271   N301    1.028   .     S
H275   N304    1.031   .     S
H278   C964    1.111   1_554 S
H282   N302    1.029   .     S
H286   N303    1.030   .     S
C313   O383    1.316   .     A
C313   O386    1.314   .     A
C313   C314    1.468   .     S
C314   C345    1.406   .     A
C314   C342    1.409   .     A
C315   I376    2.137   .     S
C315   N378    1.381   .     A
C316   N377    1.378   .     A
C316   I366    2.130   .     S
C316   C551    1.432   .     S
C317   I367    2.135   .     S
C317   N378    1.381   .     A
C318   N377    1.380   .     A
C318   I368    2.133   .     S
C318   C549    1.434   .     S
C319   O387    1.312   .     A
C319   O390    1.316   .     A
C319   C325    1.469   .     S
C320   O388    1.318   .     A
C320   O389    1.310   .     A
C320   C323    1.468   .     S
C321   C332    1.431   .     A
C321   C323    1.417   .     A
C321   I365    2.163   .     S
C322   C333    1.417   .     A
C322   I369    2.155   .     S
C322   C325    1.408   .     A
C323   C326    1.400   .     A
C324   O384    1.310   .     A
C324   O385    1.322   .     A
C324   C346    1.470   .     S
C325   C327    1.405   .     A
C326   I370    2.143   .     S
C326   C328    1.403   .     A
C327   C329    1.414   .     A
C327   I371    2.142   .     S
C328   C334    1.415   .     A
C328   C330    1.412   .     A
C329   C336    1.412   .     A
C329   C331    1.410   .     A
C330   C332    1.426   .     A
C330   C1033   1.415   .     S
C331   C333    1.420   .     A
C331   C1032   1.415   1_554 S
C332   C341    1.426   .     A
C333   C335    1.418   .     A
C334   N379    1.431   .     S
C334   C1037   1.411   .     S
C335   N381    1.423   .     S
C335   C1036   1.411   1_554 S
C336   N380    1.427   .     S
C336   C1043   1.410   1_554 S
C337   N379    1.450   .     S
C337   H359    1.110   .     S
C337   H357    1.111   .     S
C337   H358    1.110   .     S
C338   H362    1.111   .     S
C338   H361    1.110   .     S
C338   N380    1.447   .     S
C338   H363    1.111   .     S
C339   H350    1.110   .     S
C339   H351    1.108   .     S
C339   N381    1.446   .     S
C339   H352    1.111   .     S
C340   N382    1.448   .     S
C340   H355    1.111   .     S
C340   H354    1.110   .     S
C340   H1058   1.111   .     S
C341   N382    1.421   .     S
C341   C1038   1.410   .     S
C342   I372    2.153   .     S
C343   I373    2.140   .     S
C343   C346    1.405   .     A
C343   C423    1.387   .     S
C344   C346    1.417   .     A
C344   I374    2.145   .     S
C344   C420    1.393   .     S
C345   I375    2.133   .     S
Cu347  Cu348   2.741   .     S
Cu347  O387    1.967   .     S
Cu347  N377    2.060   .     S
Cu347  O383    1.967   .     S
Cu347  O385    1.962   .     S
Cu347  O389    1.964   .     S
Cu348  N378    2.060   .     S
Cu348  O388    1.967   .     S
Cu348  O386    1.962   .     S
Cu348  O390    1.964   .     S
Cu348  O384    1.967   .     S
H349   N379    1.028   .     S
H353   N382    1.031   .     S
H356   C1042   1.111   1_554 S
H360   N380    1.029   .     S
H364   N381    1.030   .     S
C391   O461    1.316   .     A
C391   O464    1.314   .     A
C391   C392    1.468   .     S
C392   C423    1.406   .     A
C392   C420    1.409   .     A
C393   I454    2.137   .     S
C393   N456    1.381   .     A
C394   N455    1.378   .     A
C394   I444    2.130   .     S
C394   C629    1.432   .     S
C395   I445    2.135   .     S
C395   N456    1.381   .     A
C396   N455    1.380   .     A
C396   I446    2.133   .     S
C396   C627    1.434   .     S
C397   O465    1.312   .     A
C397   O468    1.316   .     A
C397   C403    1.469   .     S
C398   O466    1.318   .     A
C398   O467    1.310   .     A
C398   C401    1.468   .     S
C399   C410    1.431   .     A
C399   C401    1.417   .     A
C399   I443    2.163   .     S
C400   C411    1.417   .     A
C400   I447    2.155   .     S
C400   C403    1.408   .     A
C401   C404    1.400   .     A
C402   O462    1.310   .     A
C402   O463    1.322   .     A
C402   C424    1.470   .     S
C403   C405    1.405   .     A
C404   I448    2.143   .     S
C404   C406    1.403   .     A
C405   C407    1.414   .     A
C405   I449    2.142   .     S
C406   C412    1.415   .     A
C406   C408    1.412   .     A
C407   C414    1.412   .     A
C407   C409    1.410   .     A
C408   C410    1.426   .     A
C408   C1111   1.415   .     S
C409   C411    1.420   .     A
C409   C1110   1.415   1_554 S
C410   C419    1.426   .     A
C411   C413    1.418   .     A
C412   N457    1.431   .     S
C412   C1115   1.411   .     S
C413   N459    1.423   .     S
C413   C1114   1.411   1_554 S
C414   N458    1.427   .     S
C414   C1121   1.410   1_554 S
C415   N457    1.450   .     S
C415   H437    1.110   .     S
C415   H435    1.111   .     S
C415   H436    1.110   .     S
C416   H440    1.111   .     S
C416   H439    1.110   .     S
C416   N458    1.447   .     S
C416   H441    1.111   .     S
C417   H428    1.110   .     S
C417   H429    1.108   .     S
C417   N459    1.446   .     S
C417   H430    1.111   .     S
C418   N460    1.448   .     S
C418   H433    1.111   .     S
C418   H432    1.110   .     S
C418   H1136   1.111   .     S
C419   N460    1.421   .     S
C419   C1116   1.410   .     S
C420   I450    2.153   .     S
C421   I451    2.140   .     S
C421   C424    1.405   .     A
C421   C267    1.387   1_655 S
C422   C424    1.417   .     A
C422   I452    2.145   .     S
C422   C264    1.393   1_655 S
C423   I453    2.133   .     S
Cu425  Cu426   2.741   .     S
Cu425  O465    1.967   .     S
Cu425  N455    2.060   .     S
Cu425  O461    1.967   .     S
Cu425  O463    1.962   .     S
Cu425  O467    1.964   .     S
Cu426  N456    2.060   .     S
Cu426  O466    1.967   .     S
Cu426  O464    1.962   .     S
Cu426  O468    1.964   .     S
Cu426  O462    1.967   .     S
H427   N457    1.028   .     S
H431   N460    1.031   .     S
H434   C1120   1.111   1_554 S
H438   N458    1.029   .     S
H442   N459    1.030   .     S
C469   O539    1.316   .     A
C469   O542    1.314   .     A
C469   C470    1.468   .     S
C470   C501    1.406   .     A
C470   C498    1.409   .     A
C471   I532    2.137   .     S
C471   N534    1.381   .     A
C472   N533    1.378   .     A
C472   I522    2.130   .     S
C472   C5      1.432   1_565 S
C473   I523    2.135   .     S
C473   N534    1.381   .     A
C474   N533    1.380   .     A
C474   I524    2.133   .     S
C474   C3      1.434   1_565 S
C475   O543    1.312   .     A
C475   O546    1.316   .     A
C475   C481    1.469   .     S
C476   O544    1.318   .     A
C476   O545    1.310   .     A
C476   C479    1.468   .     S
C477   C488    1.431   .     A
C477   C479    1.417   .     A
C477   I521    2.163   .     S
C478   C489    1.417   .     A
C478   I525    2.155   .     S
C478   C481    1.408   .     A
C479   C482    1.400   .     A
C480   O540    1.310   .     A
C480   O541    1.322   .     A
C480   C502    1.470   .     S
C481   C483    1.405   .     A
C482   I526    2.143   .     S
C482   C484    1.403   .     A
C483   C485    1.414   .     A
C483   I527    2.142   .     S
C484   C490    1.415   .     A
C484   C486    1.412   .     A
C485   C492    1.412   .     A
C485   C487    1.410   .     A
C486   C488    1.426   .     A
C486   C1189   1.415   .     S
C487   C489    1.420   .     A
C487   C1188   1.415   1_554 S
C488   C497    1.426   .     A
C489   C491    1.418   .     A
C490   N535    1.431   .     S
C490   C1193   1.411   .     S
C491   N537    1.423   .     S
C491   C1192   1.411   1_554 S
C492   N536    1.427   .     S
C492   C1199   1.410   1_554 S
C493   N535    1.450   .     S
C493   H515    1.110   .     S
C493   H513    1.111   .     S
C493   H514    1.110   .     S
C494   H518    1.111   .     S
C494   H517    1.110   .     S
C494   N536    1.447   .     S
C494   H519    1.111   .     S
C495   H506    1.110   .     S
C495   H507    1.108   .     S
C495   N537    1.446   .     S
C495   H508    1.111   .     S
C496   N538    1.448   .     S
C496   H511    1.111   .     S
C496   H510    1.110   .     S
C496   H1214   1.111   .     S
C497   N538    1.421   .     S
C497   C1194   1.410   .     S
C498   I528    2.153   .     S
C498   C656    1.393   1_455 S
C499   I529    2.140   .     S
C499   C502    1.405   .     A
C499   C579    1.387   .     S
C500   C502    1.417   .     A
C500   I530    2.145   .     S
C500   C576    1.393   .     S
C501   I531    2.133   .     S
C501   C655    1.387   1_455 S
Cu503  Cu504   2.741   .     S
Cu503  O543    1.967   .     S
Cu503  N533    2.060   .     S
Cu503  O539    1.967   .     S
Cu503  O541    1.962   .     S
Cu503  O545    1.964   .     S
Cu504  N534    2.060   .     S
Cu504  O544    1.967   .     S
Cu504  O542    1.962   .     S
Cu504  O546    1.964   .     S
Cu504  O540    1.967   .     S
H505   N535    1.028   .     S
H509   N538    1.031   .     S
H512   C1198   1.111   1_554 S
H516   N536    1.029   .     S
H520   N537    1.030   .     S
C547   O617    1.316   .     A
C547   O620    1.314   .     A
C547   C548    1.468   .     S
C548   C579    1.406   .     A
C548   C576    1.409   .     A
C549   I610    2.137   .     S
C549   N612    1.381   .     A
C550   N611    1.378   .     A
C550   I600    2.130   .     S
C550   C83     1.432   1_565 S
C551   I601    2.135   .     S
C551   N612    1.381   .     A
C552   N611    1.380   .     A
C552   I602    2.133   .     S
C552   C81     1.434   1_565 S
C553   O621    1.312   .     A
C553   O624    1.316   .     A
C553   C559    1.469   .     S
C554   O622    1.318   .     A
C554   O623    1.310   .     A
C554   C557    1.468   .     S
C555   C566    1.431   .     A
C555   C557    1.417   .     A
C555   I599    2.163   .     S
C556   C567    1.417   .     A
C556   I603    2.155   .     S
C556   C559    1.408   .     A
C557   C560    1.400   .     A
C558   O618    1.310   .     A
C558   O619    1.322   .     A
C558   C580    1.470   .     S
C559   C561    1.405   .     A
C560   I604    2.143   .     S
C560   C562    1.403   .     A
C561   C563    1.414   .     A
C561   I605    2.142   .     S
C562   C568    1.415   .     A
C562   C564    1.412   .     A
C563   C570    1.412   .     A
C563   C565    1.410   .     A
C564   C566    1.426   .     A
C564   C1267   1.415   .     S
C565   C567    1.420   .     A
C565   C1266   1.415   1_554 S
C566   C575    1.426   .     A
C567   C569    1.418   .     A
C568   N613    1.431   .     S
C568   C1271   1.411   .     S
C569   N615    1.423   .     S
C569   C1270   1.411   1_554 S
C570   N614    1.427   .     S
C570   C1277   1.410   1_554 S
C571   N613    1.450   .     S
C571   H593    1.110   .     S
C571   H591    1.111   .     S
C571   H592    1.110   .     S
C572   H596    1.111   .     S
C572   H595    1.110   .     S
C572   N614    1.447   .     S
C572   H597    1.111   .     S
C573   H584    1.110   .     S
C573   H585    1.108   .     S
C573   N615    1.446   .     S
C573   H586    1.111   .     S
C574   N616    1.448   .     S
C574   H589    1.111   .     S
C574   H588    1.110   .     S
C574   H1292   1.111   .     S
C575   N616    1.421   .     S
C575   C1272   1.410   .     S
C576   I606    2.153   .     S
C577   I607    2.140   .     S
C577   C580    1.405   .     A
C577   C657    1.387   .     S
C578   C580    1.417   .     A
C578   I608    2.145   .     S
C578   C654    1.393   .     S
C579   I609    2.133   .     S
Cu581  Cu582   2.741   .     S
Cu581  O621    1.967   .     S
Cu581  N611    2.060   .     S
Cu581  O617    1.967   .     S
Cu581  O619    1.962   .     S
Cu581  O623    1.964   .     S
Cu582  N612    2.060   .     S
Cu582  O622    1.967   .     S
Cu582  O620    1.962   .     S
Cu582  O624    1.964   .     S
Cu582  O618    1.967   .     S
H583   N613    1.028   .     S
H587   N616    1.031   .     S
H590   C1276   1.111   1_554 S
H594   N614    1.029   .     S
H598   N615    1.030   .     S
C625   O695    1.316   .     A
C625   O698    1.314   .     A
C625   C626    1.468   .     S
C626   C657    1.406   .     A
C626   C654    1.409   .     A
C627   I688    2.137   .     S
C627   N690    1.381   .     A
C628   N689    1.378   .     A
C628   I678    2.130   .     S
C628   C161    1.432   1_565 S
C629   I679    2.135   .     S
C629   N690    1.381   .     A
C630   N689    1.380   .     A
C630   I680    2.133   .     S
C630   C159    1.434   1_565 S
C631   O699    1.312   .     A
C631   O702    1.316   .     A
C631   C637    1.469   .     S
C632   O700    1.318   .     A
C632   O701    1.310   .     A
C632   C635    1.468   .     S
C633   C644    1.431   .     A
C633   C635    1.417   .     A
C633   I677    2.163   .     S
C634   C645    1.417   .     A
C634   I681    2.155   .     S
C634   C637    1.408   .     A
C635   C638    1.400   .     A
C636   O696    1.310   .     A
C636   O697    1.322   .     A
C636   C658    1.470   .     S
C637   C639    1.405   .     A
C638   I682    2.143   .     S
C638   C640    1.403   .     A
C639   C641    1.414   .     A
C639   I683    2.142   .     S
C640   C646    1.415   .     A
C640   C642    1.412   .     A
C641   C648    1.412   .     A
C641   C643    1.410   .     A
C642   C644    1.426   .     A
C642   C1345   1.415   .     S
C643   C645    1.420   .     A
C643   C1344   1.415   1_554 S
C644   C653    1.426   .     A
C645   C647    1.418   .     A
C646   N691    1.431   .     S
C646   C1349   1.411   .     S
C647   N693    1.423   .     S
C647   C1348   1.411   1_554 S
C648   N692    1.427   .     S
C648   C1355   1.410   1_554 S
C649   N691    1.450   .     S
C649   H671    1.110   .     S
C649   H669    1.111   .     S
C649   H670    1.110   .     S
C650   H674    1.111   .     S
C650   H673    1.110   .     S
C650   N692    1.447   .     S
C650   H675    1.111   .     S
C651   H662    1.110   .     S
C651   H663    1.108   .     S
C651   N693    1.446   .     S
C651   H664    1.111   .     S
C652   N694    1.448   .     S
C652   H667    1.111   .     S
C652   H666    1.110   .     S
C652   H1370   1.111   .     S
C653   N694    1.421   .     S
C653   C1350   1.410   .     S
C654   I684    2.153   .     S
C655   I685    2.140   .     S
C655   C658    1.405   .     A
C655   C501    1.387   1_655 S
C656   C658    1.417   .     A
C656   I686    2.145   .     S
C656   C498    1.393   1_655 S
C657   I687    2.133   .     S
Cu659  Cu660   2.741   .     S
Cu659  O699    1.967   .     S
Cu659  N689    2.060   .     S
Cu659  O695    1.967   .     S
Cu659  O697    1.962   .     S
Cu659  O701    1.964   .     S
Cu660  N690    2.060   .     S
Cu660  O700    1.967   .     S
Cu660  O698    1.962   .     S
Cu660  O702    1.964   .     S
Cu660  O696    1.967   .     S
H661   N691    1.028   .     S
H665   N694    1.031   .     S
H668   C1354   1.111   1_554 S
H672   N692    1.029   .     S
H676   N693    1.030   .     S
C703   O773    1.316   .     A
C703   O776    1.314   .     A
C703   C704    1.468   .     S
C704   C735    1.406   .     A
C704   C732    1.409   .     A
C705   I766    2.137   .     S
C705   N768    1.381   .     A
C705   C1176   1.434   1_545 S
C706   N767    1.378   .     A
C706   I756    2.130   .     S
C706   C941    1.432   .     S
C707   I757    2.135   .     S
C707   N768    1.381   .     A
C707   C1174   1.432   1_545 S
C708   N767    1.380   .     A
C708   I758    2.133   .     S
C708   C939    1.434   .     S
C709   O777    1.312   .     A
C709   O780    1.316   .     A
C709   C715    1.469   .     S
C710   O778    1.318   .     A
C710   O779    1.310   .     A
C710   C713    1.468   .     S
C711   C722    1.431   .     A
C711   C713    1.417   .     A
C711   I755    2.163   .     S
C712   C723    1.417   .     A
C712   I759    2.155   .     S
C712   C715    1.408   .     A
C713   C716    1.400   .     A
C714   O774    1.310   .     A
C714   O775    1.322   .     A
C714   C736    1.470   .     S
C715   C717    1.405   .     A
C716   I760    2.143   .     S
C716   C718    1.403   .     A
C717   C719    1.414   .     A
C717   I761    2.142   .     S
C718   C724    1.415   .     A
C718   C720    1.412   .     A
C719   C726    1.412   .     A
C719   C721    1.410   .     A
C720   C722    1.426   .     A
C720   C19     1.415   1_556 S
C721   C723    1.420   .     A
C722   C731    1.426   .     A
C723   C725    1.418   .     A
C724   N769    1.431   .     S
C724   C23     1.411   1_556 S
C725   N771    1.423   .     S
C726   N770    1.427   .     S
C727   N769    1.450   .     S
C727   H749    1.110   .     S
C727   H747    1.111   .     S
C727   H748    1.110   .     S
C728   H752    1.111   .     S
C728   H751    1.110   .     S
C728   N770    1.447   .     S
C728   H753    1.111   .     S
C729   H740    1.110   .     S
C729   H741    1.108   .     S
C729   N771    1.446   .     S
C729   H742    1.111   .     S
C730   N772    1.448   .     S
C730   H745    1.111   .     S
C730   H744    1.110   .     S
C730   H44     1.111   1_556 S
C731   N772    1.421   .     S
C731   C24     1.410   1_556 S
C732   I762    2.153   .     S
C732   C890    1.393   1_455 S
C733   I763    2.140   .     S
C733   C736    1.405   .     A
C733   C813    1.387   .     S
C734   C736    1.417   .     A
C734   I764    2.145   .     S
C734   C810    1.393   .     S
C735   I765    2.133   .     S
C735   C889    1.387   1_455 S
Cu737  Cu738   2.741   .     S
Cu737  O777    1.967   .     S
Cu737  N767    2.060   .     S
Cu737  O773    1.967   .     S
Cu737  O775    1.962   .     S
Cu737  O779    1.964   .     S
Cu738  N768    2.060   .     S
Cu738  O778    1.967   .     S
Cu738  O776    1.962   .     S
Cu738  O780    1.964   .     S
Cu738  O774    1.967   .     S
H739   N769    1.028   .     S
H743   N772    1.031   .     S
H750   N770    1.029   .     S
H754   N771    1.030   .     S
C781   O851    1.316   .     A
C781   O854    1.314   .     A
C781   C782    1.468   .     S
C782   C813    1.406   .     A
C782   C810    1.409   .     A
C783   I844    2.137   .     S
C783   N846    1.381   .     A
C783   C1254   1.434   1_545 S
C784   N845    1.378   .     A
C784   I834    2.130   .     S
C784   C1019   1.432   .     S
C785   I835    2.135   .     S
C785   N846    1.381   .     A
C785   C1252   1.432   1_545 S
C786   N845    1.380   .     A
C786   I836    2.133   .     S
C786   C1017   1.434   .     S
C787   O855    1.312   .     A
C787   O858    1.316   .     A
C787   C793    1.469   .     S
C788   O856    1.318   .     A
C788   O857    1.310   .     A
C788   C791    1.468   .     S
C789   C800    1.431   .     A
C789   C791    1.417   .     A
C789   I833    2.163   .     S
C790   C801    1.417   .     A
C790   I837    2.155   .     S
C790   C793    1.408   .     A
C791   C794    1.400   .     A
C792   O852    1.310   .     A
C792   O853    1.322   .     A
C792   C814    1.470   .     S
C793   C795    1.405   .     A
C794   I838    2.143   .     S
C794   C796    1.403   .     A
C795   C797    1.414   .     A
C795   I839    2.142   .     S
C796   C802    1.415   .     A
C796   C798    1.412   .     A
C797   C804    1.412   .     A
C797   C799    1.410   .     A
C798   C800    1.426   .     A
C798   C97     1.415   1_556 S
C799   C801    1.420   .     A
C800   C809    1.426   .     A
C801   C803    1.418   .     A
C802   N847    1.431   .     S
C802   C101    1.411   1_556 S
C803   N849    1.423   .     S
C804   N848    1.427   .     S
C805   N847    1.450   .     S
C805   H827    1.110   .     S
C805   H825    1.111   .     S
C805   H826    1.110   .     S
C806   H830    1.111   .     S
C806   H829    1.110   .     S
C806   N848    1.447   .     S
C806   H831    1.111   .     S
C807   H818    1.110   .     S
C807   H819    1.108   .     S
C807   N849    1.446   .     S
C807   H820    1.111   .     S
C808   N850    1.448   .     S
C808   H823    1.111   .     S
C808   H822    1.110   .     S
C808   H122    1.111   1_556 S
C809   N850    1.421   .     S
C809   C102    1.410   1_556 S
C810   I840    2.153   .     S
C811   I841    2.140   .     S
C811   C814    1.405   .     A
C811   C891    1.387   .     S
C812   C814    1.417   .     A
C812   I842    2.145   .     S
C812   C888    1.393   .     S
C813   I843    2.133   .     S
Cu815  Cu816   2.741   .     S
Cu815  O855    1.967   .     S
Cu815  N845    2.060   .     S
Cu815  O851    1.967   .     S
Cu815  O853    1.962   .     S
Cu815  O857    1.964   .     S
Cu816  N846    2.060   .     S
Cu816  O856    1.967   .     S
Cu816  O854    1.962   .     S
Cu816  O858    1.964   .     S
Cu816  O852    1.967   .     S
H817   N847    1.028   .     S
H821   N850    1.031   .     S
H828   N848    1.029   .     S
H832   N849    1.030   .     S
C859   O929    1.316   .     A
C859   O932    1.314   .     A
C859   C860    1.468   .     S
C860   C891    1.406   .     A
C860   C888    1.409   .     A
C861   I922    2.137   .     S
C861   N924    1.381   .     A
C861   C1332   1.434   1_545 S
C862   N923    1.378   .     A
C862   I912    2.130   .     S
C862   C1097   1.432   .     S
C863   I913    2.135   .     S
C863   N924    1.381   .     A
C863   C1330   1.432   1_545 S
C864   N923    1.380   .     A
C864   I914    2.133   .     S
C864   C1095   1.434   .     S
C865   O933    1.312   .     A
C865   O936    1.316   .     A
C865   C871    1.469   .     S
C866   O934    1.318   .     A
C866   O935    1.310   .     A
C866   C869    1.468   .     S
C867   C878    1.431   .     A
C867   C869    1.417   .     A
C867   I911    2.163   .     S
C868   C879    1.417   .     A
C868   I915    2.155   .     S
C868   C871    1.408   .     A
C869   C872    1.400   .     A
C870   O930    1.310   .     A
C870   O931    1.322   .     A
C870   C892    1.470   .     S
C871   C873    1.405   .     A
C872   I916    2.143   .     S
C872   C874    1.403   .     A
C873   C875    1.414   .     A
C873   I917    2.142   .     S
C874   C880    1.415   .     A
C874   C876    1.412   .     A
C875   C882    1.412   .     A
C875   C877    1.410   .     A
C876   C878    1.426   .     A
C876   C175    1.415   1_556 S
C877   C879    1.420   .     A
C878   C887    1.426   .     A
C879   C881    1.418   .     A
C880   N925    1.431   .     S
C880   C179    1.411   1_556 S
C881   N927    1.423   .     S
C882   N926    1.427   .     S
C883   N925    1.450   .     S
C883   H905    1.110   .     S
C883   H903    1.111   .     S
C883   H904    1.110   .     S
C884   H908    1.111   .     S
C884   H907    1.110   .     S
C884   N926    1.447   .     S
C884   H909    1.111   .     S
C885   H896    1.110   .     S
C885   H897    1.108   .     S
C885   N927    1.446   .     S
C885   H898    1.111   .     S
C886   N928    1.448   .     S
C886   H901    1.111   .     S
C886   H900    1.110   .     S
C886   H200    1.111   1_556 S
C887   N928    1.421   .     S
C887   C180    1.410   1_556 S
C888   I918    2.153   .     S
C889   I919    2.140   .     S
C889   C892    1.405   .     A
C889   C735    1.387   1_655 S
C890   C892    1.417   .     A
C890   I920    2.145   .     S
C890   C732    1.393   1_655 S
C891   I921    2.133   .     S
Cu893  Cu894   2.741   .     S
Cu893  O933    1.967   .     S
Cu893  N923    2.060   .     S
Cu893  O929    1.967   .     S
Cu893  O931    1.962   .     S
Cu893  O935    1.964   .     S
Cu894  N924    2.060   .     S
Cu894  O934    1.967   .     S
Cu894  O932    1.962   .     S
Cu894  O936    1.964   .     S
Cu894  O930    1.967   .     S
H895   N925    1.028   .     S
H899   N928    1.031   .     S
H906   N926    1.029   .     S
H910   N927    1.030   .     S
C937   O1007   1.316   .     A
C937   O1010   1.314   .     A
C937   C938    1.468   .     S
C938   C969    1.406   .     A
C938   C966    1.409   .     A
C939   I1000   2.137   .     S
C939   N1002   1.381   .     A
C940   N1001   1.378   .     A
C940   I990    2.130   .     S
C940   C1175   1.432   .     S
C941   I991    2.135   .     S
C941   N1002   1.381   .     A
C942   N1001   1.380   .     A
C942   I992    2.133   .     S
C942   C1173   1.434   .     S
C943   O1011   1.312   .     A
C943   O1014   1.316   .     A
C943   C949    1.469   .     S
C944   O1012   1.318   .     A
C944   O1013   1.310   .     A
C944   C947    1.468   .     S
C945   C956    1.431   .     A
C945   C947    1.417   .     A
C945   I989    2.163   .     S
C946   C957    1.417   .     A
C946   I993    2.155   .     S
C946   C949    1.408   .     A
C947   C950    1.400   .     A
C948   O1008   1.310   .     A
C948   O1009   1.322   .     A
C948   C970    1.470   .     S
C949   C951    1.405   .     A
C950   I994    2.143   .     S
C950   C952    1.403   .     A
C951   C953    1.414   .     A
C951   I995    2.142   .     S
C952   C958    1.415   .     A
C952   C954    1.412   .     A
C953   C960    1.412   .     A
C953   C955    1.410   .     A
C954   C956    1.426   .     A
C954   C253    1.415   1_556 S
C955   C957    1.420   .     A
C956   C965    1.426   .     A
C957   C959    1.418   .     A
C958   N1003   1.431   .     S
C958   C257    1.411   1_556 S
C959   N1005   1.423   .     S
C960   N1004   1.427   .     S
C961   N1003   1.450   .     S
C961   H983    1.110   .     S
C961   H981    1.111   .     S
C961   H982    1.110   .     S
C962   H986    1.111   .     S
C962   H985    1.110   .     S
C962   N1004   1.447   .     S
C962   H987    1.111   .     S
C963   H974    1.110   .     S
C963   H975    1.108   .     S
C963   N1005   1.446   .     S
C963   H976    1.111   .     S
C964   N1006   1.448   .     S
C964   H979    1.111   .     S
C964   H978    1.110   .     S
C964   H278    1.111   1_556 S
C965   N1006   1.421   .     S
C965   C258    1.410   1_556 S
C966   I996    2.153   .     S
C966   C1124   1.393   1_455 S
C967   I997    2.140   .     S
C967   C970    1.405   .     A
C967   C1047   1.387   .     S
C968   C970    1.417   .     A
C968   I998    2.145   .     S
C968   C1044   1.393   .     S
C969   I999    2.133   .     S
C969   C1123   1.387   1_455 S
Cu971  Cu972   2.741   .     S
Cu971  O1011   1.967   .     S
Cu971  N1001   2.060   .     S
Cu971  O1007   1.967   .     S
Cu971  O1009   1.962   .     S
Cu971  O1013   1.964   .     S
Cu972  N1002   2.060   .     S
Cu972  O1012   1.967   .     S
Cu972  O1010   1.962   .     S
Cu972  O1014   1.964   .     S
Cu972  O1008   1.967   .     S
H973   N1003   1.028   .     S
H977   N1006   1.031   .     S
H984   N1004   1.029   .     S
H988   N1005   1.030   .     S
C1015  O1085   1.316   .     A
C1015  O1088   1.314   .     A
C1015  C1016   1.468   .     S
C1016  C1047   1.406   .     A
C1016  C1044   1.409   .     A
C1017  I1078   2.137   .     S
C1017  N1080   1.381   .     A
C1018  N1079   1.378   .     A
C1018  I1068   2.130   .     S
C1018  C1253   1.432   .     S
C1019  I1069   2.135   .     S
C1019  N1080   1.381   .     A
C1020  N1079   1.380   .     A
C1020  I1070   2.133   .     S
C1020  C1251   1.434   .     S
C1021  O1089   1.312   .     A
C1021  O1092   1.316   .     A
C1021  C1027   1.469   .     S
C1022  O1090   1.318   .     A
C1022  O1091   1.310   .     A
C1022  C1025   1.468   .     S
C1023  C1034   1.431   .     A
C1023  C1025   1.417   .     A
C1023  I1067   2.163   .     S
C1024  C1035   1.417   .     A
C1024  I1071   2.155   .     S
C1024  C1027   1.408   .     A
C1025  C1028   1.400   .     A
C1026  O1086   1.310   .     A
C1026  O1087   1.322   .     A
C1026  C1048   1.470   .     S
C1027  C1029   1.405   .     A
C1028  I1072   2.143   .     S
C1028  C1030   1.403   .     A
C1029  C1031   1.414   .     A
C1029  I1073   2.142   .     S
C1030  C1036   1.415   .     A
C1030  C1032   1.412   .     A
C1031  C1038   1.412   .     A
C1031  C1033   1.410   .     A
C1032  C1034   1.426   .     A
C1032  C331    1.415   1_556 S
C1033  C1035   1.420   .     A
C1034  C1043   1.426   .     A
C1035  C1037   1.418   .     A
C1036  N1081   1.431   .     S
C1036  C335    1.411   1_556 S
C1037  N1083   1.423   .     S
C1038  N1082   1.427   .     S
C1039  N1081   1.450   .     S
C1039  H1061   1.110   .     S
C1039  H1059   1.111   .     S
C1039  H1060   1.110   .     S
C1040  H1064   1.111   .     S
C1040  H1063   1.110   .     S
C1040  N1082   1.447   .     S
C1040  H1065   1.111   .     S
C1041  H1052   1.110   .     S
C1041  H1053   1.108   .     S
C1041  N1083   1.446   .     S
C1041  H1054   1.111   .     S
C1042  N1084   1.448   .     S
C1042  H1057   1.111   .     S
C1042  H1056   1.110   .     S
C1042  H356    1.111   1_556 S
C1043  N1084   1.421   .     S
C1043  C336    1.410   1_556 S
C1044  I1074   2.153   .     S
C1045  I1075   2.140   .     S
C1045  C1048   1.405   .     A
C1045  C1125   1.387   .     S
C1046  C1048   1.417   .     A
C1046  I1076   2.145   .     S
C1046  C1122   1.393   .     S
C1047  I1077   2.133   .     S
Cu1049 Cu1050  2.741   .     S
Cu1049 O1089   1.967   .     S
Cu1049 N1079   2.060   .     S
Cu1049 O1085   1.967   .     S
Cu1049 O1087   1.962   .     S
Cu1049 O1091   1.964   .     S
Cu1050 N1080   2.060   .     S
Cu1050 O1090   1.967   .     S
Cu1050 O1088   1.962   .     S
Cu1050 O1092   1.964   .     S
Cu1050 O1086   1.967   .     S
H1051  N1081   1.028   .     S
H1055  N1084   1.031   .     S
H1062  N1082   1.029   .     S
H1066  N1083   1.030   .     S
C1093  O1163   1.316   .     A
C1093  O1166   1.314   .     A
C1093  C1094   1.468   .     S
C1094  C1125   1.406   .     A
C1094  C1122   1.409   .     A
C1095  I1156   2.137   .     S
C1095  N1158   1.381   .     A
C1096  N1157   1.378   .     A
C1096  I1146   2.130   .     S
C1096  C1331   1.432   .     S
C1097  I1147   2.135   .     S
C1097  N1158   1.381   .     A
C1098  N1157   1.380   .     A
C1098  I1148   2.133   .     S
C1098  C1329   1.434   .     S
C1099  O1167   1.312   .     A
C1099  O1170   1.316   .     A
C1099  C1105   1.469   .     S
C1100  O1168   1.318   .     A
C1100  O1169   1.310   .     A
C1100  C1103   1.468   .     S
C1101  C1112   1.431   .     A
C1101  C1103   1.417   .     A
C1101  I1145   2.163   .     S
C1102  C1113   1.417   .     A
C1102  I1149   2.155   .     S
C1102  C1105   1.408   .     A
C1103  C1106   1.400   .     A
C1104  O1164   1.310   .     A
C1104  O1165   1.322   .     A
C1104  C1126   1.470   .     S
C1105  C1107   1.405   .     A
C1106  I1150   2.143   .     S
C1106  C1108   1.403   .     A
C1107  C1109   1.414   .     A
C1107  I1151   2.142   .     S
C1108  C1114   1.415   .     A
C1108  C1110   1.412   .     A
C1109  C1116   1.412   .     A
C1109  C1111   1.410   .     A
C1110  C1112   1.426   .     A
C1110  C409    1.415   1_556 S
C1111  C1113   1.420   .     A
C1112  C1121   1.426   .     A
C1113  C1115   1.418   .     A
C1114  N1159   1.431   .     S
C1114  C413    1.411   1_556 S
C1115  N1161   1.423   .     S
C1116  N1160   1.427   .     S
C1117  N1159   1.450   .     S
C1117  H1139   1.110   .     S
C1117  H1137   1.111   .     S
C1117  H1138   1.110   .     S
C1118  H1142   1.111   .     S
C1118  H1141   1.110   .     S
C1118  N1160   1.447   .     S
C1118  H1143   1.111   .     S
C1119  H1130   1.110   .     S
C1119  H1131   1.108   .     S
C1119  N1161   1.446   .     S
C1119  H1132   1.111   .     S
C1120  N1162   1.448   .     S
C1120  H1135   1.111   .     S
C1120  H1134   1.110   .     S
C1120  H434    1.111   1_556 S
C1121  N1162   1.421   .     S
C1121  C414    1.410   1_556 S
C1122  I1152   2.153   .     S
C1123  I1153   2.140   .     S
C1123  C1126   1.405   .     A
C1123  C969    1.387   1_655 S
C1124  C1126   1.417   .     A
C1124  I1154   2.145   .     S
C1124  C966    1.393   1_655 S
C1125  I1155   2.133   .     S
Cu1127 Cu1128  2.741   .     S
Cu1127 O1167   1.967   .     S
Cu1127 N1157   2.060   .     S
Cu1127 O1163   1.967   .     S
Cu1127 O1165   1.962   .     S
Cu1127 O1169   1.964   .     S
Cu1128 N1158   2.060   .     S
Cu1128 O1168   1.967   .     S
Cu1128 O1166   1.962   .     S
Cu1128 O1170   1.964   .     S
Cu1128 O1164   1.967   .     S
H1129  N1159   1.028   .     S
H1133  N1162   1.031   .     S
H1140  N1160   1.029   .     S
H1144  N1161   1.030   .     S
C1171  O1241   1.316   .     A
C1171  O1244   1.314   .     A
C1171  C1172   1.468   .     S
C1172  C1203   1.406   .     A
C1172  C1200   1.409   .     A
C1173  I1234   2.137   .     S
C1173  N1236   1.381   .     A
C1174  N1235   1.378   .     A
C1174  I1224   2.130   .     S
C1174  C707    1.432   1_565 S
C1175  I1225   2.135   .     S
C1175  N1236   1.381   .     A
C1176  N1235   1.380   .     A
C1176  I1226   2.133   .     S
C1176  C705    1.434   1_565 S
C1177  O1245   1.312   .     A
C1177  O1248   1.316   .     A
C1177  C1183   1.469   .     S
C1178  O1246   1.318   .     A
C1178  O1247   1.310   .     A
C1178  C1181   1.468   .     S
C1179  C1190   1.431   .     A
C1179  C1181   1.417   .     A
C1179  I1223   2.163   .     S
C1180  C1191   1.417   .     A
C1180  I1227   2.155   .     S
C1180  C1183   1.408   .     A
C1181  C1184   1.400   .     A
C1182  O1242   1.310   .     A
C1182  O1243   1.322   .     A
C1182  C1204   1.470   .     S
C1183  C1185   1.405   .     A
C1184  I1228   2.143   .     S
C1184  C1186   1.403   .     A
C1185  C1187   1.414   .     A
C1185  I1229   2.142   .     S
C1186  C1192   1.415   .     A
C1186  C1188   1.412   .     A
C1187  C1194   1.412   .     A
C1187  C1189   1.410   .     A
C1188  C1190   1.426   .     A
C1188  C487    1.415   1_556 S
C1189  C1191   1.420   .     A
C1190  C1199   1.426   .     A
C1191  C1193   1.418   .     A
C1192  N1237   1.431   .     S
C1192  C491    1.411   1_556 S
C1193  N1239   1.423   .     S
C1194  N1238   1.427   .     S
C1195  N1237   1.450   .     S
C1195  H1217   1.110   .     S
C1195  H1215   1.111   .     S
C1195  H1216   1.110   .     S
C1196  H1220   1.111   .     S
C1196  H1219   1.110   .     S
C1196  N1238   1.447   .     S
C1196  H1221   1.111   .     S
C1197  H1208   1.110   .     S
C1197  H1209   1.108   .     S
C1197  N1239   1.446   .     S
C1197  H1210   1.111   .     S
C1198  N1240   1.448   .     S
C1198  H1213   1.111   .     S
C1198  H1212   1.110   .     S
C1198  H512    1.111   1_556 S
C1199  N1240   1.421   .     S
C1199  C492    1.410   1_556 S
C1200  I1230   2.153   .     S
C1200  C1358   1.393   1_455 S
C1201  I1231   2.140   .     S
C1201  C1204   1.405   .     A
C1201  C1281   1.387   .     S
C1202  C1204   1.417   .     A
C1202  I1232   2.145   .     S
C1202  C1278   1.393   .     S
C1203  I1233   2.133   .     S
C1203  C1357   1.387   1_455 S
Cu1205 Cu1206  2.741   .     S
Cu1205 O1245   1.967   .     S
Cu1205 N1235   2.060   .     S
Cu1205 O1241   1.967   .     S
Cu1205 O1243   1.962   .     S
Cu1205 O1247   1.964   .     S
Cu1206 N1236   2.060   .     S
Cu1206 O1246   1.967   .     S
Cu1206 O1244   1.962   .     S
Cu1206 O1248   1.964   .     S
Cu1206 O1242   1.967   .     S
H1207  N1237   1.028   .     S
H1211  N1240   1.031   .     S
H1218  N1238   1.029   .     S
H1222  N1239   1.030   .     S
C1249  O1319   1.316   .     A
C1249  O1322   1.314   .     A
C1249  C1250   1.468   .     S
C1250  C1281   1.406   .     A
C1250  C1278   1.409   .     A
C1251  I1312   2.137   .     S
C1251  N1314   1.381   .     A
C1252  N1313   1.378   .     A
C1252  I1302   2.130   .     S
C1252  C785    1.432   1_565 S
C1253  I1303   2.135   .     S
C1253  N1314   1.381   .     A
C1254  N1313   1.380   .     A
C1254  I1304   2.133   .     S
C1254  C783    1.434   1_565 S
C1255  O1323   1.312   .     A
C1255  O1326   1.316   .     A
C1255  C1261   1.469   .     S
C1256  O1324   1.318   .     A
C1256  O1325   1.310   .     A
C1256  C1259   1.468   .     S
C1257  C1268   1.431   .     A
C1257  C1259   1.417   .     A
C1257  I1301   2.163   .     S
C1258  C1269   1.417   .     A
C1258  I1305   2.155   .     S
C1258  C1261   1.408   .     A
C1259  C1262   1.400   .     A
C1260  O1320   1.310   .     A
C1260  O1321   1.322   .     A
C1260  C1282   1.470   .     S
C1261  C1263   1.405   .     A
C1262  I1306   2.143   .     S
C1262  C1264   1.403   .     A
C1263  C1265   1.414   .     A
C1263  I1307   2.142   .     S
C1264  C1270   1.415   .     A
C1264  C1266   1.412   .     A
C1265  C1272   1.412   .     A
C1265  C1267   1.410   .     A
C1266  C1268   1.426   .     A
C1266  C565    1.415   1_556 S
C1267  C1269   1.420   .     A
C1268  C1277   1.426   .     A
C1269  C1271   1.418   .     A
C1270  N1315   1.431   .     S
C1270  C569    1.411   1_556 S
C1271  N1317   1.423   .     S
C1272  N1316   1.427   .     S
C1273  N1315   1.450   .     S
C1273  H1295   1.110   .     S
C1273  H1293   1.111   .     S
C1273  H1294   1.110   .     S
C1274  H1298   1.111   .     S
C1274  H1297   1.110   .     S
C1274  N1316   1.447   .     S
C1274  H1299   1.111   .     S
C1275  H1286   1.110   .     S
C1275  H1287   1.108   .     S
C1275  N1317   1.446   .     S
C1275  H1288   1.111   .     S
C1276  N1318   1.448   .     S
C1276  H1291   1.111   .     S
C1276  H1290   1.110   .     S
C1276  H590    1.111   1_556 S
C1277  N1318   1.421   .     S
C1277  C570    1.410   1_556 S
C1278  I1308   2.153   .     S
C1279  I1309   2.140   .     S
C1279  C1282   1.405   .     A
C1279  C1359   1.387   .     S
C1280  C1282   1.417   .     A
C1280  I1310   2.145   .     S
C1280  C1356   1.393   .     S
C1281  I1311   2.133   .     S
Cu1283 Cu1284  2.741   .     S
Cu1283 O1323   1.967   .     S
Cu1283 N1313   2.060   .     S
Cu1283 O1319   1.967   .     S
Cu1283 O1321   1.962   .     S
Cu1283 O1325   1.964   .     S
Cu1284 N1314   2.060   .     S
Cu1284 O1324   1.967   .     S
Cu1284 O1322   1.962   .     S
Cu1284 O1326   1.964   .     S
Cu1284 O1320   1.967   .     S
H1285  N1315   1.028   .     S
H1289  N1318   1.031   .     S
H1296  N1316   1.029   .     S
H1300  N1317   1.030   .     S
C1327  O1397   1.316   .     A
C1327  O1400   1.314   .     A
C1327  C1328   1.468   .     S
C1328  C1359   1.406   .     A
C1328  C1356   1.409   .     A
C1329  I1390   2.137   .     S
C1329  N1392   1.381   .     A
C1330  N1391   1.378   .     A
C1330  I1380   2.130   .     S
C1330  C863    1.432   1_565 S
C1331  I1381   2.135   .     S
C1331  N1392   1.381   .     A
C1332  N1391   1.380   .     A
C1332  I1382   2.133   .     S
C1332  C861    1.434   1_565 S
C1333  O1401   1.312   .     A
C1333  O1404   1.316   .     A
C1333  C1339   1.469   .     S
C1334  O1402   1.318   .     A
C1334  O1403   1.310   .     A
C1334  C1337   1.468   .     S
C1335  C1346   1.431   .     A
C1335  C1337   1.417   .     A
C1335  I1379   2.163   .     S
C1336  C1347   1.417   .     A
C1336  I1383   2.155   .     S
C1336  C1339   1.408   .     A
C1337  C1340   1.400   .     A
C1338  O1398   1.310   .     A
C1338  O1399   1.322   .     A
C1338  C1360   1.470   .     S
C1339  C1341   1.405   .     A
C1340  I1384   2.143   .     S
C1340  C1342   1.403   .     A
C1341  C1343   1.414   .     A
C1341  I1385   2.142   .     S
C1342  C1348   1.415   .     A
C1342  C1344   1.412   .     A
C1343  C1350   1.412   .     A
C1343  C1345   1.410   .     A
C1344  C1346   1.426   .     A
C1344  C643    1.415   1_556 S
C1345  C1347   1.420   .     A
C1346  C1355   1.426   .     A
C1347  C1349   1.418   .     A
C1348  N1393   1.431   .     S
C1348  C647    1.411   1_556 S
C1349  N1395   1.423   .     S
C1350  N1394   1.427   .     S
C1351  N1393   1.450   .     S
C1351  H1373   1.110   .     S
C1351  H1371   1.111   .     S
C1351  H1372   1.110   .     S
C1352  H1376   1.111   .     S
C1352  H1375   1.110   .     S
C1352  N1394   1.447   .     S
C1352  H1377   1.111   .     S
C1353  H1364   1.110   .     S
C1353  H1365   1.108   .     S
C1353  N1395   1.446   .     S
C1353  H1366   1.111   .     S
C1354  N1396   1.448   .     S
C1354  H1369   1.111   .     S
C1354  H1368   1.110   .     S
C1354  H668    1.111   1_556 S
C1355  N1396   1.421   .     S
C1355  C648    1.410   1_556 S
C1356  I1386   2.153   .     S
C1357  I1387   2.140   .     S
C1357  C1360   1.405   .     A
C1357  C1203   1.387   1_655 S
C1358  C1360   1.417   .     A
C1358  I1388   2.145   .     S
C1358  C1200   1.393   1_655 S
C1359  I1389   2.133   .     S
Cu1361 Cu1362  2.741   .     S
Cu1361 O1401   1.967   .     S
Cu1361 N1391   2.060   .     S
Cu1361 O1397   1.967   .     S
Cu1361 O1399   1.962   .     S
Cu1361 O1403   1.964   .     S
Cu1362 N1392   2.060   .     S
Cu1362 O1402   1.967   .     S
Cu1362 O1400   1.962   .     S
Cu1362 O1404   1.964   .     S
Cu1362 O1398   1.967   .     S
H1363  N1393   1.028   .     S
H1367  N1396   1.031   .     S
H1374  N1394   1.029   .     S
H1378  N1395   1.030   .     S
