data_str_m3_o1_o16_pcu_sym.250
_audit_creation_date              2020-01-03
_audit_creation_method            'Materials Studio'
_symmetry_space_group_name_H-M    'P1'
_symmetry_Int_Tables_number       1
_symmetry_cell_setting            triclinic
loop_
_symmetry_equiv_pos_as_xyz
  x,y,z
_cell_length_a                    29.6789
_cell_length_b                    32.3783
_cell_length_c                    26.0795
_cell_angle_alpha                 89.2503
_cell_angle_beta                  68.9776
_cell_angle_gamma                 90.5484
loop_
_atom_site_label
_atom_site_type_symbol
_atom_site_fract_x
_atom_site_fract_y
_atom_site_fract_z
_atom_site_U_iso_or_equiv
_atom_site_adp_type
_atom_site_occupancy
O1     O     0.12846   0.22775   0.25001   0.00000  Uiso   1.00
O2     O     0.20490   0.22774   0.25001   0.00000  Uiso   1.00
C3     C     0.16688   0.24675   0.24982   0.00000  Uiso   1.00
O4     O     0.10947   0.16666   0.32681   0.00000  Uiso   1.00
O5     O     0.18591   0.16665   0.32681   0.00000  Uiso   1.00
C6     C     0.13924   0.16577   0.35283   0.00000  Uiso   1.00
Zn7    Zn    0.11562   0.16667   0.25000   0.00000  Uiso   1.00
Zn8    Zn    0.21771   0.16666   0.25000   0.00000  Uiso   1.00
O9     O     0.12843   0.10559   0.25000   0.00000  Uiso   1.00
O10    O     0.20488   0.10558   0.25000   0.00000  Uiso   1.00
O11    O     0.14742   0.16668   0.17319   0.00000  Uiso   1.00
O12    O     0.22387   0.16667   0.17319   0.00000  Uiso   1.00
C13    C     0.16566   0.08675   0.25221   0.00000  Uiso   1.00
C14    C     0.19381   0.16709   0.14736   0.00000  Uiso   1.00
C15    C     0.25044   0.11572   0.01381   0.00000  Uiso   1.00
H16    H     0.26459   0.11804   0.08766   0.00000  Uiso   1.00
C17    C     0.21162   0.16273   0.08773   0.00000  Uiso   1.00
C18    C     0.07622   0.18284   0.44442   0.00000  Uiso   1.00
C19    C     0.06578   0.18960   0.00094   0.00000  Uiso   1.00
C20    C     0.10112   0.18111   0.02368   0.00000  Uiso   1.00
C21    C     0.14586   0.16437   0.49160   0.00000  Uiso   1.00
C22    C     0.15056   0.14901   0.44016   0.00000  Uiso   1.00
C23    C     0.18382   0.15852   0.01156   0.00000  Uiso   1.00
C24    C     0.22051   0.12960   0.48561   0.00000  Uiso   1.00
C25    C     0.22323   0.11237   0.43508   0.00000  Uiso   1.00
C26    C     0.18483   0.11816   0.41667   0.00000  Uiso   1.00
C27    C     0.18580   0.18013   0.05741   0.00000  Uiso   1.00
C28    C     0.24541   0.13233   0.06444   0.00000  Uiso   1.00
C29    C     0.12031   0.16416   0.41346   0.00000  Uiso   1.00
H30    H     0.09238   0.18578   0.06718   0.00000  Uiso   1.00
C31    C     0.19696   0.31259   0.27363   0.00000  Uiso   1.00
C32    C     0.19834   0.02188   0.27043   0.00000  Uiso   1.00
H33    H     0.22372   0.03875   0.28379   0.00000  Uiso   1.00
C34    C     0.16357   0.04269   0.25610   0.00000  Uiso   1.00
C35    C     0.12676   0.02081   0.24603   0.00000  Uiso   1.00
C36    C     0.13318   0.31295   0.23447   0.00000  Uiso   1.00
C37    C     0.16626   0.29109   0.25187   0.00000  Uiso   1.00
C38    C     0.31704   0.13496   0.22692   0.00000  Uiso   1.00
C39    C     0.03163   0.13568   0.22618   0.00000  Uiso   1.00
H40    H     0.05602   0.11116   0.20668   0.00000  Uiso   1.00
N41    N     0.04760   0.16668   0.25002   0.00000  Uiso   1.00
C42    C     0.01588   0.19662   0.27617   0.00000  Uiso   1.00
H43    H     0.02703   0.22001   0.29841   0.00000  Uiso   1.00
C44    C     0.30174   0.19707   0.27526   0.00000  Uiso   1.00
H45    H     0.27765   0.22136   0.29555   0.00000  Uiso   1.00
N46    N     0.28573   0.16665   0.25001   0.00000  Uiso   1.00
O47    O     0.08315   0.03799   0.24955   0.00000  Uiso   1.00
C48    C     0.05415   0.04422   0.30566   0.00000  Uiso   1.00
H49    H     0.02022   0.05850   0.30628   0.00000  Uiso   1.00
H50    H     0.07134   0.06674   0.32497   0.00000  Uiso   1.00
C51    C     0.04116   0.00415   0.34102   0.00000  Uiso   1.00
H52    H     0.01885   0.31671   0.32592   0.00000  Uiso   1.00
H53    H     0.07427   0.32098   0.33905   0.00000  Uiso   1.00
C54    C     0.01371   0.01327   0.40133   0.00000  Uiso   1.00
H55    H     0.02975   0.04016   0.41500   0.00000  Uiso   1.00
H56    H     0.01530   0.31964   0.42704   0.00000  Uiso   1.00
H57    H     0.30877   0.01906   0.40799   0.00000  Uiso   1.00
N58    N     0.10452   0.29436   0.20679   0.00000  Uiso   1.00
O59    O     0.11110   0.30736   0.15719   0.00000  Uiso   1.00
O60    O     0.06256   0.27874   0.23600   0.00000  Uiso   1.00
N61    N     0.30208   0.10013   0.20385   0.00000  Uiso   1.00
O62    O     0.31259   0.06313   0.21565   0.00000  Uiso   1.00
O63    O     0.29023   0.10546   0.16106   0.00000  Uiso   1.00
N64    N     0.26648   0.09283   0.39984   0.00000  Uiso   1.00
O65    O     0.30838   0.10886   0.39440   0.00000  Uiso   1.00
O66    O     0.26448   0.06542   0.36467   0.00000  Uiso   1.00
O67    O     0.27703   0.08009   0.49879   0.00000  Uiso   1.00
C68    C     0.24686   0.04523   0.02213   0.00000  Uiso   1.00
H69    H     0.24202   0.02728   0.48845   0.00000  Uiso   1.00
H70    H     0.20979   0.05287   0.05099   0.00000  Uiso   1.00
C71    C     0.27077   0.01798   0.05306   0.00000  Uiso   1.00
H72    H     0.30623   0.00740   0.02436   0.00000  Uiso   1.00
H73    H     0.27694   0.03611   0.08590   0.00000  Uiso   1.00
C74    C     0.23883   0.31385   0.07904   0.00000  Uiso   1.00
H75    H     0.20424   0.32397   0.10993   0.00000  Uiso   1.00
H76    H     0.25694   0.29363   0.09999   0.00000  Uiso   1.00
H77    H     0.23148   0.29574   0.04700   0.00000  Uiso   1.00
N78    N     0.16732   0.22155   0.06866   0.00000  Uiso   1.00
O79    O     0.16239   0.23884   0.11499   0.00000  Uiso   1.00
O80    O     0.16544   0.24510   0.02865   0.00000  Uiso   1.00
O81    O     0.04200   0.18974   0.42034   0.00000  Uiso   1.00
C82    C     0.02763   0.23157   0.42415   0.00000  Uiso   1.00
H83    H     0.03926   0.24514   0.38199   0.00000  Uiso   1.00
H84    H     0.04490   0.25157   0.44657   0.00000  Uiso   1.00
C85    C     0.30578   0.23395   0.45172   0.00000  Uiso   1.00
H86    H     0.29257   0.21213   0.48733   0.00000  Uiso   1.00
H87    H     0.29567   0.26549   0.46749   0.00000  Uiso   1.00
C88    C     0.28010   0.22408   0.41207   0.00000  Uiso   1.00
H89    H     0.29025   0.24741   0.37811   0.00000  Uiso   1.00
H90    H     0.24045   0.22507   0.43389   0.00000  Uiso   1.00
H91    H     0.28965   0.19275   0.39518   0.00000  Uiso   1.00
O92    O     0.01984   0.20137   0.03401   0.00000  Uiso   1.00
C93    C     0.02099   0.23848   0.06190   0.00000  Uiso   1.00
H94    H     0.00378   0.26302   0.04542   0.00000  Uiso   1.00
H95    H     0.05790   0.25033   0.05643   0.00000  Uiso   1.00
C96    C     0.32499   0.23216   0.12302   0.00000  Uiso   1.00
H97    H     0.28668   0.22587   0.12854   0.00000  Uiso   1.00
H98    H     0.00561   0.20511   0.13907   0.00000  Uiso   1.00
C99    C     0.32784   0.27012   0.15577   0.00000  Uiso   1.00
H100   H     0.03227   0.27542   0.15276   0.00000  Uiso   1.00
H101   H     0.30487   0.26508   0.19954   0.00000  Uiso   1.00
H102   H     0.31531   0.29804   0.14001   0.00000  Uiso   1.00
O103   O     0.17992   0.09242   0.37683   0.00000  Uiso   1.00
C104   C     0.14127   0.06384   0.40139   0.00000  Uiso   1.00
H105   H     0.12879   0.05269   0.36874   0.00000  Uiso   1.00
H106   H     0.10913   0.07802   0.43255   0.00000  Uiso   1.00
C107   C     0.15769   0.02651   0.42671   0.00000  Uiso   1.00
H108   H     0.19052   0.01332   0.39593   0.00000  Uiso   1.00
H109   H     0.16658   0.03649   0.46261   0.00000  Uiso   1.00
C110   C     0.11847   0.32626   0.44561   0.00000  Uiso   1.00
H111   H     0.08479   0.00534   0.47591   0.00000  Uiso   1.00
H112   H     0.13088   0.30034   0.46527   0.00000  Uiso   1.00
H113   H     0.11085   0.31410   0.40991   0.00000  Uiso   1.00
N114   N     0.22388   0.29220   0.30239   0.00000  Uiso   1.00
O115   O     0.20167   0.26659   0.34264   0.00000  Uiso   1.00
O116   O     0.26650   0.30620   0.29757   0.00000  Uiso   1.00
O117   O     0.46179   0.22775   0.25001   0.00000  Uiso   1.00
O118   O     0.53823   0.22774   0.25001   0.00000  Uiso   1.00
C119   C     0.50021   0.24675   0.24982   0.00000  Uiso   1.00
O120   O     0.44280   0.16666   0.32681   0.00000  Uiso   1.00
O121   O     0.51924   0.16665   0.32681   0.00000  Uiso   1.00
C122   C     0.47257   0.16577   0.35283   0.00000  Uiso   1.00
Zn123  Zn    0.44896   0.16667   0.25000   0.00000  Uiso   1.00
Zn124  Zn    0.55104   0.16666   0.25000   0.00000  Uiso   1.00
O125   O     0.46177   0.10559   0.25000   0.00000  Uiso   1.00
O126   O     0.53821   0.10558   0.25000   0.00000  Uiso   1.00
O127   O     0.48076   0.16668   0.17319   0.00000  Uiso   1.00
O128   O     0.55720   0.16667   0.17319   0.00000  Uiso   1.00
C129   C     0.49899   0.08675   0.25221   0.00000  Uiso   1.00
C130   C     0.52715   0.16709   0.14736   0.00000  Uiso   1.00
C131   C     0.58377   0.11572   0.01381   0.00000  Uiso   1.00
H132   H     0.59792   0.11804   0.08766   0.00000  Uiso   1.00
C133   C     0.54495   0.16273   0.08773   0.00000  Uiso   1.00
C134   C     0.40956   0.18284   0.44442   0.00000  Uiso   1.00
C135   C     0.39911   0.18960   0.00094   0.00000  Uiso   1.00
C136   C     0.43445   0.18111   0.02368   0.00000  Uiso   1.00
C137   C     0.47920   0.16437   0.49160   0.00000  Uiso   1.00
C138   C     0.48390   0.14901   0.44016   0.00000  Uiso   1.00
C139   C     0.51715   0.15852   0.01156   0.00000  Uiso   1.00
C140   C     0.55385   0.12960   0.48561   0.00000  Uiso   1.00
C141   C     0.55657   0.11237   0.43508   0.00000  Uiso   1.00
C142   C     0.51817   0.11816   0.41667   0.00000  Uiso   1.00
C143   C     0.51913   0.18013   0.05741   0.00000  Uiso   1.00
C144   C     0.57874   0.13233   0.06444   0.00000  Uiso   1.00
C145   C     0.45365   0.16416   0.41346   0.00000  Uiso   1.00
H146   H     0.42571   0.18578   0.06718   0.00000  Uiso   1.00
C147   C     0.53029   0.31259   0.27363   0.00000  Uiso   1.00
C148   C     0.53168   0.02188   0.27043   0.00000  Uiso   1.00
H149   H     0.55706   0.03875   0.28379   0.00000  Uiso   1.00
C150   C     0.49690   0.04269   0.25610   0.00000  Uiso   1.00
C151   C     0.46010   0.02081   0.24603   0.00000  Uiso   1.00
C152   C     0.46652   0.31295   0.23447   0.00000  Uiso   1.00
C153   C     0.49959   0.29109   0.25187   0.00000  Uiso   1.00
C154   C     0.65038   0.13496   0.22692   0.00000  Uiso   1.00
C155   C     0.36496   0.13568   0.22618   0.00000  Uiso   1.00
H156   H     0.38935   0.11116   0.20668   0.00000  Uiso   1.00
N157   N     0.38093   0.16668   0.25002   0.00000  Uiso   1.00
C158   C     0.34921   0.19662   0.27617   0.00000  Uiso   1.00
H159   H     0.36036   0.22001   0.29841   0.00000  Uiso   1.00
C160   C     0.63507   0.19707   0.27526   0.00000  Uiso   1.00
H161   H     0.61099   0.22136   0.29555   0.00000  Uiso   1.00
N162   N     0.61906   0.16665   0.25001   0.00000  Uiso   1.00
O163   O     0.41648   0.03799   0.24955   0.00000  Uiso   1.00
C164   C     0.38749   0.04422   0.30566   0.00000  Uiso   1.00
H165   H     0.35355   0.05850   0.30628   0.00000  Uiso   1.00
H166   H     0.40468   0.06674   0.32497   0.00000  Uiso   1.00
C167   C     0.37449   0.00415   0.34102   0.00000  Uiso   1.00
H168   H     0.35218   0.31671   0.32592   0.00000  Uiso   1.00
H169   H     0.40761   0.32098   0.33905   0.00000  Uiso   1.00
C170   C     0.34704   0.01327   0.40133   0.00000  Uiso   1.00
H171   H     0.36308   0.04016   0.41500   0.00000  Uiso   1.00
H172   H     0.34863   0.31964   0.42704   0.00000  Uiso   1.00
H173   H     0.64210   0.01906   0.40799   0.00000  Uiso   1.00
N174   N     0.43785   0.29436   0.20679   0.00000  Uiso   1.00
O175   O     0.44444   0.30736   0.15719   0.00000  Uiso   1.00
O176   O     0.39589   0.27874   0.23600   0.00000  Uiso   1.00
N177   N     0.63541   0.10013   0.20385   0.00000  Uiso   1.00
O178   O     0.64592   0.06313   0.21565   0.00000  Uiso   1.00
O179   O     0.62356   0.10546   0.16106   0.00000  Uiso   1.00
N180   N     0.59981   0.09283   0.39984   0.00000  Uiso   1.00
O181   O     0.64171   0.10886   0.39440   0.00000  Uiso   1.00
O182   O     0.59782   0.06542   0.36467   0.00000  Uiso   1.00
O183   O     0.61036   0.08009   0.49879   0.00000  Uiso   1.00
C184   C     0.58020   0.04523   0.02213   0.00000  Uiso   1.00
H185   H     0.57535   0.02728   0.48845   0.00000  Uiso   1.00
H186   H     0.54312   0.05287   0.05099   0.00000  Uiso   1.00
C187   C     0.60410   0.01798   0.05306   0.00000  Uiso   1.00
H188   H     0.63956   0.00740   0.02436   0.00000  Uiso   1.00
H189   H     0.61028   0.03611   0.08590   0.00000  Uiso   1.00
C190   C     0.57217   0.31385   0.07904   0.00000  Uiso   1.00
H191   H     0.53757   0.32397   0.10993   0.00000  Uiso   1.00
H192   H     0.59027   0.29363   0.09999   0.00000  Uiso   1.00
H193   H     0.56481   0.29574   0.04700   0.00000  Uiso   1.00
N194   N     0.50065   0.22155   0.06866   0.00000  Uiso   1.00
O195   O     0.49572   0.23884   0.11499   0.00000  Uiso   1.00
O196   O     0.49878   0.24510   0.02865   0.00000  Uiso   1.00
O197   O     0.37533   0.18974   0.42034   0.00000  Uiso   1.00
C198   C     0.36096   0.23157   0.42415   0.00000  Uiso   1.00
H199   H     0.37259   0.24514   0.38199   0.00000  Uiso   1.00
H200   H     0.37823   0.25157   0.44657   0.00000  Uiso   1.00
C201   C     0.63911   0.23395   0.45172   0.00000  Uiso   1.00
H202   H     0.62590   0.21213   0.48733   0.00000  Uiso   1.00
H203   H     0.62900   0.26549   0.46749   0.00000  Uiso   1.00
C204   C     0.61344   0.22408   0.41207   0.00000  Uiso   1.00
H205   H     0.62358   0.24741   0.37811   0.00000  Uiso   1.00
H206   H     0.57378   0.22507   0.43389   0.00000  Uiso   1.00
H207   H     0.62299   0.19275   0.39518   0.00000  Uiso   1.00
O208   O     0.35317   0.20137   0.03401   0.00000  Uiso   1.00
C209   C     0.35432   0.23848   0.06190   0.00000  Uiso   1.00
H210   H     0.33711   0.26302   0.04542   0.00000  Uiso   1.00
H211   H     0.39124   0.25033   0.05643   0.00000  Uiso   1.00
C212   C     0.65832   0.23216   0.12302   0.00000  Uiso   1.00
H213   H     0.62001   0.22587   0.12854   0.00000  Uiso   1.00
H214   H     0.33894   0.20511   0.13907   0.00000  Uiso   1.00
C215   C     0.66117   0.27012   0.15577   0.00000  Uiso   1.00
H216   H     0.36561   0.27542   0.15276   0.00000  Uiso   1.00
H217   H     0.63820   0.26508   0.19954   0.00000  Uiso   1.00
H218   H     0.64864   0.29804   0.14001   0.00000  Uiso   1.00
O219   O     0.51326   0.09242   0.37683   0.00000  Uiso   1.00
C220   C     0.47460   0.06384   0.40139   0.00000  Uiso   1.00
H221   H     0.46213   0.05269   0.36874   0.00000  Uiso   1.00
H222   H     0.44246   0.07802   0.43255   0.00000  Uiso   1.00
C223   C     0.49102   0.02651   0.42671   0.00000  Uiso   1.00
H224   H     0.52385   0.01332   0.39593   0.00000  Uiso   1.00
H225   H     0.49991   0.03649   0.46261   0.00000  Uiso   1.00
C226   C     0.45180   0.32626   0.44561   0.00000  Uiso   1.00
H227   H     0.41813   0.00534   0.47591   0.00000  Uiso   1.00
H228   H     0.46421   0.30034   0.46527   0.00000  Uiso   1.00
H229   H     0.44419   0.31410   0.40991   0.00000  Uiso   1.00
N230   N     0.55722   0.29220   0.30239   0.00000  Uiso   1.00
O231   O     0.53500   0.26659   0.34264   0.00000  Uiso   1.00
O232   O     0.59983   0.30620   0.29757   0.00000  Uiso   1.00
O233   O     0.79512   0.22775   0.25001   0.00000  Uiso   1.00
O234   O     0.87157   0.22774   0.25001   0.00000  Uiso   1.00
C235   C     0.83355   0.24675   0.24982   0.00000  Uiso   1.00
O236   O     0.77613   0.16666   0.32681   0.00000  Uiso   1.00
O237   O     0.85258   0.16665   0.32681   0.00000  Uiso   1.00
C238   C     0.80590   0.16577   0.35283   0.00000  Uiso   1.00
Zn239  Zn    0.78229   0.16667   0.25000   0.00000  Uiso   1.00
Zn240  Zn    0.88438   0.16666   0.25000   0.00000  Uiso   1.00
O241   O     0.79510   0.10559   0.25000   0.00000  Uiso   1.00
O242   O     0.87154   0.10558   0.25000   0.00000  Uiso   1.00
O243   O     0.81409   0.16668   0.17319   0.00000  Uiso   1.00
O244   O     0.89053   0.16667   0.17319   0.00000  Uiso   1.00
C245   C     0.83233   0.08675   0.25221   0.00000  Uiso   1.00
C246   C     0.86048   0.16709   0.14736   0.00000  Uiso   1.00
C247   C     0.91711   0.11572   0.01381   0.00000  Uiso   1.00
H248   H     0.93126   0.11804   0.08766   0.00000  Uiso   1.00
C249   C     0.87829   0.16273   0.08773   0.00000  Uiso   1.00
C250   C     0.74289   0.18284   0.44442   0.00000  Uiso   1.00
C251   C     0.73245   0.18960   0.00094   0.00000  Uiso   1.00
C252   C     0.76779   0.18111   0.02368   0.00000  Uiso   1.00
C253   C     0.81253   0.16437   0.49160   0.00000  Uiso   1.00
C254   C     0.81723   0.14901   0.44016   0.00000  Uiso   1.00
C255   C     0.85048   0.15852   0.01156   0.00000  Uiso   1.00
C256   C     0.88718   0.12960   0.48561   0.00000  Uiso   1.00
C257   C     0.88990   0.11237   0.43508   0.00000  Uiso   1.00
C258   C     0.85150   0.11816   0.41667   0.00000  Uiso   1.00
C259   C     0.85246   0.18013   0.05741   0.00000  Uiso   1.00
C260   C     0.91207   0.13233   0.06444   0.00000  Uiso   1.00
C261   C     0.78698   0.16416   0.41346   0.00000  Uiso   1.00
H262   H     0.75904   0.18578   0.06718   0.00000  Uiso   1.00
C263   C     0.86362   0.31259   0.27363   0.00000  Uiso   1.00
C264   C     0.86501   0.02188   0.27043   0.00000  Uiso   1.00
H265   H     0.89039   0.03875   0.28379   0.00000  Uiso   1.00
C266   C     0.83024   0.04269   0.25610   0.00000  Uiso   1.00
C267   C     0.79343   0.02081   0.24603   0.00000  Uiso   1.00
C268   C     0.79985   0.31295   0.23447   0.00000  Uiso   1.00
C269   C     0.83292   0.29109   0.25187   0.00000  Uiso   1.00
C270   C     0.98371   0.13496   0.22692   0.00000  Uiso   1.00
C271   C     0.69830   0.13568   0.22618   0.00000  Uiso   1.00
H272   H     0.72268   0.11116   0.20668   0.00000  Uiso   1.00
N273   N     0.71426   0.16668   0.25002   0.00000  Uiso   1.00
C274   C     0.68255   0.19662   0.27617   0.00000  Uiso   1.00
H275   H     0.69369   0.22001   0.29841   0.00000  Uiso   1.00
C276   C     0.96840   0.19707   0.27526   0.00000  Uiso   1.00
H277   H     0.94432   0.22136   0.29555   0.00000  Uiso   1.00
N278   N     0.95239   0.16665   0.25001   0.00000  Uiso   1.00
O279   O     0.74981   0.03799   0.24955   0.00000  Uiso   1.00
C280   C     0.72082   0.04422   0.30566   0.00000  Uiso   1.00
H281   H     0.68688   0.05850   0.30628   0.00000  Uiso   1.00
H282   H     0.73801   0.06674   0.32497   0.00000  Uiso   1.00
C283   C     0.70783   0.00415   0.34102   0.00000  Uiso   1.00
H284   H     0.68551   0.31671   0.32592   0.00000  Uiso   1.00
H285   H     0.74094   0.32098   0.33905   0.00000  Uiso   1.00
C286   C     0.68037   0.01327   0.40133   0.00000  Uiso   1.00
H287   H     0.69641   0.04016   0.41500   0.00000  Uiso   1.00
H288   H     0.68196   0.31964   0.42704   0.00000  Uiso   1.00
H289   H     0.97543   0.01906   0.40799   0.00000  Uiso   1.00
N290   N     0.77119   0.29436   0.20679   0.00000  Uiso   1.00
O291   O     0.77777   0.30736   0.15719   0.00000  Uiso   1.00
O292   O     0.72923   0.27874   0.23600   0.00000  Uiso   1.00
N293   N     0.96875   0.10013   0.20385   0.00000  Uiso   1.00
O294   O     0.97925   0.06313   0.21565   0.00000  Uiso   1.00
O295   O     0.95690   0.10546   0.16106   0.00000  Uiso   1.00
N296   N     0.93315   0.09283   0.39984   0.00000  Uiso   1.00
O297   O     0.97504   0.10886   0.39440   0.00000  Uiso   1.00
O298   O     0.93115   0.06542   0.36467   0.00000  Uiso   1.00
O299   O     0.94370   0.08009   0.49879   0.00000  Uiso   1.00
C300   C     0.91353   0.04523   0.02213   0.00000  Uiso   1.00
H301   H     0.90869   0.02728   0.48845   0.00000  Uiso   1.00
H302   H     0.87646   0.05287   0.05099   0.00000  Uiso   1.00
C303   C     0.93743   0.01798   0.05306   0.00000  Uiso   1.00
H304   H     0.97290   0.00740   0.02436   0.00000  Uiso   1.00
H305   H     0.94361   0.03611   0.08590   0.00000  Uiso   1.00
C306   C     0.90550   0.31385   0.07904   0.00000  Uiso   1.00
H307   H     0.87090   0.32397   0.10993   0.00000  Uiso   1.00
H308   H     0.92360   0.29363   0.09999   0.00000  Uiso   1.00
H309   H     0.89815   0.29574   0.04700   0.00000  Uiso   1.00
N310   N     0.83398   0.22155   0.06866   0.00000  Uiso   1.00
O311   O     0.82905   0.23884   0.11499   0.00000  Uiso   1.00
O312   O     0.83211   0.24510   0.02865   0.00000  Uiso   1.00
O313   O     0.70867   0.18974   0.42034   0.00000  Uiso   1.00
C314   C     0.69430   0.23157   0.42415   0.00000  Uiso   1.00
H315   H     0.70593   0.24514   0.38199   0.00000  Uiso   1.00
H316   H     0.71157   0.25157   0.44657   0.00000  Uiso   1.00
C317   C     0.97244   0.23395   0.45172   0.00000  Uiso   1.00
H318   H     0.95924   0.21213   0.48733   0.00000  Uiso   1.00
H319   H     0.96234   0.26549   0.46749   0.00000  Uiso   1.00
C320   C     0.94677   0.22408   0.41207   0.00000  Uiso   1.00
H321   H     0.95691   0.24741   0.37811   0.00000  Uiso   1.00
H322   H     0.90712   0.22507   0.43389   0.00000  Uiso   1.00
H323   H     0.95632   0.19275   0.39518   0.00000  Uiso   1.00
O324   O     0.68650   0.20137   0.03401   0.00000  Uiso   1.00
C325   C     0.68765   0.23848   0.06190   0.00000  Uiso   1.00
H326   H     0.67044   0.26302   0.04542   0.00000  Uiso   1.00
H327   H     0.72457   0.25033   0.05643   0.00000  Uiso   1.00
C328   C     0.99166   0.23216   0.12302   0.00000  Uiso   1.00
H329   H     0.95335   0.22587   0.12854   0.00000  Uiso   1.00
H330   H     0.67227   0.20511   0.13907   0.00000  Uiso   1.00
C331   C     0.99451   0.27012   0.15577   0.00000  Uiso   1.00
H332   H     0.69894   0.27542   0.15276   0.00000  Uiso   1.00
H333   H     0.97153   0.26508   0.19954   0.00000  Uiso   1.00
H334   H     0.98197   0.29804   0.14001   0.00000  Uiso   1.00
O335   O     0.84659   0.09242   0.37683   0.00000  Uiso   1.00
C336   C     0.80794   0.06384   0.40139   0.00000  Uiso   1.00
H337   H     0.79546   0.05269   0.36874   0.00000  Uiso   1.00
H338   H     0.77580   0.07802   0.43255   0.00000  Uiso   1.00
C339   C     0.82436   0.02651   0.42671   0.00000  Uiso   1.00
H340   H     0.85718   0.01332   0.39593   0.00000  Uiso   1.00
H341   H     0.83325   0.03649   0.46261   0.00000  Uiso   1.00
C342   C     0.78514   0.32626   0.44561   0.00000  Uiso   1.00
H343   H     0.75146   0.00534   0.47591   0.00000  Uiso   1.00
H344   H     0.79754   0.30034   0.46527   0.00000  Uiso   1.00
H345   H     0.77752   0.31410   0.40991   0.00000  Uiso   1.00
N346   N     0.89055   0.29220   0.30239   0.00000  Uiso   1.00
O347   O     0.86833   0.26659   0.34264   0.00000  Uiso   1.00
O348   O     0.93316   0.30620   0.29757   0.00000  Uiso   1.00
O349   O     0.12846   0.56108   0.25001   0.00000  Uiso   1.00
O350   O     0.20490   0.56107   0.25001   0.00000  Uiso   1.00
C351   C     0.16688   0.58009   0.24982   0.00000  Uiso   1.00
O352   O     0.10947   0.50000   0.32681   0.00000  Uiso   1.00
O353   O     0.18591   0.49999   0.32681   0.00000  Uiso   1.00
C354   C     0.13924   0.49911   0.35283   0.00000  Uiso   1.00
Zn355  Zn    0.11562   0.50001   0.25000   0.00000  Uiso   1.00
Zn356  Zn    0.21771   0.49999   0.25000   0.00000  Uiso   1.00
O357   O     0.12843   0.43893   0.25000   0.00000  Uiso   1.00
O358   O     0.20488   0.43892   0.25000   0.00000  Uiso   1.00
O359   O     0.14742   0.50001   0.17319   0.00000  Uiso   1.00
O360   O     0.22387   0.50000   0.17319   0.00000  Uiso   1.00
C361   C     0.16566   0.42008   0.25221   0.00000  Uiso   1.00
C362   C     0.19381   0.50042   0.14736   0.00000  Uiso   1.00
C363   C     0.25044   0.44905   0.01381   0.00000  Uiso   1.00
H364   H     0.26459   0.45137   0.08766   0.00000  Uiso   1.00
C365   C     0.21162   0.49606   0.08773   0.00000  Uiso   1.00
C366   C     0.07622   0.51617   0.44442   0.00000  Uiso   1.00
C367   C     0.06578   0.52294   0.00094   0.00000  Uiso   1.00
C368   C     0.10112   0.51445   0.02368   0.00000  Uiso   1.00
C369   C     0.14586   0.49771   0.49160   0.00000  Uiso   1.00
C370   C     0.15056   0.48234   0.44016   0.00000  Uiso   1.00
C371   C     0.18382   0.49186   0.01156   0.00000  Uiso   1.00
C372   C     0.22051   0.46293   0.48561   0.00000  Uiso   1.00
C373   C     0.22323   0.44571   0.43508   0.00000  Uiso   1.00
C374   C     0.18483   0.45149   0.41667   0.00000  Uiso   1.00
C375   C     0.18580   0.51346   0.05741   0.00000  Uiso   1.00
C376   C     0.24541   0.46566   0.06444   0.00000  Uiso   1.00
C377   C     0.12031   0.49750   0.41346   0.00000  Uiso   1.00
H378   H     0.09238   0.51911   0.06718   0.00000  Uiso   1.00
C379   C     0.19696   0.64592   0.27363   0.00000  Uiso   1.00
C380   C     0.19834   0.35521   0.27043   0.00000  Uiso   1.00
H381   H     0.22372   0.37208   0.28379   0.00000  Uiso   1.00
C382   C     0.16357   0.37602   0.25610   0.00000  Uiso   1.00
C383   C     0.12676   0.35414   0.24603   0.00000  Uiso   1.00
C384   C     0.13318   0.64628   0.23447   0.00000  Uiso   1.00
C385   C     0.16626   0.62442   0.25187   0.00000  Uiso   1.00
C386   C     0.31704   0.46829   0.22692   0.00000  Uiso   1.00
C387   C     0.03163   0.46901   0.22618   0.00000  Uiso   1.00
H388   H     0.05602   0.44449   0.20668   0.00000  Uiso   1.00
N389   N     0.04760   0.50001   0.25002   0.00000  Uiso   1.00
C390   C     0.01588   0.52996   0.27617   0.00000  Uiso   1.00
H391   H     0.02703   0.55334   0.29841   0.00000  Uiso   1.00
C392   C     0.30174   0.53040   0.27526   0.00000  Uiso   1.00
H393   H     0.27765   0.55469   0.29555   0.00000  Uiso   1.00
N394   N     0.28573   0.49998   0.25001   0.00000  Uiso   1.00
O395   O     0.08315   0.37132   0.24955   0.00000  Uiso   1.00
C396   C     0.05415   0.37756   0.30566   0.00000  Uiso   1.00
H397   H     0.02022   0.39184   0.30628   0.00000  Uiso   1.00
H398   H     0.07134   0.40008   0.32497   0.00000  Uiso   1.00
C399   C     0.04116   0.33748   0.34102   0.00000  Uiso   1.00
H400   H     0.01885   0.65004   0.32592   0.00000  Uiso   1.00
H401   H     0.07427   0.65431   0.33905   0.00000  Uiso   1.00
C402   C     0.01371   0.34660   0.40133   0.00000  Uiso   1.00
H403   H     0.02975   0.37349   0.41500   0.00000  Uiso   1.00
H404   H     0.01530   0.65298   0.42704   0.00000  Uiso   1.00
H405   H     0.30877   0.35240   0.40799   0.00000  Uiso   1.00
N406   N     0.10452   0.62769   0.20679   0.00000  Uiso   1.00
O407   O     0.11110   0.64069   0.15719   0.00000  Uiso   1.00
O408   O     0.06256   0.61207   0.23600   0.00000  Uiso   1.00
N409   N     0.30208   0.43346   0.20385   0.00000  Uiso   1.00
O410   O     0.31259   0.39646   0.21565   0.00000  Uiso   1.00
O411   O     0.29023   0.43879   0.16106   0.00000  Uiso   1.00
N412   N     0.26648   0.42617   0.39984   0.00000  Uiso   1.00
O413   O     0.30838   0.44219   0.39440   0.00000  Uiso   1.00
O414   O     0.26448   0.39875   0.36467   0.00000  Uiso   1.00
O415   O     0.27703   0.41342   0.49879   0.00000  Uiso   1.00
C416   C     0.24686   0.37856   0.02213   0.00000  Uiso   1.00
H417   H     0.24202   0.36062   0.48845   0.00000  Uiso   1.00
H418   H     0.20979   0.38620   0.05099   0.00000  Uiso   1.00
C419   C     0.27077   0.35131   0.05306   0.00000  Uiso   1.00
H420   H     0.30623   0.34073   0.02436   0.00000  Uiso   1.00
H421   H     0.27694   0.36944   0.08590   0.00000  Uiso   1.00
C422   C     0.23883   0.64718   0.07904   0.00000  Uiso   1.00
H423   H     0.20424   0.65730   0.10993   0.00000  Uiso   1.00
H424   H     0.25694   0.62696   0.09999   0.00000  Uiso   1.00
H425   H     0.23148   0.62908   0.04700   0.00000  Uiso   1.00
N426   N     0.16732   0.55488   0.06866   0.00000  Uiso   1.00
O427   O     0.16239   0.57218   0.11499   0.00000  Uiso   1.00
O428   O     0.16544   0.57843   0.02865   0.00000  Uiso   1.00
O429   O     0.04200   0.52307   0.42034   0.00000  Uiso   1.00
C430   C     0.02763   0.56490   0.42415   0.00000  Uiso   1.00
H431   H     0.03926   0.57848   0.38199   0.00000  Uiso   1.00
H432   H     0.04490   0.58491   0.44657   0.00000  Uiso   1.00
C433   C     0.30578   0.56729   0.45172   0.00000  Uiso   1.00
H434   H     0.29257   0.54546   0.48733   0.00000  Uiso   1.00
H435   H     0.29567   0.59882   0.46749   0.00000  Uiso   1.00
C436   C     0.28010   0.55741   0.41207   0.00000  Uiso   1.00
H437   H     0.29025   0.58074   0.37811   0.00000  Uiso   1.00
H438   H     0.24045   0.55840   0.43389   0.00000  Uiso   1.00
H439   H     0.28965   0.52608   0.39518   0.00000  Uiso   1.00
O440   O     0.01984   0.53470   0.03401   0.00000  Uiso   1.00
C441   C     0.02099   0.57181   0.06190   0.00000  Uiso   1.00
H442   H     0.00378   0.59635   0.04542   0.00000  Uiso   1.00
H443   H     0.05790   0.58367   0.05643   0.00000  Uiso   1.00
C444   C     0.32499   0.56550   0.12302   0.00000  Uiso   1.00
H445   H     0.28668   0.55920   0.12854   0.00000  Uiso   1.00
H446   H     0.00561   0.53845   0.13907   0.00000  Uiso   1.00
C447   C     0.32784   0.60345   0.15577   0.00000  Uiso   1.00
H448   H     0.03227   0.60876   0.15276   0.00000  Uiso   1.00
H449   H     0.30487   0.59842   0.19954   0.00000  Uiso   1.00
H450   H     0.31531   0.63137   0.14001   0.00000  Uiso   1.00
O451   O     0.17992   0.42575   0.37683   0.00000  Uiso   1.00
C452   C     0.14127   0.39718   0.40139   0.00000  Uiso   1.00
H453   H     0.12879   0.38603   0.36874   0.00000  Uiso   1.00
H454   H     0.10913   0.41135   0.43255   0.00000  Uiso   1.00
C455   C     0.15769   0.35984   0.42671   0.00000  Uiso   1.00
H456   H     0.19052   0.34666   0.39593   0.00000  Uiso   1.00
H457   H     0.16658   0.36983   0.46261   0.00000  Uiso   1.00
C458   C     0.11847   0.65959   0.44561   0.00000  Uiso   1.00
H459   H     0.08479   0.33867   0.47591   0.00000  Uiso   1.00
H460   H     0.13088   0.63367   0.46527   0.00000  Uiso   1.00
H461   H     0.11085   0.64743   0.40991   0.00000  Uiso   1.00
N462   N     0.22388   0.62553   0.30239   0.00000  Uiso   1.00
O463   O     0.20167   0.59992   0.34264   0.00000  Uiso   1.00
O464   O     0.26650   0.63953   0.29757   0.00000  Uiso   1.00
O465   O     0.46179   0.56108   0.25001   0.00000  Uiso   1.00
O466   O     0.53823   0.56107   0.25001   0.00000  Uiso   1.00
C467   C     0.50021   0.58009   0.24982   0.00000  Uiso   1.00
O468   O     0.44280   0.50000   0.32681   0.00000  Uiso   1.00
O469   O     0.51924   0.49999   0.32681   0.00000  Uiso   1.00
C470   C     0.47257   0.49911   0.35283   0.00000  Uiso   1.00
Zn471  Zn    0.44896   0.50001   0.25000   0.00000  Uiso   1.00
Zn472  Zn    0.55104   0.49999   0.25000   0.00000  Uiso   1.00
O473   O     0.46177   0.43893   0.25000   0.00000  Uiso   1.00
O474   O     0.53821   0.43892   0.25000   0.00000  Uiso   1.00
O475   O     0.48076   0.50001   0.17319   0.00000  Uiso   1.00
O476   O     0.55720   0.50000   0.17319   0.00000  Uiso   1.00
C477   C     0.49899   0.42008   0.25221   0.00000  Uiso   1.00
C478   C     0.52715   0.50042   0.14736   0.00000  Uiso   1.00
C479   C     0.58377   0.44905   0.01381   0.00000  Uiso   1.00
H480   H     0.59792   0.45137   0.08766   0.00000  Uiso   1.00
C481   C     0.54495   0.49606   0.08773   0.00000  Uiso   1.00
C482   C     0.40956   0.51617   0.44442   0.00000  Uiso   1.00
C483   C     0.39911   0.52294   0.00094   0.00000  Uiso   1.00
C484   C     0.43445   0.51445   0.02368   0.00000  Uiso   1.00
C485   C     0.47920   0.49771   0.49160   0.00000  Uiso   1.00
C486   C     0.48390   0.48234   0.44016   0.00000  Uiso   1.00
C487   C     0.51715   0.49186   0.01156   0.00000  Uiso   1.00
C488   C     0.55385   0.46293   0.48561   0.00000  Uiso   1.00
C489   C     0.55657   0.44571   0.43508   0.00000  Uiso   1.00
C490   C     0.51817   0.45149   0.41667   0.00000  Uiso   1.00
C491   C     0.51913   0.51346   0.05741   0.00000  Uiso   1.00
C492   C     0.57874   0.46566   0.06444   0.00000  Uiso   1.00
C493   C     0.45365   0.49750   0.41346   0.00000  Uiso   1.00
H494   H     0.42571   0.51911   0.06718   0.00000  Uiso   1.00
C495   C     0.53029   0.64592   0.27363   0.00000  Uiso   1.00
C496   C     0.53168   0.35521   0.27043   0.00000  Uiso   1.00
H497   H     0.55706   0.37208   0.28379   0.00000  Uiso   1.00
C498   C     0.49690   0.37602   0.25610   0.00000  Uiso   1.00
C499   C     0.46010   0.35414   0.24603   0.00000  Uiso   1.00
C500   C     0.46652   0.64628   0.23447   0.00000  Uiso   1.00
C501   C     0.49959   0.62442   0.25187   0.00000  Uiso   1.00
C502   C     0.65038   0.46829   0.22692   0.00000  Uiso   1.00
C503   C     0.36496   0.46901   0.22618   0.00000  Uiso   1.00
H504   H     0.38935   0.44449   0.20668   0.00000  Uiso   1.00
N505   N     0.38093   0.50001   0.25002   0.00000  Uiso   1.00
C506   C     0.34921   0.52996   0.27617   0.00000  Uiso   1.00
H507   H     0.36036   0.55334   0.29841   0.00000  Uiso   1.00
C508   C     0.63507   0.53040   0.27526   0.00000  Uiso   1.00
H509   H     0.61099   0.55469   0.29555   0.00000  Uiso   1.00
N510   N     0.61906   0.49998   0.25001   0.00000  Uiso   1.00
O511   O     0.41648   0.37132   0.24955   0.00000  Uiso   1.00
C512   C     0.38749   0.37756   0.30566   0.00000  Uiso   1.00
H513   H     0.35355   0.39184   0.30628   0.00000  Uiso   1.00
H514   H     0.40468   0.40008   0.32497   0.00000  Uiso   1.00
C515   C     0.37449   0.33748   0.34102   0.00000  Uiso   1.00
H516   H     0.35218   0.65004   0.32592   0.00000  Uiso   1.00
H517   H     0.40761   0.65431   0.33905   0.00000  Uiso   1.00
C518   C     0.34704   0.34660   0.40133   0.00000  Uiso   1.00
H519   H     0.36308   0.37349   0.41500   0.00000  Uiso   1.00
H520   H     0.34863   0.65298   0.42704   0.00000  Uiso   1.00
H521   H     0.64210   0.35240   0.40799   0.00000  Uiso   1.00
N522   N     0.43785   0.62769   0.20679   0.00000  Uiso   1.00
O523   O     0.44444   0.64069   0.15719   0.00000  Uiso   1.00
O524   O     0.39589   0.61207   0.23600   0.00000  Uiso   1.00
N525   N     0.63541   0.43346   0.20385   0.00000  Uiso   1.00
O526   O     0.64592   0.39646   0.21565   0.00000  Uiso   1.00
O527   O     0.62356   0.43879   0.16106   0.00000  Uiso   1.00
N528   N     0.59981   0.42617   0.39984   0.00000  Uiso   1.00
O529   O     0.64171   0.44219   0.39440   0.00000  Uiso   1.00
O530   O     0.59782   0.39875   0.36467   0.00000  Uiso   1.00
O531   O     0.61036   0.41342   0.49879   0.00000  Uiso   1.00
C532   C     0.58020   0.37856   0.02213   0.00000  Uiso   1.00
H533   H     0.57535   0.36062   0.48845   0.00000  Uiso   1.00
H534   H     0.54312   0.38620   0.05099   0.00000  Uiso   1.00
C535   C     0.60410   0.35131   0.05306   0.00000  Uiso   1.00
H536   H     0.63956   0.34073   0.02436   0.00000  Uiso   1.00
H537   H     0.61028   0.36944   0.08590   0.00000  Uiso   1.00
C538   C     0.57217   0.64718   0.07904   0.00000  Uiso   1.00
H539   H     0.53757   0.65730   0.10993   0.00000  Uiso   1.00
H540   H     0.59027   0.62696   0.09999   0.00000  Uiso   1.00
H541   H     0.56481   0.62908   0.04700   0.00000  Uiso   1.00
N542   N     0.50065   0.55488   0.06866   0.00000  Uiso   1.00
O543   O     0.49572   0.57218   0.11499   0.00000  Uiso   1.00
O544   O     0.49878   0.57843   0.02865   0.00000  Uiso   1.00
O545   O     0.37533   0.52307   0.42034   0.00000  Uiso   1.00
C546   C     0.36096   0.56490   0.42415   0.00000  Uiso   1.00
H547   H     0.37259   0.57848   0.38199   0.00000  Uiso   1.00
H548   H     0.37823   0.58491   0.44657   0.00000  Uiso   1.00
C549   C     0.63911   0.56729   0.45172   0.00000  Uiso   1.00
H550   H     0.62590   0.54546   0.48733   0.00000  Uiso   1.00
H551   H     0.62900   0.59882   0.46749   0.00000  Uiso   1.00
C552   C     0.61344   0.55741   0.41207   0.00000  Uiso   1.00
H553   H     0.62358   0.58074   0.37811   0.00000  Uiso   1.00
H554   H     0.57378   0.55840   0.43389   0.00000  Uiso   1.00
H555   H     0.62299   0.52608   0.39518   0.00000  Uiso   1.00
O556   O     0.35317   0.53470   0.03401   0.00000  Uiso   1.00
C557   C     0.35432   0.57181   0.06190   0.00000  Uiso   1.00
H558   H     0.33711   0.59635   0.04542   0.00000  Uiso   1.00
H559   H     0.39124   0.58367   0.05643   0.00000  Uiso   1.00
C560   C     0.65832   0.56550   0.12302   0.00000  Uiso   1.00
H561   H     0.62001   0.55920   0.12854   0.00000  Uiso   1.00
H562   H     0.33894   0.53845   0.13907   0.00000  Uiso   1.00
C563   C     0.66117   0.60345   0.15577   0.00000  Uiso   1.00
H564   H     0.36561   0.60876   0.15276   0.00000  Uiso   1.00
H565   H     0.63820   0.59842   0.19954   0.00000  Uiso   1.00
H566   H     0.64864   0.63137   0.14001   0.00000  Uiso   1.00
O567   O     0.51326   0.42575   0.37683   0.00000  Uiso   1.00
C568   C     0.47460   0.39718   0.40139   0.00000  Uiso   1.00
H569   H     0.46213   0.38603   0.36874   0.00000  Uiso   1.00
H570   H     0.44246   0.41135   0.43255   0.00000  Uiso   1.00
C571   C     0.49102   0.35984   0.42671   0.00000  Uiso   1.00
H572   H     0.52385   0.34666   0.39593   0.00000  Uiso   1.00
H573   H     0.49991   0.36983   0.46261   0.00000  Uiso   1.00
C574   C     0.45180   0.65959   0.44561   0.00000  Uiso   1.00
H575   H     0.41813   0.33867   0.47591   0.00000  Uiso   1.00
H576   H     0.46421   0.63367   0.46527   0.00000  Uiso   1.00
H577   H     0.44419   0.64743   0.40991   0.00000  Uiso   1.00
N578   N     0.55722   0.62553   0.30239   0.00000  Uiso   1.00
O579   O     0.53500   0.59992   0.34264   0.00000  Uiso   1.00
O580   O     0.59983   0.63953   0.29757   0.00000  Uiso   1.00
O581   O     0.79512   0.56108   0.25001   0.00000  Uiso   1.00
O582   O     0.87157   0.56107   0.25001   0.00000  Uiso   1.00
C583   C     0.83355   0.58009   0.24982   0.00000  Uiso   1.00
O584   O     0.77613   0.50000   0.32681   0.00000  Uiso   1.00
O585   O     0.85258   0.49999   0.32681   0.00000  Uiso   1.00
C586   C     0.80590   0.49911   0.35283   0.00000  Uiso   1.00
Zn587  Zn    0.78229   0.50001   0.25000   0.00000  Uiso   1.00
Zn588  Zn    0.88438   0.49999   0.25000   0.00000  Uiso   1.00
O589   O     0.79510   0.43893   0.25000   0.00000  Uiso   1.00
O590   O     0.87154   0.43892   0.25000   0.00000  Uiso   1.00
O591   O     0.81409   0.50001   0.17319   0.00000  Uiso   1.00
O592   O     0.89053   0.50000   0.17319   0.00000  Uiso   1.00
C593   C     0.83233   0.42008   0.25221   0.00000  Uiso   1.00
C594   C     0.86048   0.50042   0.14736   0.00000  Uiso   1.00
C595   C     0.91711   0.44905   0.01381   0.00000  Uiso   1.00
H596   H     0.93126   0.45137   0.08766   0.00000  Uiso   1.00
C597   C     0.87829   0.49606   0.08773   0.00000  Uiso   1.00
C598   C     0.74289   0.51617   0.44442   0.00000  Uiso   1.00
C599   C     0.73245   0.52294   0.00094   0.00000  Uiso   1.00
C600   C     0.76779   0.51445   0.02368   0.00000  Uiso   1.00
C601   C     0.81253   0.49771   0.49160   0.00000  Uiso   1.00
C602   C     0.81723   0.48234   0.44016   0.00000  Uiso   1.00
C603   C     0.85048   0.49186   0.01156   0.00000  Uiso   1.00
C604   C     0.88718   0.46293   0.48561   0.00000  Uiso   1.00
C605   C     0.88990   0.44571   0.43508   0.00000  Uiso   1.00
C606   C     0.85150   0.45149   0.41667   0.00000  Uiso   1.00
C607   C     0.85246   0.51346   0.05741   0.00000  Uiso   1.00
C608   C     0.91207   0.46566   0.06444   0.00000  Uiso   1.00
C609   C     0.78698   0.49750   0.41346   0.00000  Uiso   1.00
H610   H     0.75904   0.51911   0.06718   0.00000  Uiso   1.00
C611   C     0.86362   0.64592   0.27363   0.00000  Uiso   1.00
C612   C     0.86501   0.35521   0.27043   0.00000  Uiso   1.00
H613   H     0.89039   0.37208   0.28379   0.00000  Uiso   1.00
C614   C     0.83024   0.37602   0.25610   0.00000  Uiso   1.00
C615   C     0.79343   0.35414   0.24603   0.00000  Uiso   1.00
C616   C     0.79985   0.64628   0.23447   0.00000  Uiso   1.00
C617   C     0.83292   0.62442   0.25187   0.00000  Uiso   1.00
C618   C     0.98371   0.46829   0.22692   0.00000  Uiso   1.00
C619   C     0.69830   0.46901   0.22618   0.00000  Uiso   1.00
H620   H     0.72268   0.44449   0.20668   0.00000  Uiso   1.00
N621   N     0.71426   0.50001   0.25002   0.00000  Uiso   1.00
C622   C     0.68255   0.52996   0.27617   0.00000  Uiso   1.00
H623   H     0.69369   0.55334   0.29841   0.00000  Uiso   1.00
C624   C     0.96840   0.53040   0.27526   0.00000  Uiso   1.00
H625   H     0.94432   0.55469   0.29555   0.00000  Uiso   1.00
N626   N     0.95239   0.49998   0.25001   0.00000  Uiso   1.00
O627   O     0.74981   0.37132   0.24955   0.00000  Uiso   1.00
C628   C     0.72082   0.37756   0.30566   0.00000  Uiso   1.00
H629   H     0.68688   0.39184   0.30628   0.00000  Uiso   1.00
H630   H     0.73801   0.40008   0.32497   0.00000  Uiso   1.00
C631   C     0.70783   0.33748   0.34102   0.00000  Uiso   1.00
H632   H     0.68551   0.65004   0.32592   0.00000  Uiso   1.00
H633   H     0.74094   0.65431   0.33905   0.00000  Uiso   1.00
C634   C     0.68037   0.34660   0.40133   0.00000  Uiso   1.00
H635   H     0.69641   0.37349   0.41500   0.00000  Uiso   1.00
H636   H     0.68196   0.65298   0.42704   0.00000  Uiso   1.00
H637   H     0.97543   0.35240   0.40799   0.00000  Uiso   1.00
N638   N     0.77119   0.62769   0.20679   0.00000  Uiso   1.00
O639   O     0.77777   0.64069   0.15719   0.00000  Uiso   1.00
O640   O     0.72923   0.61207   0.23600   0.00000  Uiso   1.00
N641   N     0.96875   0.43346   0.20385   0.00000  Uiso   1.00
O642   O     0.97925   0.39646   0.21565   0.00000  Uiso   1.00
O643   O     0.95690   0.43879   0.16106   0.00000  Uiso   1.00
N644   N     0.93315   0.42617   0.39984   0.00000  Uiso   1.00
O645   O     0.97504   0.44219   0.39440   0.00000  Uiso   1.00
O646   O     0.93115   0.39875   0.36467   0.00000  Uiso   1.00
O647   O     0.94370   0.41342   0.49879   0.00000  Uiso   1.00
C648   C     0.91353   0.37856   0.02213   0.00000  Uiso   1.00
H649   H     0.90869   0.36062   0.48845   0.00000  Uiso   1.00
H650   H     0.87646   0.38620   0.05099   0.00000  Uiso   1.00
C651   C     0.93743   0.35131   0.05306   0.00000  Uiso   1.00
H652   H     0.97290   0.34073   0.02436   0.00000  Uiso   1.00
H653   H     0.94361   0.36944   0.08590   0.00000  Uiso   1.00
C654   C     0.90550   0.64718   0.07904   0.00000  Uiso   1.00
H655   H     0.87090   0.65730   0.10993   0.00000  Uiso   1.00
H656   H     0.92360   0.62696   0.09999   0.00000  Uiso   1.00
H657   H     0.89815   0.62908   0.04700   0.00000  Uiso   1.00
N658   N     0.83398   0.55488   0.06866   0.00000  Uiso   1.00
O659   O     0.82905   0.57218   0.11499   0.00000  Uiso   1.00
O660   O     0.83211   0.57843   0.02865   0.00000  Uiso   1.00
O661   O     0.70867   0.52307   0.42034   0.00000  Uiso   1.00
C662   C     0.69430   0.56490   0.42415   0.00000  Uiso   1.00
H663   H     0.70593   0.57848   0.38199   0.00000  Uiso   1.00
H664   H     0.71157   0.58491   0.44657   0.00000  Uiso   1.00
C665   C     0.97244   0.56729   0.45172   0.00000  Uiso   1.00
H666   H     0.95924   0.54546   0.48733   0.00000  Uiso   1.00
H667   H     0.96234   0.59882   0.46749   0.00000  Uiso   1.00
C668   C     0.94677   0.55741   0.41207   0.00000  Uiso   1.00
H669   H     0.95691   0.58074   0.37811   0.00000  Uiso   1.00
H670   H     0.90712   0.55840   0.43389   0.00000  Uiso   1.00
H671   H     0.95632   0.52608   0.39518   0.00000  Uiso   1.00
O672   O     0.68650   0.53470   0.03401   0.00000  Uiso   1.00
C673   C     0.68765   0.57181   0.06190   0.00000  Uiso   1.00
H674   H     0.67044   0.59635   0.04542   0.00000  Uiso   1.00
H675   H     0.72457   0.58367   0.05643   0.00000  Uiso   1.00
C676   C     0.99166   0.56550   0.12302   0.00000  Uiso   1.00
H677   H     0.95335   0.55920   0.12854   0.00000  Uiso   1.00
H678   H     0.67227   0.53845   0.13907   0.00000  Uiso   1.00
C679   C     0.99451   0.60345   0.15577   0.00000  Uiso   1.00
H680   H     0.69894   0.60876   0.15276   0.00000  Uiso   1.00
H681   H     0.97153   0.59842   0.19954   0.00000  Uiso   1.00
H682   H     0.98197   0.63137   0.14001   0.00000  Uiso   1.00
O683   O     0.84659   0.42575   0.37683   0.00000  Uiso   1.00
C684   C     0.80794   0.39718   0.40139   0.00000  Uiso   1.00
H685   H     0.79546   0.38603   0.36874   0.00000  Uiso   1.00
H686   H     0.77580   0.41135   0.43255   0.00000  Uiso   1.00
C687   C     0.82436   0.35984   0.42671   0.00000  Uiso   1.00
H688   H     0.85718   0.34666   0.39593   0.00000  Uiso   1.00
H689   H     0.83325   0.36983   0.46261   0.00000  Uiso   1.00
C690   C     0.78514   0.65959   0.44561   0.00000  Uiso   1.00
H691   H     0.75146   0.33867   0.47591   0.00000  Uiso   1.00
H692   H     0.79754   0.63367   0.46527   0.00000  Uiso   1.00
H693   H     0.77752   0.64743   0.40991   0.00000  Uiso   1.00
N694   N     0.89055   0.62553   0.30239   0.00000  Uiso   1.00
O695   O     0.86833   0.59992   0.34264   0.00000  Uiso   1.00
O696   O     0.93316   0.63953   0.29757   0.00000  Uiso   1.00
O697   O     0.12846   0.89442   0.25001   0.00000  Uiso   1.00
O698   O     0.20490   0.89441   0.25001   0.00000  Uiso   1.00
C699   C     0.16688   0.91342   0.24982   0.00000  Uiso   1.00
O700   O     0.10947   0.83333   0.32681   0.00000  Uiso   1.00
O701   O     0.18591   0.83332   0.32681   0.00000  Uiso   1.00
C702   C     0.13924   0.83244   0.35283   0.00000  Uiso   1.00
Zn703  Zn    0.11562   0.83334   0.25000   0.00000  Uiso   1.00
Zn704  Zn    0.21771   0.83333   0.25000   0.00000  Uiso   1.00
O705   O     0.12843   0.77226   0.25000   0.00000  Uiso   1.00
O706   O     0.20488   0.77225   0.25000   0.00000  Uiso   1.00
O707   O     0.14742   0.83335   0.17319   0.00000  Uiso   1.00
O708   O     0.22387   0.83334   0.17319   0.00000  Uiso   1.00
C709   C     0.16566   0.75342   0.25221   0.00000  Uiso   1.00
C710   C     0.19381   0.83376   0.14736   0.00000  Uiso   1.00
C711   C     0.25044   0.78239   0.01381   0.00000  Uiso   1.00
H712   H     0.26459   0.78470   0.08766   0.00000  Uiso   1.00
C713   C     0.21162   0.82940   0.08773   0.00000  Uiso   1.00
C714   C     0.07622   0.84951   0.44442   0.00000  Uiso   1.00
C715   C     0.06578   0.85627   0.00094   0.00000  Uiso   1.00
C716   C     0.10112   0.84778   0.02368   0.00000  Uiso   1.00
C717   C     0.14586   0.83104   0.49160   0.00000  Uiso   1.00
C718   C     0.15056   0.81568   0.44016   0.00000  Uiso   1.00
C719   C     0.18382   0.82519   0.01156   0.00000  Uiso   1.00
C720   C     0.22051   0.79626   0.48561   0.00000  Uiso   1.00
C721   C     0.22323   0.77904   0.43508   0.00000  Uiso   1.00
C722   C     0.18483   0.78483   0.41667   0.00000  Uiso   1.00
C723   C     0.18580   0.84679   0.05741   0.00000  Uiso   1.00
C724   C     0.24541   0.79900   0.06444   0.00000  Uiso   1.00
C725   C     0.12031   0.83083   0.41346   0.00000  Uiso   1.00
H726   H     0.09238   0.85245   0.06718   0.00000  Uiso   1.00
C727   C     0.19696   0.97925   0.27363   0.00000  Uiso   1.00
C728   C     0.19834   0.68854   0.27043   0.00000  Uiso   1.00
H729   H     0.22372   0.70541   0.28379   0.00000  Uiso   1.00
C730   C     0.16357   0.70936   0.25610   0.00000  Uiso   1.00
C731   C     0.12676   0.68748   0.24603   0.00000  Uiso   1.00
C732   C     0.13318   0.97961   0.23447   0.00000  Uiso   1.00
C733   C     0.16626   0.95776   0.25187   0.00000  Uiso   1.00
C734   C     0.31704   0.80162   0.22692   0.00000  Uiso   1.00
C735   C     0.03163   0.80235   0.22618   0.00000  Uiso   1.00
H736   H     0.05602   0.77782   0.20668   0.00000  Uiso   1.00
N737   N     0.04760   0.83334   0.25002   0.00000  Uiso   1.00
C738   C     0.01588   0.86329   0.27617   0.00000  Uiso   1.00
H739   H     0.02703   0.88668   0.29841   0.00000  Uiso   1.00
C740   C     0.30174   0.86373   0.27526   0.00000  Uiso   1.00
H741   H     0.27765   0.88802   0.29555   0.00000  Uiso   1.00
N742   N     0.28573   0.83331   0.25001   0.00000  Uiso   1.00
O743   O     0.08315   0.70466   0.24955   0.00000  Uiso   1.00
C744   C     0.05415   0.71089   0.30566   0.00000  Uiso   1.00
H745   H     0.02022   0.72517   0.30628   0.00000  Uiso   1.00
H746   H     0.07134   0.73341   0.32497   0.00000  Uiso   1.00
C747   C     0.04116   0.67081   0.34102   0.00000  Uiso   1.00
H748   H     0.01885   0.98338   0.32592   0.00000  Uiso   1.00
H749   H     0.07427   0.98764   0.33905   0.00000  Uiso   1.00
C750   C     0.01371   0.67994   0.40133   0.00000  Uiso   1.00
H751   H     0.02975   0.70683   0.41500   0.00000  Uiso   1.00
H752   H     0.01530   0.98631   0.42704   0.00000  Uiso   1.00
H753   H     0.30877   0.68573   0.40799   0.00000  Uiso   1.00
N754   N     0.10452   0.96102   0.20679   0.00000  Uiso   1.00
O755   O     0.11110   0.97402   0.15719   0.00000  Uiso   1.00
O756   O     0.06256   0.94540   0.23600   0.00000  Uiso   1.00
N757   N     0.30208   0.76679   0.20385   0.00000  Uiso   1.00
O758   O     0.31259   0.72979   0.21565   0.00000  Uiso   1.00
O759   O     0.29023   0.77213   0.16106   0.00000  Uiso   1.00
N760   N     0.26648   0.75950   0.39984   0.00000  Uiso   1.00
O761   O     0.30838   0.77553   0.39440   0.00000  Uiso   1.00
O762   O     0.26448   0.73209   0.36467   0.00000  Uiso   1.00
O763   O     0.27703   0.74676   0.49879   0.00000  Uiso   1.00
C764   C     0.24686   0.71189   0.02213   0.00000  Uiso   1.00
H765   H     0.24202   0.69395   0.48845   0.00000  Uiso   1.00
H766   H     0.20979   0.71953   0.05099   0.00000  Uiso   1.00
C767   C     0.27077   0.68465   0.05306   0.00000  Uiso   1.00
H768   H     0.30623   0.67406   0.02436   0.00000  Uiso   1.00
H769   H     0.27694   0.70278   0.08590   0.00000  Uiso   1.00
C770   C     0.23883   0.98052   0.07904   0.00000  Uiso   1.00
H771   H     0.20424   0.99063   0.10993   0.00000  Uiso   1.00
H772   H     0.25694   0.96029   0.09999   0.00000  Uiso   1.00
H773   H     0.23148   0.96241   0.04700   0.00000  Uiso   1.00
N774   N     0.16732   0.88821   0.06866   0.00000  Uiso   1.00
O775   O     0.16239   0.90551   0.11499   0.00000  Uiso   1.00
O776   O     0.16544   0.91176   0.02865   0.00000  Uiso   1.00
O777   O     0.04200   0.85641   0.42034   0.00000  Uiso   1.00
C778   C     0.02763   0.89823   0.42415   0.00000  Uiso   1.00
H779   H     0.03926   0.91181   0.38199   0.00000  Uiso   1.00
H780   H     0.04490   0.91824   0.44657   0.00000  Uiso   1.00
C781   C     0.30578   0.90062   0.45172   0.00000  Uiso   1.00
H782   H     0.29257   0.87879   0.48733   0.00000  Uiso   1.00
H783   H     0.29567   0.93216   0.46749   0.00000  Uiso   1.00
C784   C     0.28010   0.89074   0.41207   0.00000  Uiso   1.00
H785   H     0.29025   0.91407   0.37811   0.00000  Uiso   1.00
H786   H     0.24045   0.89173   0.43389   0.00000  Uiso   1.00
H787   H     0.28965   0.85941   0.39518   0.00000  Uiso   1.00
O788   O     0.01984   0.86804   0.03401   0.00000  Uiso   1.00
C789   C     0.02099   0.90515   0.06190   0.00000  Uiso   1.00
H790   H     0.00378   0.92968   0.04542   0.00000  Uiso   1.00
H791   H     0.05790   0.91700   0.05643   0.00000  Uiso   1.00
C792   C     0.32499   0.89883   0.12302   0.00000  Uiso   1.00
H793   H     0.28668   0.89254   0.12854   0.00000  Uiso   1.00
H794   H     0.00561   0.87178   0.13907   0.00000  Uiso   1.00
C795   C     0.32784   0.93678   0.15577   0.00000  Uiso   1.00
H796   H     0.03227   0.94209   0.15276   0.00000  Uiso   1.00
H797   H     0.30487   0.93175   0.19954   0.00000  Uiso   1.00
H798   H     0.31531   0.96471   0.14001   0.00000  Uiso   1.00
O799   O     0.17992   0.75908   0.37683   0.00000  Uiso   1.00
C800   C     0.14127   0.73051   0.40139   0.00000  Uiso   1.00
H801   H     0.12879   0.71936   0.36874   0.00000  Uiso   1.00
H802   H     0.10913   0.74468   0.43255   0.00000  Uiso   1.00
C803   C     0.15769   0.69318   0.42671   0.00000  Uiso   1.00
H804   H     0.19052   0.67999   0.39593   0.00000  Uiso   1.00
H805   H     0.16658   0.70316   0.46261   0.00000  Uiso   1.00
C806   C     0.11847   0.99292   0.44561   0.00000  Uiso   1.00
H807   H     0.08479   0.67200   0.47591   0.00000  Uiso   1.00
H808   H     0.13088   0.96701   0.46527   0.00000  Uiso   1.00
H809   H     0.11085   0.98077   0.40991   0.00000  Uiso   1.00
N810   N     0.22388   0.95887   0.30239   0.00000  Uiso   1.00
O811   O     0.20167   0.93325   0.34264   0.00000  Uiso   1.00
O812   O     0.26650   0.97287   0.29757   0.00000  Uiso   1.00
O813   O     0.46179   0.89442   0.25001   0.00000  Uiso   1.00
O814   O     0.53823   0.89441   0.25001   0.00000  Uiso   1.00
C815   C     0.50021   0.91342   0.24982   0.00000  Uiso   1.00
O816   O     0.44280   0.83333   0.32681   0.00000  Uiso   1.00
O817   O     0.51924   0.83332   0.32681   0.00000  Uiso   1.00
C818   C     0.47257   0.83244   0.35283   0.00000  Uiso   1.00
Zn819  Zn    0.44896   0.83334   0.25000   0.00000  Uiso   1.00
Zn820  Zn    0.55104   0.83333   0.25000   0.00000  Uiso   1.00
O821   O     0.46177   0.77226   0.25000   0.00000  Uiso   1.00
O822   O     0.53821   0.77225   0.25000   0.00000  Uiso   1.00
O823   O     0.48076   0.83335   0.17319   0.00000  Uiso   1.00
O824   O     0.55720   0.83334   0.17319   0.00000  Uiso   1.00
C825   C     0.49899   0.75342   0.25221   0.00000  Uiso   1.00
C826   C     0.52715   0.83376   0.14736   0.00000  Uiso   1.00
C827   C     0.58377   0.78239   0.01381   0.00000  Uiso   1.00
H828   H     0.59792   0.78470   0.08766   0.00000  Uiso   1.00
C829   C     0.54495   0.82940   0.08773   0.00000  Uiso   1.00
C830   C     0.40956   0.84951   0.44442   0.00000  Uiso   1.00
C831   C     0.39911   0.85627   0.00094   0.00000  Uiso   1.00
C832   C     0.43445   0.84778   0.02368   0.00000  Uiso   1.00
C833   C     0.47920   0.83104   0.49160   0.00000  Uiso   1.00
C834   C     0.48390   0.81568   0.44016   0.00000  Uiso   1.00
C835   C     0.51715   0.82519   0.01156   0.00000  Uiso   1.00
C836   C     0.55385   0.79626   0.48561   0.00000  Uiso   1.00
C837   C     0.55657   0.77904   0.43508   0.00000  Uiso   1.00
C838   C     0.51817   0.78483   0.41667   0.00000  Uiso   1.00
C839   C     0.51913   0.84679   0.05741   0.00000  Uiso   1.00
C840   C     0.57874   0.79900   0.06444   0.00000  Uiso   1.00
C841   C     0.45365   0.83083   0.41346   0.00000  Uiso   1.00
H842   H     0.42571   0.85245   0.06718   0.00000  Uiso   1.00
C843   C     0.53029   0.97925   0.27363   0.00000  Uiso   1.00
C844   C     0.53168   0.68854   0.27043   0.00000  Uiso   1.00
H845   H     0.55706   0.70541   0.28379   0.00000  Uiso   1.00
C846   C     0.49690   0.70936   0.25610   0.00000  Uiso   1.00
C847   C     0.46010   0.68748   0.24603   0.00000  Uiso   1.00
C848   C     0.46652   0.97961   0.23447   0.00000  Uiso   1.00
C849   C     0.49959   0.95776   0.25187   0.00000  Uiso   1.00
C850   C     0.65038   0.80162   0.22692   0.00000  Uiso   1.00
C851   C     0.36496   0.80235   0.22618   0.00000  Uiso   1.00
H852   H     0.38935   0.77782   0.20668   0.00000  Uiso   1.00
N853   N     0.38093   0.83334   0.25002   0.00000  Uiso   1.00
C854   C     0.34921   0.86329   0.27617   0.00000  Uiso   1.00
H855   H     0.36036   0.88668   0.29841   0.00000  Uiso   1.00
C856   C     0.63507   0.86373   0.27526   0.00000  Uiso   1.00
H857   H     0.61099   0.88802   0.29555   0.00000  Uiso   1.00
N858   N     0.61906   0.83331   0.25001   0.00000  Uiso   1.00
O859   O     0.41648   0.70466   0.24955   0.00000  Uiso   1.00
C860   C     0.38749   0.71089   0.30566   0.00000  Uiso   1.00
H861   H     0.35355   0.72517   0.30628   0.00000  Uiso   1.00
H862   H     0.40468   0.73341   0.32497   0.00000  Uiso   1.00
C863   C     0.37449   0.67081   0.34102   0.00000  Uiso   1.00
H864   H     0.35218   0.98338   0.32592   0.00000  Uiso   1.00
H865   H     0.40761   0.98764   0.33905   0.00000  Uiso   1.00
C866   C     0.34704   0.67994   0.40133   0.00000  Uiso   1.00
H867   H     0.36308   0.70683   0.41500   0.00000  Uiso   1.00
H868   H     0.34863   0.98631   0.42704   0.00000  Uiso   1.00
H869   H     0.64210   0.68573   0.40799   0.00000  Uiso   1.00
N870   N     0.43785   0.96102   0.20679   0.00000  Uiso   1.00
O871   O     0.44444   0.97402   0.15719   0.00000  Uiso   1.00
O872   O     0.39589   0.94540   0.23600   0.00000  Uiso   1.00
N873   N     0.63541   0.76679   0.20385   0.00000  Uiso   1.00
O874   O     0.64592   0.72979   0.21565   0.00000  Uiso   1.00
O875   O     0.62356   0.77213   0.16106   0.00000  Uiso   1.00
N876   N     0.59981   0.75950   0.39984   0.00000  Uiso   1.00
O877   O     0.64171   0.77553   0.39440   0.00000  Uiso   1.00
O878   O     0.59782   0.73209   0.36467   0.00000  Uiso   1.00
O879   O     0.61036   0.74676   0.49879   0.00000  Uiso   1.00
C880   C     0.58020   0.71189   0.02213   0.00000  Uiso   1.00
H881   H     0.57535   0.69395   0.48845   0.00000  Uiso   1.00
H882   H     0.54312   0.71953   0.05099   0.00000  Uiso   1.00
C883   C     0.60410   0.68465   0.05306   0.00000  Uiso   1.00
H884   H     0.63956   0.67406   0.02436   0.00000  Uiso   1.00
H885   H     0.61028   0.70278   0.08590   0.00000  Uiso   1.00
C886   C     0.57217   0.98052   0.07904   0.00000  Uiso   1.00
H887   H     0.53757   0.99063   0.10993   0.00000  Uiso   1.00
H888   H     0.59027   0.96029   0.09999   0.00000  Uiso   1.00
H889   H     0.56481   0.96241   0.04700   0.00000  Uiso   1.00
N890   N     0.50065   0.88821   0.06866   0.00000  Uiso   1.00
O891   O     0.49572   0.90551   0.11499   0.00000  Uiso   1.00
O892   O     0.49878   0.91176   0.02865   0.00000  Uiso   1.00
O893   O     0.37533   0.85641   0.42034   0.00000  Uiso   1.00
C894   C     0.36096   0.89823   0.42415   0.00000  Uiso   1.00
H895   H     0.37259   0.91181   0.38199   0.00000  Uiso   1.00
H896   H     0.37823   0.91824   0.44657   0.00000  Uiso   1.00
C897   C     0.63911   0.90062   0.45172   0.00000  Uiso   1.00
H898   H     0.62590   0.87879   0.48733   0.00000  Uiso   1.00
H899   H     0.62900   0.93216   0.46749   0.00000  Uiso   1.00
C900   C     0.61344   0.89074   0.41207   0.00000  Uiso   1.00
H901   H     0.62358   0.91407   0.37811   0.00000  Uiso   1.00
H902   H     0.57378   0.89173   0.43389   0.00000  Uiso   1.00
H903   H     0.62299   0.85941   0.39518   0.00000  Uiso   1.00
O904   O     0.35317   0.86804   0.03401   0.00000  Uiso   1.00
C905   C     0.35432   0.90515   0.06190   0.00000  Uiso   1.00
H906   H     0.33711   0.92968   0.04542   0.00000  Uiso   1.00
H907   H     0.39124   0.91700   0.05643   0.00000  Uiso   1.00
C908   C     0.65832   0.89883   0.12302   0.00000  Uiso   1.00
H909   H     0.62001   0.89254   0.12854   0.00000  Uiso   1.00
H910   H     0.33894   0.87178   0.13907   0.00000  Uiso   1.00
C911   C     0.66117   0.93678   0.15577   0.00000  Uiso   1.00
H912   H     0.36561   0.94209   0.15276   0.00000  Uiso   1.00
H913   H     0.63820   0.93175   0.19954   0.00000  Uiso   1.00
H914   H     0.64864   0.96471   0.14001   0.00000  Uiso   1.00
O915   O     0.51326   0.75908   0.37683   0.00000  Uiso   1.00
C916   C     0.47460   0.73051   0.40139   0.00000  Uiso   1.00
H917   H     0.46213   0.71936   0.36874   0.00000  Uiso   1.00
H918   H     0.44246   0.74468   0.43255   0.00000  Uiso   1.00
C919   C     0.49102   0.69318   0.42671   0.00000  Uiso   1.00
H920   H     0.52385   0.67999   0.39593   0.00000  Uiso   1.00
H921   H     0.49991   0.70316   0.46261   0.00000  Uiso   1.00
C922   C     0.45180   0.99292   0.44561   0.00000  Uiso   1.00
H923   H     0.41813   0.67200   0.47591   0.00000  Uiso   1.00
H924   H     0.46421   0.96701   0.46527   0.00000  Uiso   1.00
H925   H     0.44419   0.98077   0.40991   0.00000  Uiso   1.00
N926   N     0.55722   0.95887   0.30239   0.00000  Uiso   1.00
O927   O     0.53500   0.93325   0.34264   0.00000  Uiso   1.00
O928   O     0.59983   0.97287   0.29757   0.00000  Uiso   1.00
O929   O     0.79512   0.89442   0.25001   0.00000  Uiso   1.00
O930   O     0.87157   0.89441   0.25001   0.00000  Uiso   1.00
C931   C     0.83355   0.91342   0.24982   0.00000  Uiso   1.00
O932   O     0.77613   0.83333   0.32681   0.00000  Uiso   1.00
O933   O     0.85258   0.83332   0.32681   0.00000  Uiso   1.00
C934   C     0.80590   0.83244   0.35283   0.00000  Uiso   1.00
Zn935  Zn    0.78229   0.83334   0.25000   0.00000  Uiso   1.00
Zn936  Zn    0.88438   0.83333   0.25000   0.00000  Uiso   1.00
O937   O     0.79510   0.77226   0.25000   0.00000  Uiso   1.00
O938   O     0.87154   0.77225   0.25000   0.00000  Uiso   1.00
O939   O     0.81409   0.83335   0.17319   0.00000  Uiso   1.00
O940   O     0.89053   0.83334   0.17319   0.00000  Uiso   1.00
C941   C     0.83233   0.75342   0.25221   0.00000  Uiso   1.00
C942   C     0.86048   0.83376   0.14736   0.00000  Uiso   1.00
C943   C     0.91711   0.78239   0.01381   0.00000  Uiso   1.00
H944   H     0.93126   0.78470   0.08766   0.00000  Uiso   1.00
C945   C     0.87829   0.82940   0.08773   0.00000  Uiso   1.00
C946   C     0.74289   0.84951   0.44442   0.00000  Uiso   1.00
C947   C     0.73245   0.85627   0.00094   0.00000  Uiso   1.00
C948   C     0.76779   0.84778   0.02368   0.00000  Uiso   1.00
C949   C     0.81253   0.83104   0.49160   0.00000  Uiso   1.00
C950   C     0.81723   0.81568   0.44016   0.00000  Uiso   1.00
C951   C     0.85048   0.82519   0.01156   0.00000  Uiso   1.00
C952   C     0.88718   0.79626   0.48561   0.00000  Uiso   1.00
C953   C     0.88990   0.77904   0.43508   0.00000  Uiso   1.00
C954   C     0.85150   0.78483   0.41667   0.00000  Uiso   1.00
C955   C     0.85246   0.84679   0.05741   0.00000  Uiso   1.00
C956   C     0.91207   0.79900   0.06444   0.00000  Uiso   1.00
C957   C     0.78698   0.83083   0.41346   0.00000  Uiso   1.00
H958   H     0.75904   0.85245   0.06718   0.00000  Uiso   1.00
C959   C     0.86362   0.97925   0.27363   0.00000  Uiso   1.00
C960   C     0.86501   0.68854   0.27043   0.00000  Uiso   1.00
H961   H     0.89039   0.70541   0.28379   0.00000  Uiso   1.00
C962   C     0.83024   0.70936   0.25610   0.00000  Uiso   1.00
C963   C     0.79343   0.68748   0.24603   0.00000  Uiso   1.00
C964   C     0.79985   0.97961   0.23447   0.00000  Uiso   1.00
C965   C     0.83292   0.95776   0.25187   0.00000  Uiso   1.00
C966   C     0.98371   0.80162   0.22692   0.00000  Uiso   1.00
C967   C     0.69830   0.80235   0.22618   0.00000  Uiso   1.00
H968   H     0.72268   0.77782   0.20668   0.00000  Uiso   1.00
N969   N     0.71426   0.83334   0.25002   0.00000  Uiso   1.00
C970   C     0.68255   0.86329   0.27617   0.00000  Uiso   1.00
H971   H     0.69369   0.88668   0.29841   0.00000  Uiso   1.00
C972   C     0.96840   0.86373   0.27526   0.00000  Uiso   1.00
H973   H     0.94432   0.88802   0.29555   0.00000  Uiso   1.00
N974   N     0.95239   0.83331   0.25001   0.00000  Uiso   1.00
O975   O     0.74981   0.70466   0.24955   0.00000  Uiso   1.00
C976   C     0.72082   0.71089   0.30566   0.00000  Uiso   1.00
H977   H     0.68688   0.72517   0.30628   0.00000  Uiso   1.00
H978   H     0.73801   0.73341   0.32497   0.00000  Uiso   1.00
C979   C     0.70783   0.67081   0.34102   0.00000  Uiso   1.00
H980   H     0.68551   0.98338   0.32592   0.00000  Uiso   1.00
H981   H     0.74094   0.98764   0.33905   0.00000  Uiso   1.00
C982   C     0.68037   0.67994   0.40133   0.00000  Uiso   1.00
H983   H     0.69641   0.70683   0.41500   0.00000  Uiso   1.00
H984   H     0.68196   0.98631   0.42704   0.00000  Uiso   1.00
H985   H     0.97543   0.68573   0.40799   0.00000  Uiso   1.00
N986   N     0.77119   0.96102   0.20679   0.00000  Uiso   1.00
O987   O     0.77777   0.97402   0.15719   0.00000  Uiso   1.00
O988   O     0.72923   0.94540   0.23600   0.00000  Uiso   1.00
N989   N     0.96875   0.76679   0.20385   0.00000  Uiso   1.00
O990   O     0.97925   0.72979   0.21565   0.00000  Uiso   1.00
O991   O     0.95690   0.77213   0.16106   0.00000  Uiso   1.00
N992   N     0.93315   0.75950   0.39984   0.00000  Uiso   1.00
O993   O     0.97504   0.77553   0.39440   0.00000  Uiso   1.00
O994   O     0.93115   0.73209   0.36467   0.00000  Uiso   1.00
O995   O     0.94370   0.74676   0.49879   0.00000  Uiso   1.00
C996   C     0.91353   0.71189   0.02213   0.00000  Uiso   1.00
H997   H     0.90869   0.69395   0.48845   0.00000  Uiso   1.00
H998   H     0.87646   0.71953   0.05099   0.00000  Uiso   1.00
C999   C     0.93743   0.68465   0.05306   0.00000  Uiso   1.00
H1000  H     0.97290   0.67406   0.02436   0.00000  Uiso   1.00
H1001  H     0.94361   0.70278   0.08590   0.00000  Uiso   1.00
C1002  C     0.90550   0.98052   0.07904   0.00000  Uiso   1.00
H1003  H     0.87090   0.99063   0.10993   0.00000  Uiso   1.00
H1004  H     0.92360   0.96029   0.09999   0.00000  Uiso   1.00
H1005  H     0.89815   0.96241   0.04700   0.00000  Uiso   1.00
N1006  N     0.83398   0.88821   0.06866   0.00000  Uiso   1.00
O1007  O     0.82905   0.90551   0.11499   0.00000  Uiso   1.00
O1008  O     0.83211   0.91176   0.02865   0.00000  Uiso   1.00
O1009  O     0.70867   0.85641   0.42034   0.00000  Uiso   1.00
C1010  C     0.69430   0.89823   0.42415   0.00000  Uiso   1.00
H1011  H     0.70593   0.91181   0.38199   0.00000  Uiso   1.00
H1012  H     0.71157   0.91824   0.44657   0.00000  Uiso   1.00
C1013  C     0.97244   0.90062   0.45172   0.00000  Uiso   1.00
H1014  H     0.95924   0.87879   0.48733   0.00000  Uiso   1.00
H1015  H     0.96234   0.93216   0.46749   0.00000  Uiso   1.00
C1016  C     0.94677   0.89074   0.41207   0.00000  Uiso   1.00
H1017  H     0.95691   0.91407   0.37811   0.00000  Uiso   1.00
H1018  H     0.90712   0.89173   0.43389   0.00000  Uiso   1.00
H1019  H     0.95632   0.85941   0.39518   0.00000  Uiso   1.00
O1020  O     0.68650   0.86804   0.03401   0.00000  Uiso   1.00
C1021  C     0.68765   0.90515   0.06190   0.00000  Uiso   1.00
H1022  H     0.67044   0.92968   0.04542   0.00000  Uiso   1.00
H1023  H     0.72457   0.91700   0.05643   0.00000  Uiso   1.00
C1024  C     0.99166   0.89883   0.12302   0.00000  Uiso   1.00
H1025  H     0.95335   0.89254   0.12854   0.00000  Uiso   1.00
H1026  H     0.67227   0.87178   0.13907   0.00000  Uiso   1.00
C1027  C     0.99451   0.93678   0.15577   0.00000  Uiso   1.00
H1028  H     0.69894   0.94209   0.15276   0.00000  Uiso   1.00
H1029  H     0.97153   0.93175   0.19954   0.00000  Uiso   1.00
H1030  H     0.98197   0.96471   0.14001   0.00000  Uiso   1.00
O1031  O     0.84659   0.75908   0.37683   0.00000  Uiso   1.00
C1032  C     0.80794   0.73051   0.40139   0.00000  Uiso   1.00
H1033  H     0.79546   0.71936   0.36874   0.00000  Uiso   1.00
H1034  H     0.77580   0.74468   0.43255   0.00000  Uiso   1.00
C1035  C     0.82436   0.69318   0.42671   0.00000  Uiso   1.00
H1036  H     0.85718   0.67999   0.39593   0.00000  Uiso   1.00
H1037  H     0.83325   0.70316   0.46261   0.00000  Uiso   1.00
C1038  C     0.78514   0.99292   0.44561   0.00000  Uiso   1.00
H1039  H     0.75146   0.67200   0.47591   0.00000  Uiso   1.00
H1040  H     0.79754   0.96701   0.46527   0.00000  Uiso   1.00
H1041  H     0.77752   0.98077   0.40991   0.00000  Uiso   1.00
N1042  N     0.89055   0.95887   0.30239   0.00000  Uiso   1.00
O1043  O     0.86833   0.93325   0.34264   0.00000  Uiso   1.00
O1044  O     0.93316   0.97287   0.29757   0.00000  Uiso   1.00
O1045  O     0.12846   0.22775   0.75001   0.00000  Uiso   1.00
O1046  O     0.20490   0.22774   0.75001   0.00000  Uiso   1.00
C1047  C     0.16688   0.24675   0.74982   0.00000  Uiso   1.00
O1048  O     0.10947   0.16666   0.82681   0.00000  Uiso   1.00
O1049  O     0.18591   0.16665   0.82681   0.00000  Uiso   1.00
C1050  C     0.13924   0.16577   0.85283   0.00000  Uiso   1.00
Zn1051 Zn    0.11562   0.16667   0.75000   0.00000  Uiso   1.00
Zn1052 Zn    0.21771   0.16666   0.75000   0.00000  Uiso   1.00
O1053  O     0.12843   0.10559   0.75000   0.00000  Uiso   1.00
O1054  O     0.20488   0.10558   0.75000   0.00000  Uiso   1.00
O1055  O     0.14742   0.16668   0.67319   0.00000  Uiso   1.00
O1056  O     0.22387   0.16667   0.67319   0.00000  Uiso   1.00
C1057  C     0.16566   0.08675   0.75221   0.00000  Uiso   1.00
C1058  C     0.19381   0.16709   0.64736   0.00000  Uiso   1.00
C1059  C     0.25044   0.11572   0.51381   0.00000  Uiso   1.00
H1060  H     0.26459   0.11804   0.58766   0.00000  Uiso   1.00
C1061  C     0.21162   0.16273   0.58773   0.00000  Uiso   1.00
C1062  C     0.07622   0.18284   0.94442   0.00000  Uiso   1.00
C1063  C     0.06578   0.18960   0.50094   0.00000  Uiso   1.00
C1064  C     0.10112   0.18111   0.52368   0.00000  Uiso   1.00
C1065  C     0.14586   0.16437   0.99160   0.00000  Uiso   1.00
C1066  C     0.15056   0.14901   0.94016   0.00000  Uiso   1.00
C1067  C     0.18382   0.15852   0.51156   0.00000  Uiso   1.00
C1068  C     0.22051   0.12960   0.98561   0.00000  Uiso   1.00
C1069  C     0.22323   0.11237   0.93508   0.00000  Uiso   1.00
C1070  C     0.18483   0.11816   0.91667   0.00000  Uiso   1.00
C1071  C     0.18580   0.18013   0.55741   0.00000  Uiso   1.00
C1072  C     0.24541   0.13233   0.56444   0.00000  Uiso   1.00
C1073  C     0.12031   0.16416   0.91346   0.00000  Uiso   1.00
H1074  H     0.09238   0.18578   0.56718   0.00000  Uiso   1.00
C1075  C     0.19696   0.31259   0.77363   0.00000  Uiso   1.00
C1076  C     0.19834   0.02188   0.77043   0.00000  Uiso   1.00
H1077  H     0.22372   0.03875   0.78379   0.00000  Uiso   1.00
C1078  C     0.16357   0.04269   0.75610   0.00000  Uiso   1.00
C1079  C     0.12676   0.02081   0.74603   0.00000  Uiso   1.00
C1080  C     0.13318   0.31295   0.73447   0.00000  Uiso   1.00
C1081  C     0.16626   0.29109   0.75187   0.00000  Uiso   1.00
C1082  C     0.31704   0.13496   0.72692   0.00000  Uiso   1.00
C1083  C     0.03163   0.13568   0.72618   0.00000  Uiso   1.00
H1084  H     0.05602   0.11116   0.70668   0.00000  Uiso   1.00
N1085  N     0.04760   0.16668   0.75002   0.00000  Uiso   1.00
C1086  C     0.01588   0.19662   0.77617   0.00000  Uiso   1.00
H1087  H     0.02703   0.22001   0.79841   0.00000  Uiso   1.00
C1088  C     0.30174   0.19707   0.77526   0.00000  Uiso   1.00
H1089  H     0.27765   0.22136   0.79555   0.00000  Uiso   1.00
N1090  N     0.28573   0.16665   0.75001   0.00000  Uiso   1.00
O1091  O     0.08315   0.03799   0.74955   0.00000  Uiso   1.00
C1092  C     0.05415   0.04422   0.80566   0.00000  Uiso   1.00
H1093  H     0.02022   0.05850   0.80628   0.00000  Uiso   1.00
H1094  H     0.07134   0.06674   0.82497   0.00000  Uiso   1.00
C1095  C     0.04116   0.00415   0.84102   0.00000  Uiso   1.00
H1096  H     0.01885   0.31671   0.82592   0.00000  Uiso   1.00
H1097  H     0.07427   0.32098   0.83905   0.00000  Uiso   1.00
C1098  C     0.01371   0.01327   0.90133   0.00000  Uiso   1.00
H1099  H     0.02975   0.04016   0.91500   0.00000  Uiso   1.00
H1100  H     0.01530   0.31964   0.92704   0.00000  Uiso   1.00
H1101  H     0.30877   0.01906   0.90799   0.00000  Uiso   1.00
N1102  N     0.10452   0.29436   0.70679   0.00000  Uiso   1.00
O1103  O     0.11110   0.30736   0.65719   0.00000  Uiso   1.00
O1104  O     0.06256   0.27874   0.73600   0.00000  Uiso   1.00
N1105  N     0.30208   0.10013   0.70385   0.00000  Uiso   1.00
O1106  O     0.31259   0.06313   0.71565   0.00000  Uiso   1.00
O1107  O     0.29023   0.10546   0.66106   0.00000  Uiso   1.00
N1108  N     0.26648   0.09283   0.89984   0.00000  Uiso   1.00
O1109  O     0.30838   0.10886   0.89440   0.00000  Uiso   1.00
O1110  O     0.26448   0.06542   0.86467   0.00000  Uiso   1.00
O1111  O     0.27703   0.08009   0.99879   0.00000  Uiso   1.00
C1112  C     0.24686   0.04523   0.52213   0.00000  Uiso   1.00
H1113  H     0.24202   0.02728   0.98845   0.00000  Uiso   1.00
H1114  H     0.20979   0.05287   0.55099   0.00000  Uiso   1.00
C1115  C     0.27077   0.01798   0.55306   0.00000  Uiso   1.00
H1116  H     0.30623   0.00740   0.52436   0.00000  Uiso   1.00
H1117  H     0.27694   0.03611   0.58590   0.00000  Uiso   1.00
C1118  C     0.23883   0.31385   0.57904   0.00000  Uiso   1.00
H1119  H     0.20424   0.32397   0.60993   0.00000  Uiso   1.00
H1120  H     0.25694   0.29363   0.59999   0.00000  Uiso   1.00
H1121  H     0.23148   0.29574   0.54700   0.00000  Uiso   1.00
N1122  N     0.16732   0.22155   0.56866   0.00000  Uiso   1.00
O1123  O     0.16239   0.23884   0.61499   0.00000  Uiso   1.00
O1124  O     0.16544   0.24510   0.52865   0.00000  Uiso   1.00
O1125  O     0.04200   0.18974   0.92034   0.00000  Uiso   1.00
C1126  C     0.02763   0.23157   0.92415   0.00000  Uiso   1.00
H1127  H     0.03926   0.24514   0.88199   0.00000  Uiso   1.00
H1128  H     0.04490   0.25157   0.94657   0.00000  Uiso   1.00
C1129  C     0.30578   0.23395   0.95172   0.00000  Uiso   1.00
H1130  H     0.29257   0.21213   0.98733   0.00000  Uiso   1.00
H1131  H     0.29567   0.26549   0.96749   0.00000  Uiso   1.00
C1132  C     0.28010   0.22408   0.91207   0.00000  Uiso   1.00
H1133  H     0.29025   0.24741   0.87811   0.00000  Uiso   1.00
H1134  H     0.24045   0.22507   0.93389   0.00000  Uiso   1.00
H1135  H     0.28965   0.19275   0.89518   0.00000  Uiso   1.00
O1136  O     0.01984   0.20137   0.53401   0.00000  Uiso   1.00
C1137  C     0.02099   0.23848   0.56190   0.00000  Uiso   1.00
H1138  H     0.00378   0.26302   0.54542   0.00000  Uiso   1.00
H1139  H     0.05790   0.25033   0.55643   0.00000  Uiso   1.00
C1140  C     0.32499   0.23216   0.62302   0.00000  Uiso   1.00
H1141  H     0.28668   0.22587   0.62854   0.00000  Uiso   1.00
H1142  H     0.00561   0.20511   0.63907   0.00000  Uiso   1.00
C1143  C     0.32784   0.27012   0.65577   0.00000  Uiso   1.00
H1144  H     0.03227   0.27542   0.65276   0.00000  Uiso   1.00
H1145  H     0.30487   0.26508   0.69954   0.00000  Uiso   1.00
H1146  H     0.31531   0.29804   0.64001   0.00000  Uiso   1.00
O1147  O     0.17992   0.09242   0.87683   0.00000  Uiso   1.00
C1148  C     0.14127   0.06384   0.90139   0.00000  Uiso   1.00
H1149  H     0.12879   0.05269   0.86874   0.00000  Uiso   1.00
H1150  H     0.10913   0.07802   0.93255   0.00000  Uiso   1.00
C1151  C     0.15769   0.02651   0.92671   0.00000  Uiso   1.00
H1152  H     0.19052   0.01332   0.89593   0.00000  Uiso   1.00
H1153  H     0.16658   0.03649   0.96261   0.00000  Uiso   1.00
C1154  C     0.11847   0.32626   0.94561   0.00000  Uiso   1.00
H1155  H     0.08479   0.00534   0.97591   0.00000  Uiso   1.00
H1156  H     0.13088   0.30034   0.96527   0.00000  Uiso   1.00
H1157  H     0.11085   0.31410   0.90991   0.00000  Uiso   1.00
N1158  N     0.22388   0.29220   0.80239   0.00000  Uiso   1.00
O1159  O     0.20167   0.26659   0.84264   0.00000  Uiso   1.00
O1160  O     0.26650   0.30620   0.79757   0.00000  Uiso   1.00
O1161  O     0.46179   0.22775   0.75001   0.00000  Uiso   1.00
O1162  O     0.53823   0.22774   0.75001   0.00000  Uiso   1.00
C1163  C     0.50021   0.24675   0.74982   0.00000  Uiso   1.00
O1164  O     0.44280   0.16666   0.82681   0.00000  Uiso   1.00
O1165  O     0.51924   0.16665   0.82681   0.00000  Uiso   1.00
C1166  C     0.47257   0.16577   0.85283   0.00000  Uiso   1.00
Zn1167 Zn    0.44896   0.16667   0.75000   0.00000  Uiso   1.00
Zn1168 Zn    0.55104   0.16666   0.75000   0.00000  Uiso   1.00
O1169  O     0.46177   0.10559   0.75000   0.00000  Uiso   1.00
O1170  O     0.53821   0.10558   0.75000   0.00000  Uiso   1.00
O1171  O     0.48076   0.16668   0.67319   0.00000  Uiso   1.00
O1172  O     0.55720   0.16667   0.67319   0.00000  Uiso   1.00
C1173  C     0.49899   0.08675   0.75221   0.00000  Uiso   1.00
C1174  C     0.52715   0.16709   0.64736   0.00000  Uiso   1.00
C1175  C     0.58377   0.11572   0.51381   0.00000  Uiso   1.00
H1176  H     0.59792   0.11804   0.58766   0.00000  Uiso   1.00
C1177  C     0.54495   0.16273   0.58773   0.00000  Uiso   1.00
C1178  C     0.40956   0.18284   0.94442   0.00000  Uiso   1.00
C1179  C     0.39911   0.18960   0.50094   0.00000  Uiso   1.00
C1180  C     0.43445   0.18111   0.52368   0.00000  Uiso   1.00
C1181  C     0.47920   0.16437   0.99160   0.00000  Uiso   1.00
C1182  C     0.48390   0.14901   0.94016   0.00000  Uiso   1.00
C1183  C     0.51715   0.15852   0.51156   0.00000  Uiso   1.00
C1184  C     0.55385   0.12960   0.98561   0.00000  Uiso   1.00
C1185  C     0.55657   0.11237   0.93508   0.00000  Uiso   1.00
C1186  C     0.51817   0.11816   0.91667   0.00000  Uiso   1.00
C1187  C     0.51913   0.18013   0.55741   0.00000  Uiso   1.00
C1188  C     0.57874   0.13233   0.56444   0.00000  Uiso   1.00
C1189  C     0.45365   0.16416   0.91346   0.00000  Uiso   1.00
H1190  H     0.42571   0.18578   0.56718   0.00000  Uiso   1.00
C1191  C     0.53029   0.31259   0.77363   0.00000  Uiso   1.00
C1192  C     0.53168   0.02188   0.77043   0.00000  Uiso   1.00
H1193  H     0.55706   0.03875   0.78379   0.00000  Uiso   1.00
C1194  C     0.49690   0.04269   0.75610   0.00000  Uiso   1.00
C1195  C     0.46010   0.02081   0.74603   0.00000  Uiso   1.00
C1196  C     0.46652   0.31295   0.73447   0.00000  Uiso   1.00
C1197  C     0.49959   0.29109   0.75187   0.00000  Uiso   1.00
C1198  C     0.65038   0.13496   0.72692   0.00000  Uiso   1.00
C1199  C     0.36496   0.13568   0.72618   0.00000  Uiso   1.00
H1200  H     0.38935   0.11116   0.70668   0.00000  Uiso   1.00
N1201  N     0.38093   0.16668   0.75002   0.00000  Uiso   1.00
C1202  C     0.34921   0.19662   0.77617   0.00000  Uiso   1.00
H1203  H     0.36036   0.22001   0.79841   0.00000  Uiso   1.00
C1204  C     0.63507   0.19707   0.77526   0.00000  Uiso   1.00
H1205  H     0.61099   0.22136   0.79555   0.00000  Uiso   1.00
N1206  N     0.61906   0.16665   0.75001   0.00000  Uiso   1.00
O1207  O     0.41648   0.03799   0.74955   0.00000  Uiso   1.00
C1208  C     0.38749   0.04422   0.80566   0.00000  Uiso   1.00
H1209  H     0.35355   0.05850   0.80628   0.00000  Uiso   1.00
H1210  H     0.40468   0.06674   0.82497   0.00000  Uiso   1.00
C1211  C     0.37449   0.00415   0.84102   0.00000  Uiso   1.00
H1212  H     0.35218   0.31671   0.82592   0.00000  Uiso   1.00
H1213  H     0.40761   0.32098   0.83905   0.00000  Uiso   1.00
C1214  C     0.34704   0.01327   0.90133   0.00000  Uiso   1.00
H1215  H     0.36308   0.04016   0.91500   0.00000  Uiso   1.00
H1216  H     0.34863   0.31964   0.92704   0.00000  Uiso   1.00
H1217  H     0.64210   0.01906   0.90799   0.00000  Uiso   1.00
N1218  N     0.43785   0.29436   0.70679   0.00000  Uiso   1.00
O1219  O     0.44444   0.30736   0.65719   0.00000  Uiso   1.00
O1220  O     0.39589   0.27874   0.73600   0.00000  Uiso   1.00
N1221  N     0.63541   0.10013   0.70385   0.00000  Uiso   1.00
O1222  O     0.64592   0.06313   0.71565   0.00000  Uiso   1.00
O1223  O     0.62356   0.10546   0.66106   0.00000  Uiso   1.00
N1224  N     0.59981   0.09283   0.89984   0.00000  Uiso   1.00
O1225  O     0.64171   0.10886   0.89440   0.00000  Uiso   1.00
O1226  O     0.59782   0.06542   0.86467   0.00000  Uiso   1.00
O1227  O     0.61036   0.08009   0.99879   0.00000  Uiso   1.00
C1228  C     0.58020   0.04523   0.52213   0.00000  Uiso   1.00
H1229  H     0.57535   0.02728   0.98845   0.00000  Uiso   1.00
H1230  H     0.54312   0.05287   0.55099   0.00000  Uiso   1.00
C1231  C     0.60410   0.01798   0.55306   0.00000  Uiso   1.00
H1232  H     0.63956   0.00740   0.52436   0.00000  Uiso   1.00
H1233  H     0.61028   0.03611   0.58590   0.00000  Uiso   1.00
C1234  C     0.57217   0.31385   0.57904   0.00000  Uiso   1.00
H1235  H     0.53757   0.32397   0.60993   0.00000  Uiso   1.00
H1236  H     0.59027   0.29363   0.59999   0.00000  Uiso   1.00
H1237  H     0.56481   0.29574   0.54700   0.00000  Uiso   1.00
N1238  N     0.50065   0.22155   0.56866   0.00000  Uiso   1.00
O1239  O     0.49572   0.23884   0.61499   0.00000  Uiso   1.00
O1240  O     0.49878   0.24510   0.52865   0.00000  Uiso   1.00
O1241  O     0.37533   0.18974   0.92034   0.00000  Uiso   1.00
C1242  C     0.36096   0.23157   0.92415   0.00000  Uiso   1.00
H1243  H     0.37259   0.24514   0.88199   0.00000  Uiso   1.00
H1244  H     0.37823   0.25157   0.94657   0.00000  Uiso   1.00
C1245  C     0.63911   0.23395   0.95172   0.00000  Uiso   1.00
H1246  H     0.62590   0.21213   0.98733   0.00000  Uiso   1.00
H1247  H     0.62900   0.26549   0.96749   0.00000  Uiso   1.00
C1248  C     0.61344   0.22408   0.91207   0.00000  Uiso   1.00
H1249  H     0.62358   0.24741   0.87811   0.00000  Uiso   1.00
H1250  H     0.57378   0.22507   0.93389   0.00000  Uiso   1.00
H1251  H     0.62299   0.19275   0.89518   0.00000  Uiso   1.00
O1252  O     0.35317   0.20137   0.53401   0.00000  Uiso   1.00
C1253  C     0.35432   0.23848   0.56190   0.00000  Uiso   1.00
H1254  H     0.33711   0.26302   0.54542   0.00000  Uiso   1.00
H1255  H     0.39124   0.25033   0.55643   0.00000  Uiso   1.00
C1256  C     0.65832   0.23216   0.62302   0.00000  Uiso   1.00
H1257  H     0.62001   0.22587   0.62854   0.00000  Uiso   1.00
H1258  H     0.33894   0.20511   0.63907   0.00000  Uiso   1.00
C1259  C     0.66117   0.27012   0.65577   0.00000  Uiso   1.00
H1260  H     0.36561   0.27542   0.65276   0.00000  Uiso   1.00
H1261  H     0.63820   0.26508   0.69954   0.00000  Uiso   1.00
H1262  H     0.64864   0.29804   0.64001   0.00000  Uiso   1.00
O1263  O     0.51326   0.09242   0.87683   0.00000  Uiso   1.00
C1264  C     0.47460   0.06384   0.90139   0.00000  Uiso   1.00
H1265  H     0.46213   0.05269   0.86874   0.00000  Uiso   1.00
H1266  H     0.44246   0.07802   0.93255   0.00000  Uiso   1.00
C1267  C     0.49102   0.02651   0.92671   0.00000  Uiso   1.00
H1268  H     0.52385   0.01332   0.89593   0.00000  Uiso   1.00
H1269  H     0.49991   0.03649   0.96261   0.00000  Uiso   1.00
C1270  C     0.45180   0.32626   0.94561   0.00000  Uiso   1.00
H1271  H     0.41813   0.00534   0.97591   0.00000  Uiso   1.00
H1272  H     0.46421   0.30034   0.96527   0.00000  Uiso   1.00
H1273  H     0.44419   0.31410   0.90991   0.00000  Uiso   1.00
N1274  N     0.55722   0.29220   0.80239   0.00000  Uiso   1.00
O1275  O     0.53500   0.26659   0.84264   0.00000  Uiso   1.00
O1276  O     0.59983   0.30620   0.79757   0.00000  Uiso   1.00
O1277  O     0.79512   0.22775   0.75001   0.00000  Uiso   1.00
O1278  O     0.87157   0.22774   0.75001   0.00000  Uiso   1.00
C1279  C     0.83355   0.24675   0.74982   0.00000  Uiso   1.00
O1280  O     0.77613   0.16666   0.82681   0.00000  Uiso   1.00
O1281  O     0.85258   0.16665   0.82681   0.00000  Uiso   1.00
C1282  C     0.80590   0.16577   0.85283   0.00000  Uiso   1.00
Zn1283 Zn    0.78229   0.16667   0.75000   0.00000  Uiso   1.00
Zn1284 Zn    0.88438   0.16666   0.75000   0.00000  Uiso   1.00
O1285  O     0.79510   0.10559   0.75000   0.00000  Uiso   1.00
O1286  O     0.87154   0.10558   0.75000   0.00000  Uiso   1.00
O1287  O     0.81409   0.16668   0.67319   0.00000  Uiso   1.00
O1288  O     0.89053   0.16667   0.67319   0.00000  Uiso   1.00
C1289  C     0.83233   0.08675   0.75221   0.00000  Uiso   1.00
C1290  C     0.86048   0.16709   0.64736   0.00000  Uiso   1.00
C1291  C     0.91711   0.11572   0.51381   0.00000  Uiso   1.00
H1292  H     0.93126   0.11804   0.58766   0.00000  Uiso   1.00
C1293  C     0.87829   0.16273   0.58773   0.00000  Uiso   1.00
C1294  C     0.74289   0.18284   0.94442   0.00000  Uiso   1.00
C1295  C     0.73245   0.18960   0.50094   0.00000  Uiso   1.00
C1296  C     0.76779   0.18111   0.52368   0.00000  Uiso   1.00
C1297  C     0.81253   0.16437   0.99160   0.00000  Uiso   1.00
C1298  C     0.81723   0.14901   0.94016   0.00000  Uiso   1.00
C1299  C     0.85048   0.15852   0.51156   0.00000  Uiso   1.00
C1300  C     0.88718   0.12960   0.98561   0.00000  Uiso   1.00
C1301  C     0.88990   0.11237   0.93508   0.00000  Uiso   1.00
C1302  C     0.85150   0.11816   0.91667   0.00000  Uiso   1.00
C1303  C     0.85246   0.18013   0.55741   0.00000  Uiso   1.00
C1304  C     0.91207   0.13233   0.56444   0.00000  Uiso   1.00
C1305  C     0.78698   0.16416   0.91346   0.00000  Uiso   1.00
H1306  H     0.75904   0.18578   0.56718   0.00000  Uiso   1.00
C1307  C     0.86362   0.31259   0.77363   0.00000  Uiso   1.00
C1308  C     0.86501   0.02188   0.77043   0.00000  Uiso   1.00
H1309  H     0.89039   0.03875   0.78379   0.00000  Uiso   1.00
C1310  C     0.83024   0.04269   0.75610   0.00000  Uiso   1.00
C1311  C     0.79343   0.02081   0.74603   0.00000  Uiso   1.00
C1312  C     0.79985   0.31295   0.73447   0.00000  Uiso   1.00
C1313  C     0.83292   0.29109   0.75187   0.00000  Uiso   1.00
C1314  C     0.98371   0.13496   0.72692   0.00000  Uiso   1.00
C1315  C     0.69830   0.13568   0.72618   0.00000  Uiso   1.00
H1316  H     0.72268   0.11116   0.70668   0.00000  Uiso   1.00
N1317  N     0.71426   0.16668   0.75002   0.00000  Uiso   1.00
C1318  C     0.68255   0.19662   0.77617   0.00000  Uiso   1.00
H1319  H     0.69369   0.22001   0.79841   0.00000  Uiso   1.00
C1320  C     0.96840   0.19707   0.77526   0.00000  Uiso   1.00
H1321  H     0.94432   0.22136   0.79555   0.00000  Uiso   1.00
N1322  N     0.95239   0.16665   0.75001   0.00000  Uiso   1.00
O1323  O     0.74981   0.03799   0.74955   0.00000  Uiso   1.00
C1324  C     0.72082   0.04422   0.80566   0.00000  Uiso   1.00
H1325  H     0.68688   0.05850   0.80628   0.00000  Uiso   1.00
H1326  H     0.73801   0.06674   0.82497   0.00000  Uiso   1.00
C1327  C     0.70783   0.00415   0.84102   0.00000  Uiso   1.00
H1328  H     0.68551   0.31671   0.82592   0.00000  Uiso   1.00
H1329  H     0.74094   0.32098   0.83905   0.00000  Uiso   1.00
C1330  C     0.68037   0.01327   0.90133   0.00000  Uiso   1.00
H1331  H     0.69641   0.04016   0.91500   0.00000  Uiso   1.00
H1332  H     0.68196   0.31964   0.92704   0.00000  Uiso   1.00
H1333  H     0.97543   0.01906   0.90799   0.00000  Uiso   1.00
N1334  N     0.77119   0.29436   0.70679   0.00000  Uiso   1.00
O1335  O     0.77777   0.30736   0.65719   0.00000  Uiso   1.00
O1336  O     0.72923   0.27874   0.73600   0.00000  Uiso   1.00
N1337  N     0.96875   0.10013   0.70385   0.00000  Uiso   1.00
O1338  O     0.97925   0.06313   0.71565   0.00000  Uiso   1.00
O1339  O     0.95690   0.10546   0.66106   0.00000  Uiso   1.00
N1340  N     0.93315   0.09283   0.89984   0.00000  Uiso   1.00
O1341  O     0.97504   0.10886   0.89440   0.00000  Uiso   1.00
O1342  O     0.93115   0.06542   0.86467   0.00000  Uiso   1.00
O1343  O     0.94370   0.08009   0.99879   0.00000  Uiso   1.00
C1344  C     0.91353   0.04523   0.52213   0.00000  Uiso   1.00
H1345  H     0.90869   0.02728   0.98845   0.00000  Uiso   1.00
H1346  H     0.87646   0.05287   0.55099   0.00000  Uiso   1.00
C1347  C     0.93743   0.01798   0.55306   0.00000  Uiso   1.00
H1348  H     0.97290   0.00740   0.52436   0.00000  Uiso   1.00
H1349  H     0.94361   0.03611   0.58590   0.00000  Uiso   1.00
C1350  C     0.90550   0.31385   0.57904   0.00000  Uiso   1.00
H1351  H     0.87090   0.32397   0.60993   0.00000  Uiso   1.00
H1352  H     0.92360   0.29363   0.59999   0.00000  Uiso   1.00
H1353  H     0.89815   0.29574   0.54700   0.00000  Uiso   1.00
N1354  N     0.83398   0.22155   0.56866   0.00000  Uiso   1.00
O1355  O     0.82905   0.23884   0.61499   0.00000  Uiso   1.00
O1356  O     0.83211   0.24510   0.52865   0.00000  Uiso   1.00
O1357  O     0.70867   0.18974   0.92034   0.00000  Uiso   1.00
C1358  C     0.69430   0.23157   0.92415   0.00000  Uiso   1.00
H1359  H     0.70593   0.24514   0.88199   0.00000  Uiso   1.00
H1360  H     0.71157   0.25157   0.94657   0.00000  Uiso   1.00
C1361  C     0.97244   0.23395   0.95172   0.00000  Uiso   1.00
H1362  H     0.95924   0.21213   0.98733   0.00000  Uiso   1.00
H1363  H     0.96234   0.26549   0.96749   0.00000  Uiso   1.00
C1364  C     0.94677   0.22408   0.91207   0.00000  Uiso   1.00
H1365  H     0.95691   0.24741   0.87811   0.00000  Uiso   1.00
H1366  H     0.90712   0.22507   0.93389   0.00000  Uiso   1.00
H1367  H     0.95632   0.19275   0.89518   0.00000  Uiso   1.00
O1368  O     0.68650   0.20137   0.53401   0.00000  Uiso   1.00
C1369  C     0.68765   0.23848   0.56190   0.00000  Uiso   1.00
H1370  H     0.67044   0.26302   0.54542   0.00000  Uiso   1.00
H1371  H     0.72457   0.25033   0.55643   0.00000  Uiso   1.00
C1372  C     0.99166   0.23216   0.62302   0.00000  Uiso   1.00
H1373  H     0.95335   0.22587   0.62854   0.00000  Uiso   1.00
H1374  H     0.67227   0.20511   0.63907   0.00000  Uiso   1.00
C1375  C     0.99451   0.27012   0.65577   0.00000  Uiso   1.00
H1376  H     0.69894   0.27542   0.65276   0.00000  Uiso   1.00
H1377  H     0.97153   0.26508   0.69954   0.00000  Uiso   1.00
H1378  H     0.98197   0.29804   0.64001   0.00000  Uiso   1.00
O1379  O     0.84659   0.09242   0.87683   0.00000  Uiso   1.00
C1380  C     0.80794   0.06384   0.90139   0.00000  Uiso   1.00
H1381  H     0.79546   0.05269   0.86874   0.00000  Uiso   1.00
H1382  H     0.77580   0.07802   0.93255   0.00000  Uiso   1.00
C1383  C     0.82436   0.02651   0.92671   0.00000  Uiso   1.00
H1384  H     0.85718   0.01332   0.89593   0.00000  Uiso   1.00
H1385  H     0.83325   0.03649   0.96261   0.00000  Uiso   1.00
C1386  C     0.78514   0.32626   0.94561   0.00000  Uiso   1.00
H1387  H     0.75146   0.00534   0.97591   0.00000  Uiso   1.00
H1388  H     0.79754   0.30034   0.96527   0.00000  Uiso   1.00
H1389  H     0.77752   0.31410   0.90991   0.00000  Uiso   1.00
N1390  N     0.89055   0.29220   0.80239   0.00000  Uiso   1.00
O1391  O     0.86833   0.26659   0.84264   0.00000  Uiso   1.00
O1392  O     0.93316   0.30620   0.79757   0.00000  Uiso   1.00
O1393  O     0.12846   0.56108   0.75001   0.00000  Uiso   1.00
O1394  O     0.20490   0.56107   0.75001   0.00000  Uiso   1.00
C1395  C     0.16688   0.58009   0.74982   0.00000  Uiso   1.00
O1396  O     0.10947   0.50000   0.82681   0.00000  Uiso   1.00
O1397  O     0.18591   0.49999   0.82681   0.00000  Uiso   1.00
C1398  C     0.13924   0.49911   0.85283   0.00000  Uiso   1.00
Zn1399 Zn    0.11562   0.50001   0.75000   0.00000  Uiso   1.00
Zn1400 Zn    0.21771   0.49999   0.75000   0.00000  Uiso   1.00
O1401  O     0.12843   0.43893   0.75000   0.00000  Uiso   1.00
O1402  O     0.20488   0.43892   0.75000   0.00000  Uiso   1.00
O1403  O     0.14742   0.50001   0.67319   0.00000  Uiso   1.00
O1404  O     0.22387   0.50000   0.67319   0.00000  Uiso   1.00
C1405  C     0.16566   0.42008   0.75221   0.00000  Uiso   1.00
C1406  C     0.19381   0.50042   0.64736   0.00000  Uiso   1.00
C1407  C     0.25044   0.44905   0.51381   0.00000  Uiso   1.00
H1408  H     0.26459   0.45137   0.58766   0.00000  Uiso   1.00
C1409  C     0.21162   0.49606   0.58773   0.00000  Uiso   1.00
C1410  C     0.07622   0.51617   0.94442   0.00000  Uiso   1.00
C1411  C     0.06578   0.52294   0.50094   0.00000  Uiso   1.00
C1412  C     0.10112   0.51445   0.52368   0.00000  Uiso   1.00
C1413  C     0.14586   0.49771   0.99160   0.00000  Uiso   1.00
C1414  C     0.15056   0.48234   0.94016   0.00000  Uiso   1.00
C1415  C     0.18382   0.49186   0.51156   0.00000  Uiso   1.00
C1416  C     0.22051   0.46293   0.98561   0.00000  Uiso   1.00
C1417  C     0.22323   0.44571   0.93508   0.00000  Uiso   1.00
C1418  C     0.18483   0.45149   0.91667   0.00000  Uiso   1.00
C1419  C     0.18580   0.51346   0.55741   0.00000  Uiso   1.00
C1420  C     0.24541   0.46566   0.56444   0.00000  Uiso   1.00
C1421  C     0.12031   0.49750   0.91346   0.00000  Uiso   1.00
H1422  H     0.09238   0.51911   0.56718   0.00000  Uiso   1.00
C1423  C     0.19696   0.64592   0.77363   0.00000  Uiso   1.00
C1424  C     0.19834   0.35521   0.77043   0.00000  Uiso   1.00
H1425  H     0.22372   0.37208   0.78379   0.00000  Uiso   1.00
C1426  C     0.16357   0.37602   0.75610   0.00000  Uiso   1.00
C1427  C     0.12676   0.35414   0.74603   0.00000  Uiso   1.00
C1428  C     0.13318   0.64628   0.73447   0.00000  Uiso   1.00
C1429  C     0.16626   0.62442   0.75187   0.00000  Uiso   1.00
C1430  C     0.31704   0.46829   0.72692   0.00000  Uiso   1.00
C1431  C     0.03163   0.46901   0.72618   0.00000  Uiso   1.00
H1432  H     0.05602   0.44449   0.70668   0.00000  Uiso   1.00
N1433  N     0.04760   0.50001   0.75002   0.00000  Uiso   1.00
C1434  C     0.01588   0.52996   0.77617   0.00000  Uiso   1.00
H1435  H     0.02703   0.55334   0.79841   0.00000  Uiso   1.00
C1436  C     0.30174   0.53040   0.77526   0.00000  Uiso   1.00
H1437  H     0.27765   0.55469   0.79555   0.00000  Uiso   1.00
N1438  N     0.28573   0.49998   0.75001   0.00000  Uiso   1.00
O1439  O     0.08315   0.37132   0.74955   0.00000  Uiso   1.00
C1440  C     0.05415   0.37756   0.80566   0.00000  Uiso   1.00
H1441  H     0.02022   0.39184   0.80628   0.00000  Uiso   1.00
H1442  H     0.07134   0.40008   0.82497   0.00000  Uiso   1.00
C1443  C     0.04116   0.33748   0.84102   0.00000  Uiso   1.00
H1444  H     0.01885   0.65004   0.82592   0.00000  Uiso   1.00
H1445  H     0.07427   0.65431   0.83905   0.00000  Uiso   1.00
C1446  C     0.01371   0.34660   0.90133   0.00000  Uiso   1.00
H1447  H     0.02975   0.37349   0.91500   0.00000  Uiso   1.00
H1448  H     0.01530   0.65298   0.92704   0.00000  Uiso   1.00
H1449  H     0.30877   0.35240   0.90799   0.00000  Uiso   1.00
N1450  N     0.10452   0.62769   0.70679   0.00000  Uiso   1.00
O1451  O     0.11110   0.64069   0.65719   0.00000  Uiso   1.00
O1452  O     0.06256   0.61207   0.73600   0.00000  Uiso   1.00
N1453  N     0.30208   0.43346   0.70385   0.00000  Uiso   1.00
O1454  O     0.31259   0.39646   0.71565   0.00000  Uiso   1.00
O1455  O     0.29023   0.43879   0.66106   0.00000  Uiso   1.00
N1456  N     0.26648   0.42617   0.89984   0.00000  Uiso   1.00
O1457  O     0.30838   0.44219   0.89440   0.00000  Uiso   1.00
O1458  O     0.26448   0.39875   0.86467   0.00000  Uiso   1.00
O1459  O     0.27703   0.41342   0.99879   0.00000  Uiso   1.00
C1460  C     0.24686   0.37856   0.52213   0.00000  Uiso   1.00
H1461  H     0.24202   0.36062   0.98845   0.00000  Uiso   1.00
H1462  H     0.20979   0.38620   0.55099   0.00000  Uiso   1.00
C1463  C     0.27077   0.35131   0.55306   0.00000  Uiso   1.00
H1464  H     0.30623   0.34073   0.52436   0.00000  Uiso   1.00
H1465  H     0.27694   0.36944   0.58590   0.00000  Uiso   1.00
C1466  C     0.23883   0.64718   0.57904   0.00000  Uiso   1.00
H1467  H     0.20424   0.65730   0.60993   0.00000  Uiso   1.00
H1468  H     0.25694   0.62696   0.59999   0.00000  Uiso   1.00
H1469  H     0.23148   0.62908   0.54700   0.00000  Uiso   1.00
N1470  N     0.16732   0.55488   0.56866   0.00000  Uiso   1.00
O1471  O     0.16239   0.57218   0.61499   0.00000  Uiso   1.00
O1472  O     0.16544   0.57843   0.52865   0.00000  Uiso   1.00
O1473  O     0.04200   0.52307   0.92034   0.00000  Uiso   1.00
C1474  C     0.02763   0.56490   0.92415   0.00000  Uiso   1.00
H1475  H     0.03926   0.57848   0.88199   0.00000  Uiso   1.00
H1476  H     0.04490   0.58491   0.94657   0.00000  Uiso   1.00
C1477  C     0.30578   0.56729   0.95172   0.00000  Uiso   1.00
H1478  H     0.29257   0.54546   0.98733   0.00000  Uiso   1.00
H1479  H     0.29567   0.59882   0.96749   0.00000  Uiso   1.00
C1480  C     0.28010   0.55741   0.91207   0.00000  Uiso   1.00
H1481  H     0.29025   0.58074   0.87811   0.00000  Uiso   1.00
H1482  H     0.24045   0.55840   0.93389   0.00000  Uiso   1.00
H1483  H     0.28965   0.52608   0.89518   0.00000  Uiso   1.00
O1484  O     0.01984   0.53470   0.53401   0.00000  Uiso   1.00
C1485  C     0.02099   0.57181   0.56190   0.00000  Uiso   1.00
H1486  H     0.00378   0.59635   0.54542   0.00000  Uiso   1.00
H1487  H     0.05790   0.58367   0.55643   0.00000  Uiso   1.00
C1488  C     0.32499   0.56550   0.62302   0.00000  Uiso   1.00
H1489  H     0.28668   0.55920   0.62854   0.00000  Uiso   1.00
H1490  H     0.00561   0.53845   0.63907   0.00000  Uiso   1.00
C1491  C     0.32784   0.60345   0.65577   0.00000  Uiso   1.00
H1492  H     0.03227   0.60876   0.65276   0.00000  Uiso   1.00
H1493  H     0.30487   0.59842   0.69954   0.00000  Uiso   1.00
H1494  H     0.31531   0.63137   0.64001   0.00000  Uiso   1.00
O1495  O     0.17992   0.42575   0.87683   0.00000  Uiso   1.00
C1496  C     0.14127   0.39718   0.90139   0.00000  Uiso   1.00
H1497  H     0.12879   0.38603   0.86874   0.00000  Uiso   1.00
H1498  H     0.10913   0.41135   0.93255   0.00000  Uiso   1.00
C1499  C     0.15769   0.35984   0.92671   0.00000  Uiso   1.00
H1500  H     0.19052   0.34666   0.89593   0.00000  Uiso   1.00
H1501  H     0.16658   0.36983   0.96261   0.00000  Uiso   1.00
C1502  C     0.11847   0.65959   0.94561   0.00000  Uiso   1.00
H1503  H     0.08479   0.33867   0.97591   0.00000  Uiso   1.00
H1504  H     0.13088   0.63367   0.96527   0.00000  Uiso   1.00
H1505  H     0.11085   0.64743   0.90991   0.00000  Uiso   1.00
N1506  N     0.22388   0.62553   0.80239   0.00000  Uiso   1.00
O1507  O     0.20167   0.59992   0.84264   0.00000  Uiso   1.00
O1508  O     0.26650   0.63953   0.79757   0.00000  Uiso   1.00
O1509  O     0.46179   0.56108   0.75001   0.00000  Uiso   1.00
O1510  O     0.53823   0.56107   0.75001   0.00000  Uiso   1.00
C1511  C     0.50021   0.58009   0.74982   0.00000  Uiso   1.00
O1512  O     0.44280   0.50000   0.82681   0.00000  Uiso   1.00
O1513  O     0.51924   0.49999   0.82681   0.00000  Uiso   1.00
C1514  C     0.47257   0.49911   0.85283   0.00000  Uiso   1.00
Zn1515 Zn    0.44896   0.50001   0.75000   0.00000  Uiso   1.00
Zn1516 Zn    0.55104   0.49999   0.75000   0.00000  Uiso   1.00
O1517  O     0.46177   0.43893   0.75000   0.00000  Uiso   1.00
O1518  O     0.53821   0.43892   0.75000   0.00000  Uiso   1.00
O1519  O     0.48076   0.50001   0.67319   0.00000  Uiso   1.00
O1520  O     0.55720   0.50000   0.67319   0.00000  Uiso   1.00
C1521  C     0.49899   0.42008   0.75221   0.00000  Uiso   1.00
C1522  C     0.52715   0.50042   0.64736   0.00000  Uiso   1.00
C1523  C     0.58377   0.44905   0.51381   0.00000  Uiso   1.00
H1524  H     0.59792   0.45137   0.58766   0.00000  Uiso   1.00
C1525  C     0.54495   0.49606   0.58773   0.00000  Uiso   1.00
C1526  C     0.40956   0.51617   0.94442   0.00000  Uiso   1.00
C1527  C     0.39911   0.52294   0.50094   0.00000  Uiso   1.00
C1528  C     0.43445   0.51445   0.52368   0.00000  Uiso   1.00
C1529  C     0.47920   0.49771   0.99160   0.00000  Uiso   1.00
C1530  C     0.48390   0.48234   0.94016   0.00000  Uiso   1.00
C1531  C     0.51715   0.49186   0.51156   0.00000  Uiso   1.00
C1532  C     0.55385   0.46293   0.98561   0.00000  Uiso   1.00
C1533  C     0.55657   0.44571   0.93508   0.00000  Uiso   1.00
C1534  C     0.51817   0.45149   0.91667   0.00000  Uiso   1.00
C1535  C     0.51913   0.51346   0.55741   0.00000  Uiso   1.00
C1536  C     0.57874   0.46566   0.56444   0.00000  Uiso   1.00
C1537  C     0.45365   0.49750   0.91346   0.00000  Uiso   1.00
H1538  H     0.42571   0.51911   0.56718   0.00000  Uiso   1.00
C1539  C     0.53029   0.64592   0.77363   0.00000  Uiso   1.00
C1540  C     0.53168   0.35521   0.77043   0.00000  Uiso   1.00
H1541  H     0.55706   0.37208   0.78379   0.00000  Uiso   1.00
C1542  C     0.49690   0.37602   0.75610   0.00000  Uiso   1.00
C1543  C     0.46010   0.35414   0.74603   0.00000  Uiso   1.00
C1544  C     0.46652   0.64628   0.73447   0.00000  Uiso   1.00
C1545  C     0.49959   0.62442   0.75187   0.00000  Uiso   1.00
C1546  C     0.65038   0.46829   0.72692   0.00000  Uiso   1.00
C1547  C     0.36496   0.46901   0.72618   0.00000  Uiso   1.00
H1548  H     0.38935   0.44449   0.70668   0.00000  Uiso   1.00
N1549  N     0.38093   0.50001   0.75002   0.00000  Uiso   1.00
C1550  C     0.34921   0.52996   0.77617   0.00000  Uiso   1.00
H1551  H     0.36036   0.55334   0.79841   0.00000  Uiso   1.00
C1552  C     0.63507   0.53040   0.77526   0.00000  Uiso   1.00
H1553  H     0.61099   0.55469   0.79555   0.00000  Uiso   1.00
N1554  N     0.61906   0.49998   0.75001   0.00000  Uiso   1.00
O1555  O     0.41648   0.37132   0.74955   0.00000  Uiso   1.00
C1556  C     0.38749   0.37756   0.80566   0.00000  Uiso   1.00
H1557  H     0.35355   0.39184   0.80628   0.00000  Uiso   1.00
H1558  H     0.40468   0.40008   0.82497   0.00000  Uiso   1.00
C1559  C     0.37449   0.33748   0.84102   0.00000  Uiso   1.00
H1560  H     0.35218   0.65004   0.82592   0.00000  Uiso   1.00
H1561  H     0.40761   0.65431   0.83905   0.00000  Uiso   1.00
C1562  C     0.34704   0.34660   0.90133   0.00000  Uiso   1.00
H1563  H     0.36308   0.37349   0.91500   0.00000  Uiso   1.00
H1564  H     0.34863   0.65298   0.92704   0.00000  Uiso   1.00
H1565  H     0.64210   0.35240   0.90799   0.00000  Uiso   1.00
N1566  N     0.43785   0.62769   0.70679   0.00000  Uiso   1.00
O1567  O     0.44444   0.64069   0.65719   0.00000  Uiso   1.00
O1568  O     0.39589   0.61207   0.73600   0.00000  Uiso   1.00
N1569  N     0.63541   0.43346   0.70385   0.00000  Uiso   1.00
O1570  O     0.64592   0.39646   0.71565   0.00000  Uiso   1.00
O1571  O     0.62356   0.43879   0.66106   0.00000  Uiso   1.00
N1572  N     0.59981   0.42617   0.89984   0.00000  Uiso   1.00
O1573  O     0.64171   0.44219   0.89440   0.00000  Uiso   1.00
O1574  O     0.59782   0.39875   0.86467   0.00000  Uiso   1.00
O1575  O     0.61036   0.41342   0.99879   0.00000  Uiso   1.00
C1576  C     0.58020   0.37856   0.52213   0.00000  Uiso   1.00
H1577  H     0.57535   0.36062   0.98845   0.00000  Uiso   1.00
H1578  H     0.54312   0.38620   0.55099   0.00000  Uiso   1.00
C1579  C     0.60410   0.35131   0.55306   0.00000  Uiso   1.00
H1580  H     0.63956   0.34073   0.52436   0.00000  Uiso   1.00
H1581  H     0.61028   0.36944   0.58590   0.00000  Uiso   1.00
C1582  C     0.57217   0.64718   0.57904   0.00000  Uiso   1.00
H1583  H     0.53757   0.65730   0.60993   0.00000  Uiso   1.00
H1584  H     0.59027   0.62696   0.59999   0.00000  Uiso   1.00
H1585  H     0.56481   0.62908   0.54700   0.00000  Uiso   1.00
N1586  N     0.50065   0.55488   0.56866   0.00000  Uiso   1.00
O1587  O     0.49572   0.57218   0.61499   0.00000  Uiso   1.00
O1588  O     0.49878   0.57843   0.52865   0.00000  Uiso   1.00
O1589  O     0.37533   0.52307   0.92034   0.00000  Uiso   1.00
C1590  C     0.36096   0.56490   0.92415   0.00000  Uiso   1.00
H1591  H     0.37259   0.57848   0.88199   0.00000  Uiso   1.00
H1592  H     0.37823   0.58491   0.94657   0.00000  Uiso   1.00
C1593  C     0.63911   0.56729   0.95172   0.00000  Uiso   1.00
H1594  H     0.62590   0.54546   0.98733   0.00000  Uiso   1.00
H1595  H     0.62900   0.59882   0.96749   0.00000  Uiso   1.00
C1596  C     0.61344   0.55741   0.91207   0.00000  Uiso   1.00
H1597  H     0.62358   0.58074   0.87811   0.00000  Uiso   1.00
H1598  H     0.57378   0.55840   0.93389   0.00000  Uiso   1.00
H1599  H     0.62299   0.52608   0.89518   0.00000  Uiso   1.00
O1600  O     0.35317   0.53470   0.53401   0.00000  Uiso   1.00
C1601  C     0.35432   0.57181   0.56190   0.00000  Uiso   1.00
H1602  H     0.33711   0.59635   0.54542   0.00000  Uiso   1.00
H1603  H     0.39124   0.58367   0.55643   0.00000  Uiso   1.00
C1604  C     0.65832   0.56550   0.62302   0.00000  Uiso   1.00
H1605  H     0.62001   0.55920   0.62854   0.00000  Uiso   1.00
H1606  H     0.33894   0.53845   0.63907   0.00000  Uiso   1.00
C1607  C     0.66117   0.60345   0.65577   0.00000  Uiso   1.00
H1608  H     0.36561   0.60876   0.65276   0.00000  Uiso   1.00
H1609  H     0.63820   0.59842   0.69954   0.00000  Uiso   1.00
H1610  H     0.64864   0.63137   0.64001   0.00000  Uiso   1.00
O1611  O     0.51326   0.42575   0.87683   0.00000  Uiso   1.00
C1612  C     0.47460   0.39718   0.90139   0.00000  Uiso   1.00
H1613  H     0.46213   0.38603   0.86874   0.00000  Uiso   1.00
H1614  H     0.44246   0.41135   0.93255   0.00000  Uiso   1.00
C1615  C     0.49102   0.35984   0.92671   0.00000  Uiso   1.00
H1616  H     0.52385   0.34666   0.89593   0.00000  Uiso   1.00
H1617  H     0.49991   0.36983   0.96261   0.00000  Uiso   1.00
C1618  C     0.45180   0.65959   0.94561   0.00000  Uiso   1.00
H1619  H     0.41813   0.33867   0.97591   0.00000  Uiso   1.00
H1620  H     0.46421   0.63367   0.96527   0.00000  Uiso   1.00
H1621  H     0.44419   0.64743   0.90991   0.00000  Uiso   1.00
N1622  N     0.55722   0.62553   0.80239   0.00000  Uiso   1.00
O1623  O     0.53500   0.59992   0.84264   0.00000  Uiso   1.00
O1624  O     0.59983   0.63953   0.79757   0.00000  Uiso   1.00
O1625  O     0.79512   0.56108   0.75001   0.00000  Uiso   1.00
O1626  O     0.87157   0.56107   0.75001   0.00000  Uiso   1.00
C1627  C     0.83355   0.58009   0.74982   0.00000  Uiso   1.00
O1628  O     0.77613   0.50000   0.82681   0.00000  Uiso   1.00
O1629  O     0.85258   0.49999   0.82681   0.00000  Uiso   1.00
C1630  C     0.80590   0.49911   0.85283   0.00000  Uiso   1.00
Zn1631 Zn    0.78229   0.50001   0.75000   0.00000  Uiso   1.00
Zn1632 Zn    0.88438   0.49999   0.75000   0.00000  Uiso   1.00
O1633  O     0.79510   0.43893   0.75000   0.00000  Uiso   1.00
O1634  O     0.87154   0.43892   0.75000   0.00000  Uiso   1.00
O1635  O     0.81409   0.50001   0.67319   0.00000  Uiso   1.00
O1636  O     0.89053   0.50000   0.67319   0.00000  Uiso   1.00
C1637  C     0.83233   0.42008   0.75221   0.00000  Uiso   1.00
C1638  C     0.86048   0.50042   0.64736   0.00000  Uiso   1.00
C1639  C     0.91711   0.44905   0.51381   0.00000  Uiso   1.00
H1640  H     0.93126   0.45137   0.58766   0.00000  Uiso   1.00
C1641  C     0.87829   0.49606   0.58773   0.00000  Uiso   1.00
C1642  C     0.74289   0.51617   0.94442   0.00000  Uiso   1.00
C1643  C     0.73245   0.52294   0.50094   0.00000  Uiso   1.00
C1644  C     0.76779   0.51445   0.52368   0.00000  Uiso   1.00
C1645  C     0.81253   0.49771   0.99160   0.00000  Uiso   1.00
C1646  C     0.81723   0.48234   0.94016   0.00000  Uiso   1.00
C1647  C     0.85048   0.49186   0.51156   0.00000  Uiso   1.00
C1648  C     0.88718   0.46293   0.98561   0.00000  Uiso   1.00
C1649  C     0.88990   0.44571   0.93508   0.00000  Uiso   1.00
C1650  C     0.85150   0.45149   0.91667   0.00000  Uiso   1.00
C1651  C     0.85246   0.51346   0.55741   0.00000  Uiso   1.00
C1652  C     0.91207   0.46566   0.56444   0.00000  Uiso   1.00
C1653  C     0.78698   0.49750   0.91346   0.00000  Uiso   1.00
H1654  H     0.75904   0.51911   0.56718   0.00000  Uiso   1.00
C1655  C     0.86362   0.64592   0.77363   0.00000  Uiso   1.00
C1656  C     0.86501   0.35521   0.77043   0.00000  Uiso   1.00
H1657  H     0.89039   0.37208   0.78379   0.00000  Uiso   1.00
C1658  C     0.83024   0.37602   0.75610   0.00000  Uiso   1.00
C1659  C     0.79343   0.35414   0.74603   0.00000  Uiso   1.00
C1660  C     0.79985   0.64628   0.73447   0.00000  Uiso   1.00
C1661  C     0.83292   0.62442   0.75187   0.00000  Uiso   1.00
C1662  C     0.98371   0.46829   0.72692   0.00000  Uiso   1.00
C1663  C     0.69830   0.46901   0.72618   0.00000  Uiso   1.00
H1664  H     0.72268   0.44449   0.70668   0.00000  Uiso   1.00
N1665  N     0.71426   0.50001   0.75002   0.00000  Uiso   1.00
C1666  C     0.68255   0.52996   0.77617   0.00000  Uiso   1.00
H1667  H     0.69369   0.55334   0.79841   0.00000  Uiso   1.00
C1668  C     0.96840   0.53040   0.77526   0.00000  Uiso   1.00
H1669  H     0.94432   0.55469   0.79555   0.00000  Uiso   1.00
N1670  N     0.95239   0.49998   0.75001   0.00000  Uiso   1.00
O1671  O     0.74981   0.37132   0.74955   0.00000  Uiso   1.00
C1672  C     0.72082   0.37756   0.80566   0.00000  Uiso   1.00
H1673  H     0.68688   0.39184   0.80628   0.00000  Uiso   1.00
H1674  H     0.73801   0.40008   0.82497   0.00000  Uiso   1.00
C1675  C     0.70783   0.33748   0.84102   0.00000  Uiso   1.00
H1676  H     0.68551   0.65004   0.82592   0.00000  Uiso   1.00
H1677  H     0.74094   0.65431   0.83905   0.00000  Uiso   1.00
C1678  C     0.68037   0.34660   0.90133   0.00000  Uiso   1.00
H1679  H     0.69641   0.37349   0.91500   0.00000  Uiso   1.00
H1680  H     0.68196   0.65298   0.92704   0.00000  Uiso   1.00
H1681  H     0.97543   0.35240   0.90799   0.00000  Uiso   1.00
N1682  N     0.77119   0.62769   0.70679   0.00000  Uiso   1.00
O1683  O     0.77777   0.64069   0.65719   0.00000  Uiso   1.00
O1684  O     0.72923   0.61207   0.73600   0.00000  Uiso   1.00
N1685  N     0.96875   0.43346   0.70385   0.00000  Uiso   1.00
O1686  O     0.97925   0.39646   0.71565   0.00000  Uiso   1.00
O1687  O     0.95690   0.43879   0.66106   0.00000  Uiso   1.00
N1688  N     0.93315   0.42617   0.89984   0.00000  Uiso   1.00
O1689  O     0.97504   0.44219   0.89440   0.00000  Uiso   1.00
O1690  O     0.93115   0.39875   0.86467   0.00000  Uiso   1.00
O1691  O     0.94370   0.41342   0.99879   0.00000  Uiso   1.00
C1692  C     0.91353   0.37856   0.52213   0.00000  Uiso   1.00
H1693  H     0.90869   0.36062   0.98845   0.00000  Uiso   1.00
H1694  H     0.87646   0.38620   0.55099   0.00000  Uiso   1.00
C1695  C     0.93743   0.35131   0.55306   0.00000  Uiso   1.00
H1696  H     0.97290   0.34073   0.52436   0.00000  Uiso   1.00
H1697  H     0.94361   0.36944   0.58590   0.00000  Uiso   1.00
C1698  C     0.90550   0.64718   0.57904   0.00000  Uiso   1.00
H1699  H     0.87090   0.65730   0.60993   0.00000  Uiso   1.00
H1700  H     0.92360   0.62696   0.59999   0.00000  Uiso   1.00
H1701  H     0.89815   0.62908   0.54700   0.00000  Uiso   1.00
N1702  N     0.83398   0.55488   0.56866   0.00000  Uiso   1.00
O1703  O     0.82905   0.57218   0.61499   0.00000  Uiso   1.00
O1704  O     0.83211   0.57843   0.52865   0.00000  Uiso   1.00
O1705  O     0.70867   0.52307   0.92034   0.00000  Uiso   1.00
C1706  C     0.69430   0.56490   0.92415   0.00000  Uiso   1.00
H1707  H     0.70593   0.57848   0.88199   0.00000  Uiso   1.00
H1708  H     0.71157   0.58491   0.94657   0.00000  Uiso   1.00
C1709  C     0.97244   0.56729   0.95172   0.00000  Uiso   1.00
H1710  H     0.95924   0.54546   0.98733   0.00000  Uiso   1.00
H1711  H     0.96234   0.59882   0.96749   0.00000  Uiso   1.00
C1712  C     0.94677   0.55741   0.91207   0.00000  Uiso   1.00
H1713  H     0.95691   0.58074   0.87811   0.00000  Uiso   1.00
H1714  H     0.90712   0.55840   0.93389   0.00000  Uiso   1.00
H1715  H     0.95632   0.52608   0.89518   0.00000  Uiso   1.00
O1716  O     0.68650   0.53470   0.53401   0.00000  Uiso   1.00
C1717  C     0.68765   0.57181   0.56190   0.00000  Uiso   1.00
H1718  H     0.67044   0.59635   0.54542   0.00000  Uiso   1.00
H1719  H     0.72457   0.58367   0.55643   0.00000  Uiso   1.00
C1720  C     0.99166   0.56550   0.62302   0.00000  Uiso   1.00
H1721  H     0.95335   0.55920   0.62854   0.00000  Uiso   1.00
H1722  H     0.67227   0.53845   0.63907   0.00000  Uiso   1.00
C1723  C     0.99451   0.60345   0.65577   0.00000  Uiso   1.00
H1724  H     0.69894   0.60876   0.65276   0.00000  Uiso   1.00
H1725  H     0.97153   0.59842   0.69954   0.00000  Uiso   1.00
H1726  H     0.98197   0.63137   0.64001   0.00000  Uiso   1.00
O1727  O     0.84659   0.42575   0.87683   0.00000  Uiso   1.00
C1728  C     0.80794   0.39718   0.90139   0.00000  Uiso   1.00
H1729  H     0.79546   0.38603   0.86874   0.00000  Uiso   1.00
H1730  H     0.77580   0.41135   0.93255   0.00000  Uiso   1.00
C1731  C     0.82436   0.35984   0.92671   0.00000  Uiso   1.00
H1732  H     0.85718   0.34666   0.89593   0.00000  Uiso   1.00
H1733  H     0.83325   0.36983   0.96261   0.00000  Uiso   1.00
C1734  C     0.78514   0.65959   0.94561   0.00000  Uiso   1.00
H1735  H     0.75146   0.33867   0.97591   0.00000  Uiso   1.00
H1736  H     0.79754   0.63367   0.96527   0.00000  Uiso   1.00
H1737  H     0.77752   0.64743   0.90991   0.00000  Uiso   1.00
N1738  N     0.89055   0.62553   0.80239   0.00000  Uiso   1.00
O1739  O     0.86833   0.59992   0.84264   0.00000  Uiso   1.00
O1740  O     0.93316   0.63953   0.79757   0.00000  Uiso   1.00
O1741  O     0.12846   0.89442   0.75001   0.00000  Uiso   1.00
O1742  O     0.20490   0.89441   0.75001   0.00000  Uiso   1.00
C1743  C     0.16688   0.91342   0.74982   0.00000  Uiso   1.00
O1744  O     0.10947   0.83333   0.82681   0.00000  Uiso   1.00
O1745  O     0.18591   0.83332   0.82681   0.00000  Uiso   1.00
C1746  C     0.13924   0.83244   0.85283   0.00000  Uiso   1.00
Zn1747 Zn    0.11562   0.83334   0.75000   0.00000  Uiso   1.00
Zn1748 Zn    0.21771   0.83333   0.75000   0.00000  Uiso   1.00
O1749  O     0.12843   0.77226   0.75000   0.00000  Uiso   1.00
O1750  O     0.20488   0.77225   0.75000   0.00000  Uiso   1.00
O1751  O     0.14742   0.83335   0.67319   0.00000  Uiso   1.00
O1752  O     0.22387   0.83334   0.67319   0.00000  Uiso   1.00
C1753  C     0.16566   0.75342   0.75221   0.00000  Uiso   1.00
C1754  C     0.19381   0.83376   0.64736   0.00000  Uiso   1.00
C1755  C     0.25044   0.78239   0.51381   0.00000  Uiso   1.00
H1756  H     0.26459   0.78470   0.58766   0.00000  Uiso   1.00
C1757  C     0.21162   0.82940   0.58773   0.00000  Uiso   1.00
C1758  C     0.07622   0.84951   0.94442   0.00000  Uiso   1.00
C1759  C     0.06578   0.85627   0.50094   0.00000  Uiso   1.00
C1760  C     0.10112   0.84778   0.52368   0.00000  Uiso   1.00
C1761  C     0.14586   0.83104   0.99160   0.00000  Uiso   1.00
C1762  C     0.15056   0.81568   0.94016   0.00000  Uiso   1.00
C1763  C     0.18382   0.82519   0.51156   0.00000  Uiso   1.00
C1764  C     0.22051   0.79626   0.98561   0.00000  Uiso   1.00
C1765  C     0.22323   0.77904   0.93508   0.00000  Uiso   1.00
C1766  C     0.18483   0.78483   0.91667   0.00000  Uiso   1.00
C1767  C     0.18580   0.84679   0.55741   0.00000  Uiso   1.00
C1768  C     0.24541   0.79900   0.56444   0.00000  Uiso   1.00
C1769  C     0.12031   0.83083   0.91346   0.00000  Uiso   1.00
H1770  H     0.09238   0.85245   0.56718   0.00000  Uiso   1.00
C1771  C     0.19696   0.97925   0.77363   0.00000  Uiso   1.00
C1772  C     0.19834   0.68854   0.77043   0.00000  Uiso   1.00
H1773  H     0.22372   0.70541   0.78379   0.00000  Uiso   1.00
C1774  C     0.16357   0.70936   0.75610   0.00000  Uiso   1.00
C1775  C     0.12676   0.68748   0.74603   0.00000  Uiso   1.00
C1776  C     0.13318   0.97961   0.73447   0.00000  Uiso   1.00
C1777  C     0.16626   0.95776   0.75187   0.00000  Uiso   1.00
C1778  C     0.31704   0.80162   0.72692   0.00000  Uiso   1.00
C1779  C     0.03163   0.80235   0.72618   0.00000  Uiso   1.00
H1780  H     0.05602   0.77782   0.70668   0.00000  Uiso   1.00
N1781  N     0.04760   0.83334   0.75002   0.00000  Uiso   1.00
C1782  C     0.01588   0.86329   0.77617   0.00000  Uiso   1.00
H1783  H     0.02703   0.88668   0.79841   0.00000  Uiso   1.00
C1784  C     0.30174   0.86373   0.77526   0.00000  Uiso   1.00
H1785  H     0.27765   0.88802   0.79555   0.00000  Uiso   1.00
N1786  N     0.28573   0.83331   0.75001   0.00000  Uiso   1.00
O1787  O     0.08315   0.70466   0.74955   0.00000  Uiso   1.00
C1788  C     0.05415   0.71089   0.80566   0.00000  Uiso   1.00
H1789  H     0.02022   0.72517   0.80628   0.00000  Uiso   1.00
H1790  H     0.07134   0.73341   0.82497   0.00000  Uiso   1.00
C1791  C     0.04116   0.67081   0.84102   0.00000  Uiso   1.00
H1792  H     0.01885   0.98338   0.82592   0.00000  Uiso   1.00
H1793  H     0.07427   0.98764   0.83905   0.00000  Uiso   1.00
C1794  C     0.01371   0.67994   0.90133   0.00000  Uiso   1.00
H1795  H     0.02975   0.70683   0.91500   0.00000  Uiso   1.00
H1796  H     0.01530   0.98631   0.92704   0.00000  Uiso   1.00
H1797  H     0.30877   0.68573   0.90799   0.00000  Uiso   1.00
N1798  N     0.10452   0.96102   0.70679   0.00000  Uiso   1.00
O1799  O     0.11110   0.97402   0.65719   0.00000  Uiso   1.00
O1800  O     0.06256   0.94540   0.73600   0.00000  Uiso   1.00
N1801  N     0.30208   0.76679   0.70385   0.00000  Uiso   1.00
O1802  O     0.31259   0.72979   0.71565   0.00000  Uiso   1.00
O1803  O     0.29023   0.77213   0.66106   0.00000  Uiso   1.00
N1804  N     0.26648   0.75950   0.89984   0.00000  Uiso   1.00
O1805  O     0.30838   0.77553   0.89440   0.00000  Uiso   1.00
O1806  O     0.26448   0.73209   0.86467   0.00000  Uiso   1.00
O1807  O     0.27703   0.74676   0.99879   0.00000  Uiso   1.00
C1808  C     0.24686   0.71189   0.52213   0.00000  Uiso   1.00
H1809  H     0.24202   0.69395   0.98845   0.00000  Uiso   1.00
H1810  H     0.20979   0.71953   0.55099   0.00000  Uiso   1.00
C1811  C     0.27077   0.68465   0.55306   0.00000  Uiso   1.00
H1812  H     0.30623   0.67406   0.52436   0.00000  Uiso   1.00
H1813  H     0.27694   0.70278   0.58590   0.00000  Uiso   1.00
C1814  C     0.23883   0.98052   0.57904   0.00000  Uiso   1.00
H1815  H     0.20424   0.99063   0.60993   0.00000  Uiso   1.00
H1816  H     0.25694   0.96029   0.59999   0.00000  Uiso   1.00
H1817  H     0.23148   0.96241   0.54700   0.00000  Uiso   1.00
N1818  N     0.16732   0.88821   0.56866   0.00000  Uiso   1.00
O1819  O     0.16239   0.90551   0.61499   0.00000  Uiso   1.00
O1820  O     0.16544   0.91176   0.52865   0.00000  Uiso   1.00
O1821  O     0.04200   0.85641   0.92034   0.00000  Uiso   1.00
C1822  C     0.02763   0.89823   0.92415   0.00000  Uiso   1.00
H1823  H     0.03926   0.91181   0.88199   0.00000  Uiso   1.00
H1824  H     0.04490   0.91824   0.94657   0.00000  Uiso   1.00
C1825  C     0.30578   0.90062   0.95172   0.00000  Uiso   1.00
H1826  H     0.29257   0.87879   0.98733   0.00000  Uiso   1.00
H1827  H     0.29567   0.93216   0.96749   0.00000  Uiso   1.00
C1828  C     0.28010   0.89074   0.91207   0.00000  Uiso   1.00
H1829  H     0.29025   0.91407   0.87811   0.00000  Uiso   1.00
H1830  H     0.24045   0.89173   0.93389   0.00000  Uiso   1.00
H1831  H     0.28965   0.85941   0.89518   0.00000  Uiso   1.00
O1832  O     0.01984   0.86804   0.53401   0.00000  Uiso   1.00
C1833  C     0.02099   0.90515   0.56190   0.00000  Uiso   1.00
H1834  H     0.00378   0.92968   0.54542   0.00000  Uiso   1.00
H1835  H     0.05790   0.91700   0.55643   0.00000  Uiso   1.00
C1836  C     0.32499   0.89883   0.62302   0.00000  Uiso   1.00
H1837  H     0.28668   0.89254   0.62854   0.00000  Uiso   1.00
H1838  H     0.00561   0.87178   0.63907   0.00000  Uiso   1.00
C1839  C     0.32784   0.93678   0.65577   0.00000  Uiso   1.00
H1840  H     0.03227   0.94209   0.65276   0.00000  Uiso   1.00
H1841  H     0.30487   0.93175   0.69954   0.00000  Uiso   1.00
H1842  H     0.31531   0.96471   0.64001   0.00000  Uiso   1.00
O1843  O     0.17992   0.75908   0.87683   0.00000  Uiso   1.00
C1844  C     0.14127   0.73051   0.90139   0.00000  Uiso   1.00
H1845  H     0.12879   0.71936   0.86874   0.00000  Uiso   1.00
H1846  H     0.10913   0.74468   0.93255   0.00000  Uiso   1.00
C1847  C     0.15769   0.69318   0.92671   0.00000  Uiso   1.00
H1848  H     0.19052   0.67999   0.89593   0.00000  Uiso   1.00
H1849  H     0.16658   0.70316   0.96261   0.00000  Uiso   1.00
C1850  C     0.11847   0.99292   0.94561   0.00000  Uiso   1.00
H1851  H     0.08479   0.67200   0.97591   0.00000  Uiso   1.00
H1852  H     0.13088   0.96701   0.96527   0.00000  Uiso   1.00
H1853  H     0.11085   0.98077   0.90991   0.00000  Uiso   1.00
N1854  N     0.22388   0.95887   0.80239   0.00000  Uiso   1.00
O1855  O     0.20167   0.93325   0.84264   0.00000  Uiso   1.00
O1856  O     0.26650   0.97287   0.79757   0.00000  Uiso   1.00
O1857  O     0.46179   0.89442   0.75001   0.00000  Uiso   1.00
O1858  O     0.53823   0.89441   0.75001   0.00000  Uiso   1.00
C1859  C     0.50021   0.91342   0.74982   0.00000  Uiso   1.00
O1860  O     0.44280   0.83333   0.82681   0.00000  Uiso   1.00
O1861  O     0.51924   0.83332   0.82681   0.00000  Uiso   1.00
C1862  C     0.47257   0.83244   0.85283   0.00000  Uiso   1.00
Zn1863 Zn    0.44896   0.83334   0.75000   0.00000  Uiso   1.00
Zn1864 Zn    0.55104   0.83333   0.75000   0.00000  Uiso   1.00
O1865  O     0.46177   0.77226   0.75000   0.00000  Uiso   1.00
O1866  O     0.53821   0.77225   0.75000   0.00000  Uiso   1.00
O1867  O     0.48076   0.83335   0.67319   0.00000  Uiso   1.00
O1868  O     0.55720   0.83334   0.67319   0.00000  Uiso   1.00
C1869  C     0.49899   0.75342   0.75221   0.00000  Uiso   1.00
C1870  C     0.52715   0.83376   0.64736   0.00000  Uiso   1.00
C1871  C     0.58377   0.78239   0.51381   0.00000  Uiso   1.00
H1872  H     0.59792   0.78470   0.58766   0.00000  Uiso   1.00
C1873  C     0.54495   0.82940   0.58773   0.00000  Uiso   1.00
C1874  C     0.40956   0.84951   0.94442   0.00000  Uiso   1.00
C1875  C     0.39911   0.85627   0.50094   0.00000  Uiso   1.00
C1876  C     0.43445   0.84778   0.52368   0.00000  Uiso   1.00
C1877  C     0.47920   0.83104   0.99160   0.00000  Uiso   1.00
C1878  C     0.48390   0.81568   0.94016   0.00000  Uiso   1.00
C1879  C     0.51715   0.82519   0.51156   0.00000  Uiso   1.00
C1880  C     0.55385   0.79626   0.98561   0.00000  Uiso   1.00
C1881  C     0.55657   0.77904   0.93508   0.00000  Uiso   1.00
C1882  C     0.51817   0.78483   0.91667   0.00000  Uiso   1.00
C1883  C     0.51913   0.84679   0.55741   0.00000  Uiso   1.00
C1884  C     0.57874   0.79900   0.56444   0.00000  Uiso   1.00
C1885  C     0.45365   0.83083   0.91346   0.00000  Uiso   1.00
H1886  H     0.42571   0.85245   0.56718   0.00000  Uiso   1.00
C1887  C     0.53029   0.97925   0.77363   0.00000  Uiso   1.00
C1888  C     0.53168   0.68854   0.77043   0.00000  Uiso   1.00
H1889  H     0.55706   0.70541   0.78379   0.00000  Uiso   1.00
C1890  C     0.49690   0.70936   0.75610   0.00000  Uiso   1.00
C1891  C     0.46010   0.68748   0.74603   0.00000  Uiso   1.00
C1892  C     0.46652   0.97961   0.73447   0.00000  Uiso   1.00
C1893  C     0.49959   0.95776   0.75187   0.00000  Uiso   1.00
C1894  C     0.65038   0.80162   0.72692   0.00000  Uiso   1.00
C1895  C     0.36496   0.80235   0.72618   0.00000  Uiso   1.00
H1896  H     0.38935   0.77782   0.70668   0.00000  Uiso   1.00
N1897  N     0.38093   0.83334   0.75002   0.00000  Uiso   1.00
C1898  C     0.34921   0.86329   0.77617   0.00000  Uiso   1.00
H1899  H     0.36036   0.88668   0.79841   0.00000  Uiso   1.00
C1900  C     0.63507   0.86373   0.77526   0.00000  Uiso   1.00
H1901  H     0.61099   0.88802   0.79555   0.00000  Uiso   1.00
N1902  N     0.61906   0.83331   0.75001   0.00000  Uiso   1.00
O1903  O     0.41648   0.70466   0.74955   0.00000  Uiso   1.00
C1904  C     0.38749   0.71089   0.80566   0.00000  Uiso   1.00
H1905  H     0.35355   0.72517   0.80628   0.00000  Uiso   1.00
H1906  H     0.40468   0.73341   0.82497   0.00000  Uiso   1.00
C1907  C     0.37449   0.67081   0.84102   0.00000  Uiso   1.00
H1908  H     0.35218   0.98338   0.82592   0.00000  Uiso   1.00
H1909  H     0.40761   0.98764   0.83905   0.00000  Uiso   1.00
C1910  C     0.34704   0.67994   0.90133   0.00000  Uiso   1.00
H1911  H     0.36308   0.70683   0.91500   0.00000  Uiso   1.00
H1912  H     0.34863   0.98631   0.92704   0.00000  Uiso   1.00
H1913  H     0.64210   0.68573   0.90799   0.00000  Uiso   1.00
N1914  N     0.43785   0.96102   0.70679   0.00000  Uiso   1.00
O1915  O     0.44444   0.97402   0.65719   0.00000  Uiso   1.00
O1916  O     0.39589   0.94540   0.73600   0.00000  Uiso   1.00
N1917  N     0.63541   0.76679   0.70385   0.00000  Uiso   1.00
O1918  O     0.64592   0.72979   0.71565   0.00000  Uiso   1.00
O1919  O     0.62356   0.77213   0.66106   0.00000  Uiso   1.00
N1920  N     0.59981   0.75950   0.89984   0.00000  Uiso   1.00
O1921  O     0.64171   0.77553   0.89440   0.00000  Uiso   1.00
O1922  O     0.59782   0.73209   0.86467   0.00000  Uiso   1.00
O1923  O     0.61036   0.74676   0.99879   0.00000  Uiso   1.00
C1924  C     0.58020   0.71189   0.52213   0.00000  Uiso   1.00
H1925  H     0.57535   0.69395   0.98845   0.00000  Uiso   1.00
H1926  H     0.54312   0.71953   0.55099   0.00000  Uiso   1.00
C1927  C     0.60410   0.68465   0.55306   0.00000  Uiso   1.00
H1928  H     0.63956   0.67406   0.52436   0.00000  Uiso   1.00
H1929  H     0.61028   0.70278   0.58590   0.00000  Uiso   1.00
C1930  C     0.57217   0.98052   0.57904   0.00000  Uiso   1.00
H1931  H     0.53757   0.99063   0.60993   0.00000  Uiso   1.00
H1932  H     0.59027   0.96029   0.59999   0.00000  Uiso   1.00
H1933  H     0.56481   0.96241   0.54700   0.00000  Uiso   1.00
N1934  N     0.50065   0.88821   0.56866   0.00000  Uiso   1.00
O1935  O     0.49572   0.90551   0.61499   0.00000  Uiso   1.00
O1936  O     0.49878   0.91176   0.52865   0.00000  Uiso   1.00
O1937  O     0.37533   0.85641   0.92034   0.00000  Uiso   1.00
C1938  C     0.36096   0.89823   0.92415   0.00000  Uiso   1.00
H1939  H     0.37259   0.91181   0.88199   0.00000  Uiso   1.00
H1940  H     0.37823   0.91824   0.94657   0.00000  Uiso   1.00
C1941  C     0.63911   0.90062   0.95172   0.00000  Uiso   1.00
H1942  H     0.62590   0.87879   0.98733   0.00000  Uiso   1.00
H1943  H     0.62900   0.93216   0.96749   0.00000  Uiso   1.00
C1944  C     0.61344   0.89074   0.91207   0.00000  Uiso   1.00
H1945  H     0.62358   0.91407   0.87811   0.00000  Uiso   1.00
H1946  H     0.57378   0.89173   0.93389   0.00000  Uiso   1.00
H1947  H     0.62299   0.85941   0.89518   0.00000  Uiso   1.00
O1948  O     0.35317   0.86804   0.53401   0.00000  Uiso   1.00
C1949  C     0.35432   0.90515   0.56190   0.00000  Uiso   1.00
H1950  H     0.33711   0.92968   0.54542   0.00000  Uiso   1.00
H1951  H     0.39124   0.91700   0.55643   0.00000  Uiso   1.00
C1952  C     0.65832   0.89883   0.62302   0.00000  Uiso   1.00
H1953  H     0.62001   0.89254   0.62854   0.00000  Uiso   1.00
H1954  H     0.33894   0.87178   0.63907   0.00000  Uiso   1.00
C1955  C     0.66117   0.93678   0.65577   0.00000  Uiso   1.00
H1956  H     0.36561   0.94209   0.65276   0.00000  Uiso   1.00
H1957  H     0.63820   0.93175   0.69954   0.00000  Uiso   1.00
H1958  H     0.64864   0.96471   0.64001   0.00000  Uiso   1.00
O1959  O     0.51326   0.75908   0.87683   0.00000  Uiso   1.00
C1960  C     0.47460   0.73051   0.90139   0.00000  Uiso   1.00
H1961  H     0.46213   0.71936   0.86874   0.00000  Uiso   1.00
H1962  H     0.44246   0.74468   0.93255   0.00000  Uiso   1.00
C1963  C     0.49102   0.69318   0.92671   0.00000  Uiso   1.00
H1964  H     0.52385   0.67999   0.89593   0.00000  Uiso   1.00
H1965  H     0.49991   0.70316   0.96261   0.00000  Uiso   1.00
C1966  C     0.45180   0.99292   0.94561   0.00000  Uiso   1.00
H1967  H     0.41813   0.67200   0.97591   0.00000  Uiso   1.00
H1968  H     0.46421   0.96701   0.96527   0.00000  Uiso   1.00
H1969  H     0.44419   0.98077   0.90991   0.00000  Uiso   1.00
N1970  N     0.55722   0.95887   0.80239   0.00000  Uiso   1.00
O1971  O     0.53500   0.93325   0.84264   0.00000  Uiso   1.00
O1972  O     0.59983   0.97287   0.79757   0.00000  Uiso   1.00
O1973  O     0.79512   0.89442   0.75001   0.00000  Uiso   1.00
O1974  O     0.87157   0.89441   0.75001   0.00000  Uiso   1.00
C1975  C     0.83355   0.91342   0.74982   0.00000  Uiso   1.00
O1976  O     0.77613   0.83333   0.82681   0.00000  Uiso   1.00
O1977  O     0.85258   0.83332   0.82681   0.00000  Uiso   1.00
C1978  C     0.80590   0.83244   0.85283   0.00000  Uiso   1.00
Zn1979 Zn    0.78229   0.83334   0.75000   0.00000  Uiso   1.00
Zn1980 Zn    0.88438   0.83333   0.75000   0.00000  Uiso   1.00
O1981  O     0.79510   0.77226   0.75000   0.00000  Uiso   1.00
O1982  O     0.87154   0.77225   0.75000   0.00000  Uiso   1.00
O1983  O     0.81409   0.83335   0.67319   0.00000  Uiso   1.00
O1984  O     0.89053   0.83334   0.67319   0.00000  Uiso   1.00
C1985  C     0.83233   0.75342   0.75221   0.00000  Uiso   1.00
C1986  C     0.86048   0.83376   0.64736   0.00000  Uiso   1.00
C1987  C     0.91711   0.78239   0.51381   0.00000  Uiso   1.00
H1988  H     0.93126   0.78470   0.58766   0.00000  Uiso   1.00
C1989  C     0.87829   0.82940   0.58773   0.00000  Uiso   1.00
C1990  C     0.74289   0.84951   0.94442   0.00000  Uiso   1.00
C1991  C     0.73245   0.85627   0.50094   0.00000  Uiso   1.00
C1992  C     0.76779   0.84778   0.52368   0.00000  Uiso   1.00
C1993  C     0.81253   0.83104   0.99160   0.00000  Uiso   1.00
C1994  C     0.81723   0.81568   0.94016   0.00000  Uiso   1.00
C1995  C     0.85048   0.82519   0.51156   0.00000  Uiso   1.00
C1996  C     0.88718   0.79626   0.98561   0.00000  Uiso   1.00
C1997  C     0.88990   0.77904   0.93508   0.00000  Uiso   1.00
C1998  C     0.85150   0.78483   0.91667   0.00000  Uiso   1.00
C1999  C     0.85246   0.84679   0.55741   0.00000  Uiso   1.00
C2000  C     0.91207   0.79900   0.56444   0.00000  Uiso   1.00
C2001  C     0.78698   0.83083   0.91346   0.00000  Uiso   1.00
H2002  H     0.75904   0.85245   0.56718   0.00000  Uiso   1.00
C2003  C     0.86362   0.97925   0.77363   0.00000  Uiso   1.00
C2004  C     0.86501   0.68854   0.77043   0.00000  Uiso   1.00
H2005  H     0.89039   0.70541   0.78379   0.00000  Uiso   1.00
C2006  C     0.83024   0.70936   0.75610   0.00000  Uiso   1.00
C2007  C     0.79343   0.68748   0.74603   0.00000  Uiso   1.00
C2008  C     0.79985   0.97961   0.73447   0.00000  Uiso   1.00
C2009  C     0.83292   0.95776   0.75187   0.00000  Uiso   1.00
C2010  C     0.98371   0.80162   0.72692   0.00000  Uiso   1.00
C2011  C     0.69830   0.80235   0.72618   0.00000  Uiso   1.00
H2012  H     0.72268   0.77782   0.70668   0.00000  Uiso   1.00
N2013  N     0.71426   0.83334   0.75002   0.00000  Uiso   1.00
C2014  C     0.68255   0.86329   0.77617   0.00000  Uiso   1.00
H2015  H     0.69369   0.88668   0.79841   0.00000  Uiso   1.00
C2016  C     0.96840   0.86373   0.77526   0.00000  Uiso   1.00
H2017  H     0.94432   0.88802   0.79555   0.00000  Uiso   1.00
N2018  N     0.95239   0.83331   0.75001   0.00000  Uiso   1.00
O2019  O     0.74981   0.70466   0.74955   0.00000  Uiso   1.00
C2020  C     0.72082   0.71089   0.80566   0.00000  Uiso   1.00
H2021  H     0.68688   0.72517   0.80628   0.00000  Uiso   1.00
H2022  H     0.73801   0.73341   0.82497   0.00000  Uiso   1.00
C2023  C     0.70783   0.67081   0.84102   0.00000  Uiso   1.00
H2024  H     0.68551   0.98338   0.82592   0.00000  Uiso   1.00
H2025  H     0.74094   0.98764   0.83905   0.00000  Uiso   1.00
C2026  C     0.68037   0.67994   0.90133   0.00000  Uiso   1.00
H2027  H     0.69641   0.70683   0.91500   0.00000  Uiso   1.00
H2028  H     0.68196   0.98631   0.92704   0.00000  Uiso   1.00
H2029  H     0.97543   0.68573   0.90799   0.00000  Uiso   1.00
N2030  N     0.77119   0.96102   0.70679   0.00000  Uiso   1.00
O2031  O     0.77777   0.97402   0.65719   0.00000  Uiso   1.00
O2032  O     0.72923   0.94540   0.73600   0.00000  Uiso   1.00
N2033  N     0.96875   0.76679   0.70385   0.00000  Uiso   1.00
O2034  O     0.97925   0.72979   0.71565   0.00000  Uiso   1.00
O2035  O     0.95690   0.77213   0.66106   0.00000  Uiso   1.00
N2036  N     0.93315   0.75950   0.89984   0.00000  Uiso   1.00
O2037  O     0.97504   0.77553   0.89440   0.00000  Uiso   1.00
O2038  O     0.93115   0.73209   0.86467   0.00000  Uiso   1.00
O2039  O     0.94370   0.74676   0.99879   0.00000  Uiso   1.00
C2040  C     0.91353   0.71189   0.52213   0.00000  Uiso   1.00
H2041  H     0.90869   0.69395   0.98845   0.00000  Uiso   1.00
H2042  H     0.87646   0.71953   0.55099   0.00000  Uiso   1.00
C2043  C     0.93743   0.68465   0.55306   0.00000  Uiso   1.00
H2044  H     0.97290   0.67406   0.52436   0.00000  Uiso   1.00
H2045  H     0.94361   0.70278   0.58590   0.00000  Uiso   1.00
C2046  C     0.90550   0.98052   0.57904   0.00000  Uiso   1.00
H2047  H     0.87090   0.99063   0.60993   0.00000  Uiso   1.00
H2048  H     0.92360   0.96029   0.59999   0.00000  Uiso   1.00
H2049  H     0.89815   0.96241   0.54700   0.00000  Uiso   1.00
N2050  N     0.83398   0.88821   0.56866   0.00000  Uiso   1.00
O2051  O     0.82905   0.90551   0.61499   0.00000  Uiso   1.00
O2052  O     0.83211   0.91176   0.52865   0.00000  Uiso   1.00
O2053  O     0.70867   0.85641   0.92034   0.00000  Uiso   1.00
C2054  C     0.69430   0.89823   0.92415   0.00000  Uiso   1.00
H2055  H     0.70593   0.91181   0.88199   0.00000  Uiso   1.00
H2056  H     0.71157   0.91824   0.94657   0.00000  Uiso   1.00
C2057  C     0.97244   0.90062   0.95172   0.00000  Uiso   1.00
H2058  H     0.95924   0.87879   0.98733   0.00000  Uiso   1.00
H2059  H     0.96234   0.93216   0.96749   0.00000  Uiso   1.00
C2060  C     0.94677   0.89074   0.91207   0.00000  Uiso   1.00
H2061  H     0.95691   0.91407   0.87811   0.00000  Uiso   1.00
H2062  H     0.90712   0.89173   0.93389   0.00000  Uiso   1.00
H2063  H     0.95632   0.85941   0.89518   0.00000  Uiso   1.00
O2064  O     0.68650   0.86804   0.53401   0.00000  Uiso   1.00
C2065  C     0.68765   0.90515   0.56190   0.00000  Uiso   1.00
H2066  H     0.67044   0.92968   0.54542   0.00000  Uiso   1.00
H2067  H     0.72457   0.91700   0.55643   0.00000  Uiso   1.00
C2068  C     0.99166   0.89883   0.62302   0.00000  Uiso   1.00
H2069  H     0.95335   0.89254   0.62854   0.00000  Uiso   1.00
H2070  H     0.67227   0.87178   0.63907   0.00000  Uiso   1.00
C2071  C     0.99451   0.93678   0.65577   0.00000  Uiso   1.00
H2072  H     0.69894   0.94209   0.65276   0.00000  Uiso   1.00
H2073  H     0.97153   0.93175   0.69954   0.00000  Uiso   1.00
H2074  H     0.98197   0.96471   0.64001   0.00000  Uiso   1.00
O2075  O     0.84659   0.75908   0.87683   0.00000  Uiso   1.00
C2076  C     0.80794   0.73051   0.90139   0.00000  Uiso   1.00
H2077  H     0.79546   0.71936   0.86874   0.00000  Uiso   1.00
H2078  H     0.77580   0.74468   0.93255   0.00000  Uiso   1.00
C2079  C     0.82436   0.69318   0.92671   0.00000  Uiso   1.00
H2080  H     0.85718   0.67999   0.89593   0.00000  Uiso   1.00
H2081  H     0.83325   0.70316   0.96261   0.00000  Uiso   1.00
C2082  C     0.78514   0.99292   0.94561   0.00000  Uiso   1.00
H2083  H     0.75146   0.67200   0.97591   0.00000  Uiso   1.00
H2084  H     0.79754   0.96701   0.96527   0.00000  Uiso   1.00
H2085  H     0.77752   0.98077   0.90991   0.00000  Uiso   1.00
N2086  N     0.89055   0.95887   0.80239   0.00000  Uiso   1.00
O2087  O     0.86833   0.93325   0.84264   0.00000  Uiso   1.00
O2088  O     0.93316   0.97287   0.79757   0.00000  Uiso   1.00
loop_
_geom_bond_atom_site_label_1
_geom_bond_atom_site_label_2
_geom_bond_distance
_geom_bond_site_symmetry_2
_ccdc_geom_bond_type
O1     Zn7     2.010   .     S
O1     C3      1.289   .     A
O2     Zn8     2.017   .     S
O2     C3      1.292   .     A
C3     C37     1.437   .     S
O4     Zn7     1.945   .     S
O4     C6      1.293   .     A
O5     Zn8     1.883   .     S
O5     C6      1.306   .     A
C6     C29     1.476   .     S
Zn7    O11     1.883   .     S
Zn7    O9      2.017   .     S
Zn7    N41     2.019   .     S
Zn8    O12     1.945   .     S
Zn8    O10     2.010   .     S
Zn8    N46     2.019   .     S
O9     C13     1.286   .     A
O10    C13     1.291   .     A
O11    C14     1.297   .     A
O12    C14     1.296   .     A
C13    C34     1.428   .     S
C14    C17     1.461   .     S
C15    C28     1.391   .     A
C15    C1068   1.414   1_554 S
C15    O1111   1.384   1_554 S
H16    C28     1.072   .     S
C17    C27     1.401   .     A
C17    C28     1.393   .     A
C18    O81     1.391   .     S
C18    C29     1.414   .     A
C18    C1063   1.414   .     S
C19    C20     1.405   .     A
C19    O92     1.387   .     S
C19    C1062   1.414   1_554 S
C20    H30     1.082   .     S
C20    C1065   1.409   1_554 S
C21    C22     1.397   .     A
C21    C1064   1.409   .     S
C21    C1067   1.413   .     S
C22    C29     1.407   .     A
C22    C26     1.413   .     A
C23    C27     1.412   .     A
C23    C1065   1.413   1_554 S
C23    C1068   1.424   1_554 S
C24    C25     1.413   .     A
C24    C1059   1.414   .     S
C24    C1067   1.424   .     S
C25    C26     1.400   .     A
C25    N64     1.441   .     S
C26    O103    1.387   .     S
C27    N78     1.447   .     S
C31    N114    1.437   .     S
C31    C37     1.416   .     A
C31    C380    1.381   .     S
C32    C34     1.394   .     A
C32    H33     1.083   .     S
C32    C727    1.381   1_545 S
C34    C35     1.400   .     A
C35    O47     1.387   .     S
C35    C732    1.371   1_545 S
C36    C37     1.413   .     A
C36    N58     1.431   .     S
C36    C383    1.371   .     S
C38    N61     1.425   .     S
C38    N46     1.383   .     A
C38    C155    1.415   .     S
C39    N41     1.355   .     A
C39    H40     1.082   .     S
C39    C270    1.415   1_455 S
N41    C42     1.366   .     A
C42    H43     1.079   .     S
C42    C276    1.418   1_455 S
C44    N46     1.365   .     A
C44    H45     1.077   .     S
C44    C158    1.418   .     S
O47    C48     1.425   .     S
C48    C51     1.545   .     S
C48    H50     1.110   .     S
C48    H49     1.107   .     S
C51    C54     1.524   .     S
C51    H748    1.110   1_545 S
C51    H749    1.108   1_545 S
H52    C399    1.110   .     S
H53    C399    1.108   .     S
C54    H55     1.111   .     S
C54    H752    1.105   1_545 S
C54    H289    1.104   1_455 S
H56    C402    1.105   .     S
H57    C170    1.104   .     S
N58    O60     1.298   .     A
N58    O59     1.301   .     A
N61    O63     1.295   .     A
N61    O62     1.301   .     A
N64    O65     1.302   .     A
N64    O66     1.301   .     A
O67    C1059   1.384   .     S
O67    C1112   1.421   .     S
C68    C71     1.528   .     S
C68    H70     1.120   .     S
C68    O1111   1.421   1_554 S
C68    H1113   1.110   1_554 S
H69    C1112   1.110   .     S
C71    H73     1.112   .     S
C71    H72     1.111   .     S
C71    C770    1.525   1_545 S
C74    H76     1.106   .     S
C74    H77     1.109   .     S
C74    H75     1.109   .     S
C74    C419    1.525   .     S
N78    O80     1.302   .     A
N78    O79     1.299   .     A
O81    C82     1.418   .     S
C82    H84     1.115   .     S
C82    H83     1.111   .     S
C82    C317    1.538   1_455 S
C85    H86     1.110   .     S
C85    H87     1.109   .     S
C85    C88     1.524   .     S
C85    C198    1.538   .     S
C88    H91     1.109   .     S
C88    H89     1.110   .     S
C88    H90     1.109   .     S
O92    C93     1.419   .     S
C93    H94     1.110   .     S
C93    H95     1.117   .     S
C93    C328    1.527   1_455 S
C96    C99     1.524   .     S
C96    H97     1.110   .     S
C96    C209    1.527   .     S
C96    H214    1.111   .     S
H98    C328    1.111   1_455 S
C99    H101    1.109   .     S
C99    H102    1.109   .     S
C99    H216    1.107   .     S
H100   C331    1.107   1_455 S
O103   C104    1.421   .     S
C104   H106    1.115   .     S
C104   H105    1.106   .     S
C104   C107    1.535   .     S
C107   H108    1.110   .     S
C107   H109    1.111   .     S
C107   C806    1.527   1_545 S
C110   H112    1.110   .     S
C110   H113    1.110   .     S
C110   C455    1.527   .     S
C110   H459    1.111   .     S
H111   C806    1.111   1_545 S
N114   O115    1.302   .     A
N114   O116    1.302   .     A
O117   Zn123   2.010   .     S
O117   C119    1.289   .     A
O118   Zn124   2.017   .     S
O118   C119    1.292   .     A
C119   C153    1.437   .     S
O120   Zn123   1.945   .     S
O120   C122    1.293   .     A
O121   Zn124   1.883   .     S
O121   C122    1.306   .     A
C122   C145    1.476   .     S
Zn123  O127    1.883   .     S
Zn123  O125    2.017   .     S
Zn123  N157    2.019   .     S
Zn124  O128    1.945   .     S
Zn124  O126    2.010   .     S
Zn124  N162    2.019   .     S
O125   C129    1.286   .     A
O126   C129    1.291   .     A
O127   C130    1.297   .     A
O128   C130    1.296   .     A
C129   C150    1.428   .     S
C130   C133    1.461   .     S
C131   C144    1.391   .     A
C131   C1184   1.414   1_554 S
C131   O1227   1.384   1_554 S
H132   C144    1.072   .     S
C133   C143    1.401   .     A
C133   C144    1.393   .     A
C134   O197    1.391   .     S
C134   C145    1.414   .     A
C134   C1179   1.414   .     S
C135   C136    1.405   .     A
C135   O208    1.387   .     S
C135   C1178   1.414   1_554 S
C136   H146    1.082   .     S
C136   C1181   1.409   1_554 S
C137   C138    1.397   .     A
C137   C1180   1.409   .     S
C137   C1183   1.413   .     S
C138   C145    1.407   .     A
C138   C142    1.413   .     A
C139   C143    1.412   .     A
C139   C1181   1.413   1_554 S
C139   C1184   1.424   1_554 S
C140   C141    1.413   .     A
C140   C1175   1.414   .     S
C140   C1183   1.424   .     S
C141   C142    1.400   .     A
C141   N180    1.441   .     S
C142   O219    1.387   .     S
C143   N194    1.447   .     S
C147   N230    1.437   .     S
C147   C153    1.416   .     A
C147   C496    1.381   .     S
C148   C150    1.394   .     A
C148   H149    1.083   .     S
C148   C843    1.381   1_545 S
C150   C151    1.400   .     A
C151   O163    1.387   .     S
C151   C848    1.371   1_545 S
C152   C153    1.413   .     A
C152   N174    1.431   .     S
C152   C499    1.371   .     S
C154   N177    1.425   .     S
C154   N162    1.383   .     A
C154   C271    1.415   .     S
C155   N157    1.355   .     A
C155   H156    1.082   .     S
N157   C158    1.366   .     A
C158   H159    1.079   .     S
C160   N162    1.365   .     A
C160   H161    1.077   .     S
C160   C274    1.418   .     S
O163   C164    1.425   .     S
C164   C167    1.545   .     S
C164   H166    1.110   .     S
C164   H165    1.107   .     S
C167   C170    1.524   .     S
C167   H864    1.110   1_545 S
C167   H865    1.108   1_545 S
H168   C515    1.110   .     S
H169   C515    1.108   .     S
C170   H171    1.111   .     S
C170   H868    1.105   1_545 S
H172   C518    1.105   .     S
H173   C286    1.104   .     S
N174   O176    1.298   .     A
N174   O175    1.301   .     A
N177   O179    1.295   .     A
N177   O178    1.301   .     A
N180   O181    1.302   .     A
N180   O182    1.301   .     A
O183   C1175   1.384   .     S
O183   C1228   1.421   .     S
C184   C187    1.528   .     S
C184   H186    1.120   .     S
C184   O1227   1.421   1_554 S
C184   H1229   1.110   1_554 S
H185   C1228   1.110   .     S
C187   H189    1.112   .     S
C187   H188    1.111   .     S
C187   C886    1.525   1_545 S
C190   H192    1.106   .     S
C190   H193    1.109   .     S
C190   H191    1.109   .     S
C190   C535    1.525   .     S
N194   O196    1.302   .     A
N194   O195    1.299   .     A
O197   C198    1.418   .     S
C198   H200    1.115   .     S
C198   H199    1.111   .     S
C201   H202    1.110   .     S
C201   H203    1.109   .     S
C201   C204    1.524   .     S
C201   C314    1.538   .     S
C204   H207    1.109   .     S
C204   H205    1.110   .     S
C204   H206    1.109   .     S
O208   C209    1.419   .     S
C209   H210    1.110   .     S
C209   H211    1.117   .     S
C212   C215    1.524   .     S
C212   H213    1.110   .     S
C212   C325    1.527   .     S
C212   H330    1.111   .     S
C215   H217    1.109   .     S
C215   H218    1.109   .     S
C215   H332    1.107   .     S
O219   C220    1.421   .     S
C220   H222    1.115   .     S
C220   H221    1.106   .     S
C220   C223    1.535   .     S
C223   H224    1.110   .     S
C223   H225    1.111   .     S
C223   C922    1.527   1_545 S
C226   H228    1.110   .     S
C226   H229    1.110   .     S
C226   C571    1.527   .     S
C226   H575    1.111   .     S
H227   C922    1.111   1_545 S
N230   O231    1.302   .     A
N230   O232    1.302   .     A
O233   Zn239   2.010   .     S
O233   C235    1.289   .     A
O234   Zn240   2.017   .     S
O234   C235    1.292   .     A
C235   C269    1.437   .     S
O236   Zn239   1.945   .     S
O236   C238    1.293   .     A
O237   Zn240   1.883   .     S
O237   C238    1.306   .     A
C238   C261    1.476   .     S
Zn239  O243    1.883   .     S
Zn239  O241    2.017   .     S
Zn239  N273    2.019   .     S
Zn240  O244    1.945   .     S
Zn240  O242    2.010   .     S
Zn240  N278    2.019   .     S
O241   C245    1.286   .     A
O242   C245    1.291   .     A
O243   C246    1.297   .     A
O244   C246    1.296   .     A
C245   C266    1.428   .     S
C246   C249    1.461   .     S
C247   C260    1.391   .     A
C247   C1300   1.414   1_554 S
C247   O1343   1.384   1_554 S
H248   C260    1.072   .     S
C249   C259    1.401   .     A
C249   C260    1.393   .     A
C250   O313    1.391   .     S
C250   C261    1.414   .     A
C250   C1295   1.414   .     S
C251   C252    1.405   .     A
C251   O324    1.387   .     S
C251   C1294   1.414   1_554 S
C252   H262    1.082   .     S
C252   C1297   1.409   1_554 S
C253   C254    1.397   .     A
C253   C1296   1.409   .     S
C253   C1299   1.413   .     S
C254   C261    1.407   .     A
C254   C258    1.413   .     A
C255   C259    1.412   .     A
C255   C1297   1.413   1_554 S
C255   C1300   1.424   1_554 S
C256   C257    1.413   .     A
C256   C1291   1.414   .     S
C256   C1299   1.424   .     S
C257   C258    1.400   .     A
C257   N296    1.441   .     S
C258   O335    1.387   .     S
C259   N310    1.447   .     S
C263   N346    1.437   .     S
C263   C269    1.416   .     A
C263   C612    1.381   .     S
C264   C266    1.394   .     A
C264   H265    1.083   .     S
C264   C959    1.381   1_545 S
C266   C267    1.400   .     A
C267   O279    1.387   .     S
C267   C964    1.371   1_545 S
C268   C269    1.413   .     A
C268   N290    1.431   .     S
C268   C615    1.371   .     S
C270   N293    1.425   .     S
C270   N278    1.383   .     A
C270   C39     1.415   1_655 S
C271   N273    1.355   .     A
C271   H272    1.082   .     S
N273   C274    1.366   .     A
C274   H275    1.079   .     S
C276   N278    1.365   .     A
C276   H277    1.077   .     S
C276   C42     1.418   1_655 S
O279   C280    1.425   .     S
C280   C283    1.545   .     S
C280   H282    1.110   .     S
C280   H281    1.107   .     S
C283   C286    1.524   .     S
C283   H980    1.110   1_545 S
C283   H981    1.108   1_545 S
H284   C631    1.110   .     S
H285   C631    1.108   .     S
C286   H287    1.111   .     S
C286   H984    1.105   1_545 S
H288   C634    1.105   .     S
H289   C54     1.104   1_655 S
N290   O292    1.298   .     A
N290   O291    1.301   .     A
N293   O295    1.295   .     A
N293   O294    1.301   .     A
N296   O297    1.302   .     A
N296   O298    1.301   .     A
O299   C1291   1.384   .     S
O299   C1344   1.421   .     S
C300   C303    1.528   .     S
C300   H302    1.120   .     S
C300   O1343   1.421   1_554 S
C300   H1345   1.110   1_554 S
H301   C1344   1.110   .     S
C303   H305    1.112   .     S
C303   H304    1.111   .     S
C303   C1002   1.525   1_545 S
C306   H308    1.106   .     S
C306   H309    1.109   .     S
C306   H307    1.109   .     S
C306   C651    1.525   .     S
N310   O312    1.302   .     A
N310   O311    1.299   .     A
O313   C314    1.418   .     S
C314   H316    1.115   .     S
C314   H315    1.111   .     S
C317   H318    1.110   .     S
C317   H319    1.109   .     S
C317   C320    1.524   .     S
C317   C82     1.538   1_655 S
C320   H323    1.109   .     S
C320   H321    1.110   .     S
C320   H322    1.109   .     S
O324   C325    1.419   .     S
C325   H326    1.110   .     S
C325   H327    1.117   .     S
C328   C331    1.524   .     S
C328   H329    1.110   .     S
C328   C93     1.527   1_655 S
C328   H98     1.111   1_655 S
C331   H333    1.109   .     S
C331   H334    1.109   .     S
C331   H100    1.107   1_655 S
O335   C336    1.421   .     S
C336   H338    1.115   .     S
C336   H337    1.106   .     S
C336   C339    1.535   .     S
C339   H340    1.110   .     S
C339   H341    1.111   .     S
C339   C1038   1.527   1_545 S
C342   H344    1.110   .     S
C342   H345    1.110   .     S
C342   C687    1.527   .     S
C342   H691    1.111   .     S
H343   C1038   1.111   1_545 S
N346   O347    1.302   .     A
N346   O348    1.302   .     A
O349   Zn355   2.010   .     S
O349   C351    1.289   .     A
O350   Zn356   2.017   .     S
O350   C351    1.292   .     A
C351   C385    1.437   .     S
O352   Zn355   1.945   .     S
O352   C354    1.293   .     A
O353   Zn356   1.883   .     S
O353   C354    1.306   .     A
C354   C377    1.476   .     S
Zn355  O359    1.883   .     S
Zn355  O357    2.017   .     S
Zn355  N389    2.019   .     S
Zn356  O360    1.945   .     S
Zn356  O358    2.010   .     S
Zn356  N394    2.019   .     S
O357   C361    1.286   .     A
O358   C361    1.291   .     A
O359   C362    1.297   .     A
O360   C362    1.296   .     A
C361   C382    1.428   .     S
C362   C365    1.461   .     S
C363   C376    1.391   .     A
C363   C1416   1.414   1_554 S
C363   O1459   1.384   1_554 S
H364   C376    1.072   .     S
C365   C375    1.401   .     A
C365   C376    1.393   .     A
C366   O429    1.391   .     S
C366   C377    1.414   .     A
C366   C1411   1.414   .     S
C367   C368    1.405   .     A
C367   O440    1.387   .     S
C367   C1410   1.414   1_554 S
C368   H378    1.082   .     S
C368   C1413   1.409   1_554 S
C369   C370    1.397   .     A
C369   C1412   1.409   .     S
C369   C1415   1.413   .     S
C370   C377    1.407   .     A
C370   C374    1.413   .     A
C371   C375    1.412   .     A
C371   C1413   1.413   1_554 S
C371   C1416   1.424   1_554 S
C372   C373    1.413   .     A
C372   C1407   1.414   .     S
C372   C1415   1.424   .     S
C373   C374    1.400   .     A
C373   N412    1.441   .     S
C374   O451    1.387   .     S
C375   N426    1.447   .     S
C379   N462    1.437   .     S
C379   C385    1.416   .     A
C379   C728    1.381   .     S
C380   C382    1.394   .     A
C380   H381    1.083   .     S
C382   C383    1.400   .     A
C383   O395    1.387   .     S
C384   C385    1.413   .     A
C384   N406    1.431   .     S
C384   C731    1.371   .     S
C386   N409    1.425   .     S
C386   N394    1.383   .     A
C386   C503    1.415   .     S
C387   N389    1.355   .     A
C387   H388    1.082   .     S
C387   C618    1.415   1_455 S
N389   C390    1.366   .     A
C390   H391    1.079   .     S
C390   C624    1.418   1_455 S
C392   N394    1.365   .     A
C392   H393    1.077   .     S
C392   C506    1.418   .     S
O395   C396    1.425   .     S
C396   C399    1.545   .     S
C396   H398    1.110   .     S
C396   H397    1.107   .     S
C399   C402    1.524   .     S
H400   C747    1.110   .     S
H401   C747    1.108   .     S
C402   H403    1.111   .     S
C402   H637    1.104   1_455 S
H404   C750    1.105   .     S
H405   C518    1.104   .     S
N406   O408    1.298   .     A
N406   O407    1.301   .     A
N409   O411    1.295   .     A
N409   O410    1.301   .     A
N412   O413    1.302   .     A
N412   O414    1.301   .     A
O415   C1407   1.384   .     S
O415   C1460   1.421   .     S
C416   C419    1.528   .     S
C416   H418    1.120   .     S
C416   O1459   1.421   1_554 S
C416   H1461   1.110   1_554 S
H417   C1460   1.110   .     S
C419   H421    1.112   .     S
C419   H420    1.111   .     S
C422   H424    1.106   .     S
C422   H425    1.109   .     S
C422   H423    1.109   .     S
C422   C767    1.525   .     S
N426   O428    1.302   .     A
N426   O427    1.299   .     A
O429   C430    1.418   .     S
C430   H432    1.115   .     S
C430   H431    1.111   .     S
C430   C665    1.538   1_455 S
C433   H434    1.110   .     S
C433   H435    1.109   .     S
C433   C436    1.524   .     S
C433   C546    1.538   .     S
C436   H439    1.109   .     S
C436   H437    1.110   .     S
C436   H438    1.109   .     S
O440   C441    1.419   .     S
C441   H442    1.110   .     S
C441   H443    1.117   .     S
C441   C676    1.527   1_455 S
C444   C447    1.524   .     S
C444   H445    1.110   .     S
C444   C557    1.527   .     S
C444   H562    1.111   .     S
H446   C676    1.111   1_455 S
C447   H449    1.109   .     S
C447   H450    1.109   .     S
C447   H564    1.107   .     S
H448   C679    1.107   1_455 S
O451   C452    1.421   .     S
C452   H454    1.115   .     S
C452   H453    1.106   .     S
C452   C455    1.535   .     S
C455   H456    1.110   .     S
C455   H457    1.111   .     S
C458   H460    1.110   .     S
C458   H461    1.110   .     S
C458   C803    1.527   .     S
C458   H807    1.111   .     S
N462   O463    1.302   .     A
N462   O464    1.302   .     A
O465   Zn471   2.010   .     S
O465   C467    1.289   .     A
O466   Zn472   2.017   .     S
O466   C467    1.292   .     A
C467   C501    1.437   .     S
O468   Zn471   1.945   .     S
O468   C470    1.293   .     A
O469   Zn472   1.883   .     S
O469   C470    1.306   .     A
C470   C493    1.476   .     S
Zn471  O475    1.883   .     S
Zn471  O473    2.017   .     S
Zn471  N505    2.019   .     S
Zn472  O476    1.945   .     S
Zn472  O474    2.010   .     S
Zn472  N510    2.019   .     S
O473   C477    1.286   .     A
O474   C477    1.291   .     A
O475   C478    1.297   .     A
O476   C478    1.296   .     A
C477   C498    1.428   .     S
C478   C481    1.461   .     S
C479   C492    1.391   .     A
C479   C1532   1.414   1_554 S
C479   O1575   1.384   1_554 S
H480   C492    1.072   .     S
C481   C491    1.401   .     A
C481   C492    1.393   .     A
C482   O545    1.391   .     S
C482   C493    1.414   .     A
C482   C1527   1.414   .     S
C483   C484    1.405   .     A
C483   O556    1.387   .     S
C483   C1526   1.414   1_554 S
C484   H494    1.082   .     S
C484   C1529   1.409   1_554 S
C485   C486    1.397   .     A
C485   C1528   1.409   .     S
C485   C1531   1.413   .     S
C486   C493    1.407   .     A
C486   C490    1.413   .     A
C487   C491    1.412   .     A
C487   C1529   1.413   1_554 S
C487   C1532   1.424   1_554 S
C488   C489    1.413   .     A
C488   C1523   1.414   .     S
C488   C1531   1.424   .     S
C489   C490    1.400   .     A
C489   N528    1.441   .     S
C490   O567    1.387   .     S
C491   N542    1.447   .     S
C495   N578    1.437   .     S
C495   C501    1.416   .     A
C495   C844    1.381   .     S
C496   C498    1.394   .     A
C496   H497    1.083   .     S
C498   C499    1.400   .     A
C499   O511    1.387   .     S
C500   C501    1.413   .     A
C500   N522    1.431   .     S
C500   C847    1.371   .     S
C502   N525    1.425   .     S
C502   N510    1.383   .     A
C502   C619    1.415   .     S
C503   N505    1.355   .     A
C503   H504    1.082   .     S
N505   C506    1.366   .     A
C506   H507    1.079   .     S
C508   N510    1.365   .     A
C508   H509    1.077   .     S
C508   C622    1.418   .     S
O511   C512    1.425   .     S
C512   C515    1.545   .     S
C512   H514    1.110   .     S
C512   H513    1.107   .     S
C515   C518    1.524   .     S
H516   C863    1.110   .     S
H517   C863    1.108   .     S
C518   H519    1.111   .     S
H520   C866    1.105   .     S
H521   C634    1.104   .     S
N522   O524    1.298   .     A
N522   O523    1.301   .     A
N525   O527    1.295   .     A
N525   O526    1.301   .     A
N528   O529    1.302   .     A
N528   O530    1.301   .     A
O531   C1523   1.384   .     S
O531   C1576   1.421   .     S
C532   C535    1.528   .     S
C532   H534    1.120   .     S
C532   O1575   1.421   1_554 S
C532   H1577   1.110   1_554 S
H533   C1576   1.110   .     S
C535   H537    1.112   .     S
C535   H536    1.111   .     S
C538   H540    1.106   .     S
C538   H541    1.109   .     S
C538   H539    1.109   .     S
C538   C883    1.525   .     S
N542   O544    1.302   .     A
N542   O543    1.299   .     A
O545   C546    1.418   .     S
C546   H548    1.115   .     S
C546   H547    1.111   .     S
C549   H550    1.110   .     S
C549   H551    1.109   .     S
C549   C552    1.524   .     S
C549   C662    1.538   .     S
C552   H555    1.109   .     S
C552   H553    1.110   .     S
C552   H554    1.109   .     S
O556   C557    1.419   .     S
C557   H558    1.110   .     S
C557   H559    1.117   .     S
C560   C563    1.524   .     S
C560   H561    1.110   .     S
C560   C673    1.527   .     S
C560   H678    1.111   .     S
C563   H565    1.109   .     S
C563   H566    1.109   .     S
C563   H680    1.107   .     S
O567   C568    1.421   .     S
C568   H570    1.115   .     S
C568   H569    1.106   .     S
C568   C571    1.535   .     S
C571   H572    1.110   .     S
C571   H573    1.111   .     S
C574   H576    1.110   .     S
C574   H577    1.110   .     S
C574   C919    1.527   .     S
C574   H923    1.111   .     S
N578   O579    1.302   .     A
N578   O580    1.302   .     A
O581   Zn587   2.010   .     S
O581   C583    1.289   .     A
O582   Zn588   2.017   .     S
O582   C583    1.292   .     A
C583   C617    1.437   .     S
O584   Zn587   1.945   .     S
O584   C586    1.293   .     A
O585   Zn588   1.883   .     S
O585   C586    1.306   .     A
C586   C609    1.476   .     S
Zn587  O591    1.883   .     S
Zn587  O589    2.017   .     S
Zn587  N621    2.019   .     S
Zn588  O592    1.945   .     S
Zn588  O590    2.010   .     S
Zn588  N626    2.019   .     S
O589   C593    1.286   .     A
O590   C593    1.291   .     A
O591   C594    1.297   .     A
O592   C594    1.296   .     A
C593   C614    1.428   .     S
C594   C597    1.461   .     S
C595   C608    1.391   .     A
C595   C1648   1.414   1_554 S
C595   O1691   1.384   1_554 S
H596   C608    1.072   .     S
C597   C607    1.401   .     A
C597   C608    1.393   .     A
C598   O661    1.391   .     S
C598   C609    1.414   .     A
C598   C1643   1.414   .     S
C599   C600    1.405   .     A
C599   O672    1.387   .     S
C599   C1642   1.414   1_554 S
C600   H610    1.082   .     S
C600   C1645   1.409   1_554 S
C601   C602    1.397   .     A
C601   C1644   1.409   .     S
C601   C1647   1.413   .     S
C602   C609    1.407   .     A
C602   C606    1.413   .     A
C603   C607    1.412   .     A
C603   C1645   1.413   1_554 S
C603   C1648   1.424   1_554 S
C604   C605    1.413   .     A
C604   C1639   1.414   .     S
C604   C1647   1.424   .     S
C605   C606    1.400   .     A
C605   N644    1.441   .     S
C606   O683    1.387   .     S
C607   N658    1.447   .     S
C611   N694    1.437   .     S
C611   C617    1.416   .     A
C611   C960    1.381   .     S
C612   C614    1.394   .     A
C612   H613    1.083   .     S
C614   C615    1.400   .     A
C615   O627    1.387   .     S
C616   C617    1.413   .     A
C616   N638    1.431   .     S
C616   C963    1.371   .     S
C618   N641    1.425   .     S
C618   N626    1.383   .     A
C618   C387    1.415   1_655 S
C619   N621    1.355   .     A
C619   H620    1.082   .     S
N621   C622    1.366   .     A
C622   H623    1.079   .     S
C624   N626    1.365   .     A
C624   H625    1.077   .     S
C624   C390    1.418   1_655 S
O627   C628    1.425   .     S
C628   C631    1.545   .     S
C628   H630    1.110   .     S
C628   H629    1.107   .     S
C631   C634    1.524   .     S
H632   C979    1.110   .     S
H633   C979    1.108   .     S
C634   H635    1.111   .     S
H636   C982    1.105   .     S
H637   C402    1.104   1_655 S
N638   O640    1.298   .     A
N638   O639    1.301   .     A
N641   O643    1.295   .     A
N641   O642    1.301   .     A
N644   O645    1.302   .     A
N644   O646    1.301   .     A
O647   C1639   1.384   .     S
O647   C1692   1.421   .     S
C648   C651    1.528   .     S
C648   H650    1.120   .     S
C648   O1691   1.421   1_554 S
C648   H1693   1.110   1_554 S
H649   C1692   1.110   .     S
C651   H653    1.112   .     S
C651   H652    1.111   .     S
C654   H656    1.106   .     S
C654   H657    1.109   .     S
C654   H655    1.109   .     S
C654   C999    1.525   .     S
N658   O660    1.302   .     A
N658   O659    1.299   .     A
O661   C662    1.418   .     S
C662   H664    1.115   .     S
C662   H663    1.111   .     S
C665   H666    1.110   .     S
C665   H667    1.109   .     S
C665   C668    1.524   .     S
C665   C430    1.538   1_655 S
C668   H671    1.109   .     S
C668   H669    1.110   .     S
C668   H670    1.109   .     S
O672   C673    1.419   .     S
C673   H674    1.110   .     S
C673   H675    1.117   .     S
C676   C679    1.524   .     S
C676   H677    1.110   .     S
C676   C441    1.527   1_655 S
C676   H446    1.111   1_655 S
C679   H681    1.109   .     S
C679   H682    1.109   .     S
C679   H448    1.107   1_655 S
O683   C684    1.421   .     S
C684   H686    1.115   .     S
C684   H685    1.106   .     S
C684   C687    1.535   .     S
C687   H688    1.110   .     S
C687   H689    1.111   .     S
C690   H692    1.110   .     S
C690   H693    1.110   .     S
C690   C1035   1.527   .     S
C690   H1039   1.111   .     S
N694   O695    1.302   .     A
N694   O696    1.302   .     A
O697   Zn703   2.010   .     S
O697   C699    1.289   .     A
O698   Zn704   2.017   .     S
O698   C699    1.292   .     A
C699   C733    1.437   .     S
O700   Zn703   1.945   .     S
O700   C702    1.293   .     A
O701   Zn704   1.883   .     S
O701   C702    1.306   .     A
C702   C725    1.476   .     S
Zn703  O707    1.883   .     S
Zn703  O705    2.017   .     S
Zn703  N737    2.019   .     S
Zn704  O708    1.945   .     S
Zn704  O706    2.010   .     S
Zn704  N742    2.019   .     S
O705   C709    1.286   .     A
O706   C709    1.291   .     A
O707   C710    1.297   .     A
O708   C710    1.296   .     A
C709   C730    1.428   .     S
C710   C713    1.461   .     S
C711   C724    1.391   .     A
C711   C1764   1.414   1_554 S
C711   O1807   1.384   1_554 S
H712   C724    1.072   .     S
C713   C723    1.401   .     A
C713   C724    1.393   .     A
C714   O777    1.391   .     S
C714   C725    1.414   .     A
C714   C1759   1.414   .     S
C715   C716    1.405   .     A
C715   O788    1.387   .     S
C715   C1758   1.414   1_554 S
C716   H726    1.082   .     S
C716   C1761   1.409   1_554 S
C717   C718    1.397   .     A
C717   C1760   1.409   .     S
C717   C1763   1.413   .     S
C718   C725    1.407   .     A
C718   C722    1.413   .     A
C719   C723    1.412   .     A
C719   C1761   1.413   1_554 S
C719   C1764   1.424   1_554 S
C720   C721    1.413   .     A
C720   C1755   1.414   .     S
C720   C1763   1.424   .     S
C721   C722    1.400   .     A
C721   N760    1.441   .     S
C722   O799    1.387   .     S
C723   N774    1.447   .     S
C727   N810    1.437   .     S
C727   C733    1.416   .     A
C727   C32     1.381   1_565 S
C728   C730    1.394   .     A
C728   H729    1.083   .     S
C730   C731    1.400   .     A
C731   O743    1.387   .     S
C732   C733    1.413   .     A
C732   N754    1.431   .     S
C732   C35     1.371   1_565 S
C734   N757    1.425   .     S
C734   N742    1.383   .     A
C734   C851    1.415   .     S
C735   N737    1.355   .     A
C735   H736    1.082   .     S
C735   C966    1.415   1_455 S
N737   C738    1.366   .     A
C738   H739    1.079   .     S
C738   C972    1.418   1_455 S
C740   N742    1.365   .     A
C740   H741    1.077   .     S
C740   C854    1.418   .     S
O743   C744    1.425   .     S
C744   C747    1.545   .     S
C744   H746    1.110   .     S
C744   H745    1.107   .     S
C747   C750    1.524   .     S
H748   C51     1.110   1_565 S
H749   C51     1.108   1_565 S
C750   H751    1.111   .     S
C750   H985    1.104   1_455 S
H752   C54     1.105   1_565 S
H753   C866    1.104   .     S
N754   O756    1.298   .     A
N754   O755    1.301   .     A
N757   O759    1.295   .     A
N757   O758    1.301   .     A
N760   O761    1.302   .     A
N760   O762    1.301   .     A
O763   C1755   1.384   .     S
O763   C1808   1.421   .     S
C764   C767    1.528   .     S
C764   H766    1.120   .     S
C764   O1807   1.421   1_554 S
C764   H1809   1.110   1_554 S
H765   C1808   1.110   .     S
C767   H769    1.112   .     S
C767   H768    1.111   .     S
C770   H772    1.106   .     S
C770   H773    1.109   .     S
C770   H771    1.109   .     S
C770   C71     1.525   1_565 S
N774   O776    1.302   .     A
N774   O775    1.299   .     A
O777   C778    1.418   .     S
C778   H780    1.115   .     S
C778   H779    1.111   .     S
C778   C1013   1.538   1_455 S
C781   H782    1.110   .     S
C781   H783    1.109   .     S
C781   C784    1.524   .     S
C781   C894    1.538   .     S
C784   H787    1.109   .     S
C784   H785    1.110   .     S
C784   H786    1.109   .     S
O788   C789    1.419   .     S
C789   H790    1.110   .     S
C789   H791    1.117   .     S
C789   C1024   1.527   1_455 S
C792   C795    1.524   .     S
C792   H793    1.110   .     S
C792   C905    1.527   .     S
C792   H910    1.111   .     S
H794   C1024   1.111   1_455 S
C795   H797    1.109   .     S
C795   H798    1.109   .     S
C795   H912    1.107   .     S
H796   C1027   1.107   1_455 S
O799   C800    1.421   .     S
C800   H802    1.115   .     S
C800   H801    1.106   .     S
C800   C803    1.535   .     S
C803   H804    1.110   .     S
C803   H805    1.111   .     S
C806   H808    1.110   .     S
C806   H809    1.110   .     S
C806   C107    1.527   1_565 S
C806   H111    1.111   1_565 S
N810   O811    1.302   .     A
N810   O812    1.302   .     A
O813   Zn819   2.010   .     S
O813   C815    1.289   .     A
O814   Zn820   2.017   .     S
O814   C815    1.292   .     A
C815   C849    1.437   .     S
O816   Zn819   1.945   .     S
O816   C818    1.293   .     A
O817   Zn820   1.883   .     S
O817   C818    1.306   .     A
C818   C841    1.476   .     S
Zn819  O823    1.883   .     S
Zn819  O821    2.017   .     S
Zn819  N853    2.019   .     S
Zn820  O824    1.945   .     S
Zn820  O822    2.010   .     S
Zn820  N858    2.019   .     S
O821   C825    1.286   .     A
O822   C825    1.291   .     A
O823   C826    1.297   .     A
O824   C826    1.296   .     A
C825   C846    1.428   .     S
C826   C829    1.461   .     S
C827   C840    1.391   .     A
C827   C1880   1.414   1_554 S
C827   O1923   1.384   1_554 S
H828   C840    1.072   .     S
C829   C839    1.401   .     A
C829   C840    1.393   .     A
C830   O893    1.391   .     S
C830   C841    1.414   .     A
C830   C1875   1.414   .     S
C831   C832    1.405   .     A
C831   O904    1.387   .     S
C831   C1874   1.414   1_554 S
C832   H842    1.082   .     S
C832   C1877   1.409   1_554 S
C833   C834    1.397   .     A
C833   C1876   1.409   .     S
C833   C1879   1.413   .     S
C834   C841    1.407   .     A
C834   C838    1.413   .     A
C835   C839    1.412   .     A
C835   C1877   1.413   1_554 S
C835   C1880   1.424   1_554 S
C836   C837    1.413   .     A
C836   C1871   1.414   .     S
C836   C1879   1.424   .     S
C837   C838    1.400   .     A
C837   N876    1.441   .     S
C838   O915    1.387   .     S
C839   N890    1.447   .     S
C843   N926    1.437   .     S
C843   C849    1.416   .     A
C843   C148    1.381   1_565 S
C844   C846    1.394   .     A
C844   H845    1.083   .     S
C846   C847    1.400   .     A
C847   O859    1.387   .     S
C848   C849    1.413   .     A
C848   N870    1.431   .     S
C848   C151    1.371   1_565 S
C850   N873    1.425   .     S
C850   N858    1.383   .     A
C850   C967    1.415   .     S
C851   N853    1.355   .     A
C851   H852    1.082   .     S
N853   C854    1.366   .     A
C854   H855    1.079   .     S
C856   N858    1.365   .     A
C856   H857    1.077   .     S
C856   C970    1.418   .     S
O859   C860    1.425   .     S
C860   C863    1.545   .     S
C860   H862    1.110   .     S
C860   H861    1.107   .     S
C863   C866    1.524   .     S
H864   C167    1.110   1_565 S
H865   C167    1.108   1_565 S
C866   H867    1.111   .     S
H868   C170    1.105   1_565 S
H869   C982    1.104   .     S
N870   O872    1.298   .     A
N870   O871    1.301   .     A
N873   O875    1.295   .     A
N873   O874    1.301   .     A
N876   O877    1.302   .     A
N876   O878    1.301   .     A
O879   C1871   1.384   .     S
O879   C1924   1.421   .     S
C880   C883    1.528   .     S
C880   H882    1.120   .     S
C880   O1923   1.421   1_554 S
C880   H1925   1.110   1_554 S
H881   C1924   1.110   .     S
C883   H885    1.112   .     S
C883   H884    1.111   .     S
C886   H888    1.106   .     S
C886   H889    1.109   .     S
C886   H887    1.109   .     S
C886   C187    1.525   1_565 S
N890   O892    1.302   .     A
N890   O891    1.299   .     A
O893   C894    1.418   .     S
C894   H896    1.115   .     S
C894   H895    1.111   .     S
C897   H898    1.110   .     S
C897   H899    1.109   .     S
C897   C900    1.524   .     S
C897   C1010   1.538   .     S
C900   H903    1.109   .     S
C900   H901    1.110   .     S
C900   H902    1.109   .     S
O904   C905    1.419   .     S
C905   H906    1.110   .     S
C905   H907    1.117   .     S
C908   C911    1.524   .     S
C908   H909    1.110   .     S
C908   C1021   1.527   .     S
C908   H1026   1.111   .     S
C911   H913    1.109   .     S
C911   H914    1.109   .     S
C911   H1028   1.107   .     S
O915   C916    1.421   .     S
C916   H918    1.115   .     S
C916   H917    1.106   .     S
C916   C919    1.535   .     S
C919   H920    1.110   .     S
C919   H921    1.111   .     S
C922   H924    1.110   .     S
C922   H925    1.110   .     S
C922   C223    1.527   1_565 S
C922   H227    1.111   1_565 S
N926   O927    1.302   .     A
N926   O928    1.302   .     A
O929   Zn935   2.010   .     S
O929   C931    1.289   .     A
O930   Zn936   2.017   .     S
O930   C931    1.292   .     A
C931   C965    1.437   .     S
O932   Zn935   1.945   .     S
O932   C934    1.293   .     A
O933   Zn936   1.883   .     S
O933   C934    1.306   .     A
C934   C957    1.476   .     S
Zn935  O939    1.883   .     S
Zn935  O937    2.017   .     S
Zn935  N969    2.019   .     S
Zn936  O940    1.945   .     S
Zn936  O938    2.010   .     S
Zn936  N974    2.019   .     S
O937   C941    1.286   .     A
O938   C941    1.291   .     A
O939   C942    1.297   .     A
O940   C942    1.296   .     A
C941   C962    1.428   .     S
C942   C945    1.461   .     S
C943   C956    1.391   .     A
C943   C1996   1.414   1_554 S
C943   O2039   1.384   1_554 S
H944   C956    1.072   .     S
C945   C955    1.401   .     A
C945   C956    1.393   .     A
C946   O1009   1.391   .     S
C946   C957    1.414   .     A
C946   C1991   1.414   .     S
C947   C948    1.405   .     A
C947   O1020   1.387   .     S
C947   C1990   1.414   1_554 S
C948   H958    1.082   .     S
C948   C1993   1.409   1_554 S
C949   C950    1.397   .     A
C949   C1992   1.409   .     S
C949   C1995   1.413   .     S
C950   C957    1.407   .     A
C950   C954    1.413   .     A
C951   C955    1.412   .     A
C951   C1993   1.413   1_554 S
C951   C1996   1.424   1_554 S
C952   C953    1.413   .     A
C952   C1987   1.414   .     S
C952   C1995   1.424   .     S
C953   C954    1.400   .     A
C953   N992    1.441   .     S
C954   O1031   1.387   .     S
C955   N1006   1.447   .     S
C959   N1042   1.437   .     S
C959   C965    1.416   .     A
C959   C264    1.381   1_565 S
C960   C962    1.394   .     A
C960   H961    1.083   .     S
C962   C963    1.400   .     A
C963   O975    1.387   .     S
C964   C965    1.413   .     A
C964   N986    1.431   .     S
C964   C267    1.371   1_565 S
C966   N989    1.425   .     S
C966   N974    1.383   .     A
C966   C735    1.415   1_655 S
C967   N969    1.355   .     A
C967   H968    1.082   .     S
N969   C970    1.366   .     A
C970   H971    1.079   .     S
C972   N974    1.365   .     A
C972   H973    1.077   .     S
C972   C738    1.418   1_655 S
O975   C976    1.425   .     S
C976   C979    1.545   .     S
C976   H978    1.110   .     S
C976   H977    1.107   .     S
C979   C982    1.524   .     S
H980   C283    1.110   1_565 S
H981   C283    1.108   1_565 S
C982   H983    1.111   .     S
H984   C286    1.105   1_565 S
H985   C750    1.104   1_655 S
N986   O988    1.298   .     A
N986   O987    1.301   .     A
N989   O991    1.295   .     A
N989   O990    1.301   .     A
N992   O993    1.302   .     A
N992   O994    1.301   .     A
O995   C1987   1.384   .     S
O995   C2040   1.421   .     S
C996   C999    1.528   .     S
C996   H998    1.120   .     S
C996   O2039   1.421   1_554 S
C996   H2041   1.110   1_554 S
H997   C2040   1.110   .     S
C999   H1001   1.112   .     S
C999   H1000   1.111   .     S
C1002  H1004   1.106   .     S
C1002  H1005   1.109   .     S
C1002  H1003   1.109   .     S
C1002  C303    1.525   1_565 S
N1006  O1008   1.302   .     A
N1006  O1007   1.299   .     A
O1009  C1010   1.418   .     S
C1010  H1012   1.115   .     S
C1010  H1011   1.111   .     S
C1013  H1014   1.110   .     S
C1013  H1015   1.109   .     S
C1013  C1016   1.524   .     S
C1013  C778    1.538   1_655 S
C1016  H1019   1.109   .     S
C1016  H1017   1.110   .     S
C1016  H1018   1.109   .     S
O1020  C1021   1.419   .     S
C1021  H1022   1.110   .     S
C1021  H1023   1.117   .     S
C1024  C1027   1.524   .     S
C1024  H1025   1.110   .     S
C1024  C789    1.527   1_655 S
C1024  H794    1.111   1_655 S
C1027  H1029   1.109   .     S
C1027  H1030   1.109   .     S
C1027  H796    1.107   1_655 S
O1031  C1032   1.421   .     S
C1032  H1034   1.115   .     S
C1032  H1033   1.106   .     S
C1032  C1035   1.535   .     S
C1035  H1036   1.110   .     S
C1035  H1037   1.111   .     S
C1038  H1040   1.110   .     S
C1038  H1041   1.110   .     S
C1038  C339    1.527   1_565 S
C1038  H343    1.111   1_565 S
N1042  O1043   1.302   .     A
N1042  O1044   1.302   .     A
O1045  Zn1051  2.010   .     S
O1045  C1047   1.289   .     A
O1046  Zn1052  2.017   .     S
O1046  C1047   1.292   .     A
C1047  C1081   1.437   .     S
O1048  Zn1051  1.945   .     S
O1048  C1050   1.293   .     A
O1049  Zn1052  1.883   .     S
O1049  C1050   1.306   .     A
C1050  C1073   1.476   .     S
Zn1051 O1055   1.883   .     S
Zn1051 O1053   2.017   .     S
Zn1051 N1085   2.019   .     S
Zn1052 O1056   1.945   .     S
Zn1052 O1054   2.010   .     S
Zn1052 N1090   2.019   .     S
O1053  C1057   1.286   .     A
O1054  C1057   1.291   .     A
O1055  C1058   1.297   .     A
O1056  C1058   1.296   .     A
C1057  C1078   1.428   .     S
C1058  C1061   1.461   .     S
C1059  C1072   1.391   .     A
H1060  C1072   1.072   .     S
C1061  C1071   1.401   .     A
C1061  C1072   1.393   .     A
C1062  O1125   1.391   .     S
C1062  C1073   1.414   .     A
C1062  C19     1.414   1_556 S
C1063  C1064   1.405   .     A
C1063  O1136   1.387   .     S
C1064  H1074   1.082   .     S
C1065  C1066   1.397   .     A
C1065  C20     1.409   1_556 S
C1065  C23     1.413   1_556 S
C1066  C1073   1.407   .     A
C1066  C1070   1.413   .     A
C1067  C1071   1.412   .     A
C1068  C1069   1.413   .     A
C1068  C15     1.414   1_556 S
C1068  C23     1.424   1_556 S
C1069  C1070   1.400   .     A
C1069  N1108   1.441   .     S
C1070  O1147   1.387   .     S
C1071  N1122   1.447   .     S
C1075  N1158   1.437   .     S
C1075  C1081   1.416   .     A
C1075  C1424   1.381   .     S
C1076  C1078   1.394   .     A
C1076  H1077   1.083   .     S
C1076  C1771   1.381   1_545 S
C1078  C1079   1.400   .     A
C1079  O1091   1.387   .     S
C1079  C1776   1.371   1_545 S
C1080  C1081   1.413   .     A
C1080  N1102   1.431   .     S
C1080  C1427   1.371   .     S
C1082  N1105   1.425   .     S
C1082  N1090   1.383   .     A
C1082  C1199   1.415   .     S
C1083  N1085   1.355   .     A
C1083  H1084   1.082   .     S
C1083  C1314   1.415   1_455 S
N1085  C1086   1.366   .     A
C1086  H1087   1.079   .     S
C1086  C1320   1.418   1_455 S
C1088  N1090   1.365   .     A
C1088  H1089   1.077   .     S
C1088  C1202   1.418   .     S
O1091  C1092   1.425   .     S
C1092  C1095   1.545   .     S
C1092  H1094   1.110   .     S
C1092  H1093   1.107   .     S
C1095  C1098   1.524   .     S
C1095  H1792   1.110   1_545 S
C1095  H1793   1.108   1_545 S
H1096  C1443   1.110   .     S
H1097  C1443   1.108   .     S
C1098  H1099   1.111   .     S
C1098  H1796   1.105   1_545 S
C1098  H1333   1.104   1_455 S
H1100  C1446   1.105   .     S
H1101  C1214   1.104   .     S
N1102  O1104   1.298   .     A
N1102  O1103   1.301   .     A
N1105  O1107   1.295   .     A
N1105  O1106   1.301   .     A
N1108  O1109   1.302   .     A
N1108  O1110   1.301   .     A
O1111  C15     1.384   1_556 S
O1111  C68     1.421   1_556 S
C1112  C1115   1.528   .     S
C1112  H1114   1.120   .     S
H1113  C68     1.110   1_556 S
C1115  H1117   1.112   .     S
C1115  H1116   1.111   .     S
C1115  C1814   1.525   1_545 S
C1118  H1120   1.106   .     S
C1118  H1121   1.109   .     S
C1118  H1119   1.109   .     S
C1118  C1463   1.525   .     S
N1122  O1124   1.302   .     A
N1122  O1123   1.299   .     A
O1125  C1126   1.418   .     S
C1126  H1128   1.115   .     S
C1126  H1127   1.111   .     S
C1126  C1361   1.538   1_455 S
C1129  H1130   1.110   .     S
C1129  H1131   1.109   .     S
C1129  C1132   1.524   .     S
C1129  C1242   1.538   .     S
C1132  H1135   1.109   .     S
C1132  H1133   1.110   .     S
C1132  H1134   1.109   .     S
O1136  C1137   1.419   .     S
C1137  H1138   1.110   .     S
C1137  H1139   1.117   .     S
C1137  C1372   1.527   1_455 S
C1140  C1143   1.524   .     S
C1140  H1141   1.110   .     S
C1140  C1253   1.527   .     S
C1140  H1258   1.111   .     S
H1142  C1372   1.111   1_455 S
C1143  H1145   1.109   .     S
C1143  H1146   1.109   .     S
C1143  H1260   1.107   .     S
H1144  C1375   1.107   1_455 S
O1147  C1148   1.421   .     S
C1148  H1150   1.115   .     S
C1148  H1149   1.106   .     S
C1148  C1151   1.535   .     S
C1151  H1152   1.110   .     S
C1151  H1153   1.111   .     S
C1151  C1850   1.527   1_545 S
C1154  H1156   1.110   .     S
C1154  H1157   1.110   .     S
C1154  C1499   1.527   .     S
C1154  H1503   1.111   .     S
H1155  C1850   1.111   1_545 S
N1158  O1159   1.302   .     A
N1158  O1160   1.302   .     A
O1161  Zn1167  2.010   .     S
O1161  C1163   1.289   .     A
O1162  Zn1168  2.017   .     S
O1162  C1163   1.292   .     A
C1163  C1197   1.437   .     S
O1164  Zn1167  1.945   .     S
O1164  C1166   1.293   .     A
O1165  Zn1168  1.883   .     S
O1165  C1166   1.306   .     A
C1166  C1189   1.476   .     S
Zn1167 O1171   1.883   .     S
Zn1167 O1169   2.017   .     S
Zn1167 N1201   2.019   .     S
Zn1168 O1172   1.945   .     S
Zn1168 O1170   2.010   .     S
Zn1168 N1206   2.019   .     S
O1169  C1173   1.286   .     A
O1170  C1173   1.291   .     A
O1171  C1174   1.297   .     A
O1172  C1174   1.296   .     A
C1173  C1194   1.428   .     S
C1174  C1177   1.461   .     S
C1175  C1188   1.391   .     A
H1176  C1188   1.072   .     S
C1177  C1187   1.401   .     A
C1177  C1188   1.393   .     A
C1178  O1241   1.391   .     S
C1178  C1189   1.414   .     A
C1178  C135    1.414   1_556 S
C1179  C1180   1.405   .     A
C1179  O1252   1.387   .     S
C1180  H1190   1.082   .     S
C1181  C1182   1.397   .     A
C1181  C136    1.409   1_556 S
C1181  C139    1.413   1_556 S
C1182  C1189   1.407   .     A
C1182  C1186   1.413   .     A
C1183  C1187   1.412   .     A
C1184  C1185   1.413   .     A
C1184  C131    1.414   1_556 S
C1184  C139    1.424   1_556 S
C1185  C1186   1.400   .     A
C1185  N1224   1.441   .     S
C1186  O1263   1.387   .     S
C1187  N1238   1.447   .     S
C1191  N1274   1.437   .     S
C1191  C1197   1.416   .     A
C1191  C1540   1.381   .     S
C1192  C1194   1.394   .     A
C1192  H1193   1.083   .     S
C1192  C1887   1.381   1_545 S
C1194  C1195   1.400   .     A
C1195  O1207   1.387   .     S
C1195  C1892   1.371   1_545 S
C1196  C1197   1.413   .     A
C1196  N1218   1.431   .     S
C1196  C1543   1.371   .     S
C1198  N1221   1.425   .     S
C1198  N1206   1.383   .     A
C1198  C1315   1.415   .     S
C1199  N1201   1.355   .     A
C1199  H1200   1.082   .     S
N1201  C1202   1.366   .     A
C1202  H1203   1.079   .     S
C1204  N1206   1.365   .     A
C1204  H1205   1.077   .     S
C1204  C1318   1.418   .     S
O1207  C1208   1.425   .     S
C1208  C1211   1.545   .     S
C1208  H1210   1.110   .     S
C1208  H1209   1.107   .     S
C1211  C1214   1.524   .     S
C1211  H1908   1.110   1_545 S
C1211  H1909   1.108   1_545 S
H1212  C1559   1.110   .     S
H1213  C1559   1.108   .     S
C1214  H1215   1.111   .     S
C1214  H1912   1.105   1_545 S
H1216  C1562   1.105   .     S
H1217  C1330   1.104   .     S
N1218  O1220   1.298   .     A
N1218  O1219   1.301   .     A
N1221  O1223   1.295   .     A
N1221  O1222   1.301   .     A
N1224  O1225   1.302   .     A
N1224  O1226   1.301   .     A
O1227  C131    1.384   1_556 S
O1227  C184    1.421   1_556 S
C1228  C1231   1.528   .     S
C1228  H1230   1.120   .     S
H1229  C184    1.110   1_556 S
C1231  H1233   1.112   .     S
C1231  H1232   1.111   .     S
C1231  C1930   1.525   1_545 S
C1234  H1236   1.106   .     S
C1234  H1237   1.109   .     S
C1234  H1235   1.109   .     S
C1234  C1579   1.525   .     S
N1238  O1240   1.302   .     A
N1238  O1239   1.299   .     A
O1241  C1242   1.418   .     S
C1242  H1244   1.115   .     S
C1242  H1243   1.111   .     S
C1245  H1246   1.110   .     S
C1245  H1247   1.109   .     S
C1245  C1248   1.524   .     S
C1245  C1358   1.538   .     S
C1248  H1251   1.109   .     S
C1248  H1249   1.110   .     S
C1248  H1250   1.109   .     S
O1252  C1253   1.419   .     S
C1253  H1254   1.110   .     S
C1253  H1255   1.117   .     S
C1256  C1259   1.524   .     S
C1256  H1257   1.110   .     S
C1256  C1369   1.527   .     S
C1256  H1374   1.111   .     S
C1259  H1261   1.109   .     S
C1259  H1262   1.109   .     S
C1259  H1376   1.107   .     S
O1263  C1264   1.421   .     S
C1264  H1266   1.115   .     S
C1264  H1265   1.106   .     S
C1264  C1267   1.535   .     S
C1267  H1268   1.110   .     S
C1267  H1269   1.111   .     S
C1267  C1966   1.527   1_545 S
C1270  H1272   1.110   .     S
C1270  H1273   1.110   .     S
C1270  C1615   1.527   .     S
C1270  H1619   1.111   .     S
H1271  C1966   1.111   1_545 S
N1274  O1275   1.302   .     A
N1274  O1276   1.302   .     A
O1277  Zn1283  2.010   .     S
O1277  C1279   1.289   .     A
O1278  Zn1284  2.017   .     S
O1278  C1279   1.292   .     A
C1279  C1313   1.437   .     S
O1280  Zn1283  1.945   .     S
O1280  C1282   1.293   .     A
O1281  Zn1284  1.883   .     S
O1281  C1282   1.306   .     A
C1282  C1305   1.476   .     S
Zn1283 O1287   1.883   .     S
Zn1283 O1285   2.017   .     S
Zn1283 N1317   2.019   .     S
Zn1284 O1288   1.945   .     S
Zn1284 O1286   2.010   .     S
Zn1284 N1322   2.019   .     S
O1285  C1289   1.286   .     A
O1286  C1289   1.291   .     A
O1287  C1290   1.297   .     A
O1288  C1290   1.296   .     A
C1289  C1310   1.428   .     S
C1290  C1293   1.461   .     S
C1291  C1304   1.391   .     A
H1292  C1304   1.072   .     S
C1293  C1303   1.401   .     A
C1293  C1304   1.393   .     A
C1294  O1357   1.391   .     S
C1294  C1305   1.414   .     A
C1294  C251    1.414   1_556 S
C1295  C1296   1.405   .     A
C1295  O1368   1.387   .     S
C1296  H1306   1.082   .     S
C1297  C1298   1.397   .     A
C1297  C252    1.409   1_556 S
C1297  C255    1.413   1_556 S
C1298  C1305   1.407   .     A
C1298  C1302   1.413   .     A
C1299  C1303   1.412   .     A
C1300  C1301   1.413   .     A
C1300  C247    1.414   1_556 S
C1300  C255    1.424   1_556 S
C1301  C1302   1.400   .     A
C1301  N1340   1.441   .     S
C1302  O1379   1.387   .     S
C1303  N1354   1.447   .     S
C1307  N1390   1.437   .     S
C1307  C1313   1.416   .     A
C1307  C1656   1.381   .     S
C1308  C1310   1.394   .     A
C1308  H1309   1.083   .     S
C1308  C2003   1.381   1_545 S
C1310  C1311   1.400   .     A
C1311  O1323   1.387   .     S
C1311  C2008   1.371   1_545 S
C1312  C1313   1.413   .     A
C1312  N1334   1.431   .     S
C1312  C1659   1.371   .     S
C1314  N1337   1.425   .     S
C1314  N1322   1.383   .     A
C1314  C1083   1.415   1_655 S
C1315  N1317   1.355   .     A
C1315  H1316   1.082   .     S
N1317  C1318   1.366   .     A
C1318  H1319   1.079   .     S
C1320  N1322   1.365   .     A
C1320  H1321   1.077   .     S
C1320  C1086   1.418   1_655 S
O1323  C1324   1.425   .     S
C1324  C1327   1.545   .     S
C1324  H1326   1.110   .     S
C1324  H1325   1.107   .     S
C1327  C1330   1.524   .     S
C1327  H2024   1.110   1_545 S
C1327  H2025   1.108   1_545 S
H1328  C1675   1.110   .     S
H1329  C1675   1.108   .     S
C1330  H1331   1.111   .     S
C1330  H2028   1.105   1_545 S
H1332  C1678   1.105   .     S
H1333  C1098   1.104   1_655 S
N1334  O1336   1.298   .     A
N1334  O1335   1.301   .     A
N1337  O1339   1.295   .     A
N1337  O1338   1.301   .     A
N1340  O1341   1.302   .     A
N1340  O1342   1.301   .     A
O1343  C247    1.384   1_556 S
O1343  C300    1.421   1_556 S
C1344  C1347   1.528   .     S
C1344  H1346   1.120   .     S
H1345  C300    1.110   1_556 S
C1347  H1349   1.112   .     S
C1347  H1348   1.111   .     S
C1347  C2046   1.525   1_545 S
C1350  H1352   1.106   .     S
C1350  H1353   1.109   .     S
C1350  H1351   1.109   .     S
C1350  C1695   1.525   .     S
N1354  O1356   1.302   .     A
N1354  O1355   1.299   .     A
O1357  C1358   1.418   .     S
C1358  H1360   1.115   .     S
C1358  H1359   1.111   .     S
C1361  H1362   1.110   .     S
C1361  H1363   1.109   .     S
C1361  C1364   1.524   .     S
C1361  C1126   1.538   1_655 S
C1364  H1367   1.109   .     S
C1364  H1365   1.110   .     S
C1364  H1366   1.109   .     S
O1368  C1369   1.419   .     S
C1369  H1370   1.110   .     S
C1369  H1371   1.117   .     S
C1372  C1375   1.524   .     S
C1372  H1373   1.110   .     S
C1372  C1137   1.527   1_655 S
C1372  H1142   1.111   1_655 S
C1375  H1377   1.109   .     S
C1375  H1378   1.109   .     S
C1375  H1144   1.107   1_655 S
O1379  C1380   1.421   .     S
C1380  H1382   1.115   .     S
C1380  H1381   1.106   .     S
C1380  C1383   1.535   .     S
C1383  H1384   1.110   .     S
C1383  H1385   1.111   .     S
C1383  C2082   1.527   1_545 S
C1386  H1388   1.110   .     S
C1386  H1389   1.110   .     S
C1386  C1731   1.527   .     S
C1386  H1735   1.111   .     S
H1387  C2082   1.111   1_545 S
N1390  O1391   1.302   .     A
N1390  O1392   1.302   .     A
O1393  Zn1399  2.010   .     S
O1393  C1395   1.289   .     A
O1394  Zn1400  2.017   .     S
O1394  C1395   1.292   .     A
C1395  C1429   1.437   .     S
O1396  Zn1399  1.945   .     S
O1396  C1398   1.293   .     A
O1397  Zn1400  1.883   .     S
O1397  C1398   1.306   .     A
C1398  C1421   1.476   .     S
Zn1399 O1403   1.883   .     S
Zn1399 O1401   2.017   .     S
Zn1399 N1433   2.019   .     S
Zn1400 O1404   1.945   .     S
Zn1400 O1402   2.010   .     S
Zn1400 N1438   2.019   .     S
O1401  C1405   1.286   .     A
O1402  C1405   1.291   .     A
O1403  C1406   1.297   .     A
O1404  C1406   1.296   .     A
C1405  C1426   1.428   .     S
C1406  C1409   1.461   .     S
C1407  C1420   1.391   .     A
H1408  C1420   1.072   .     S
C1409  C1419   1.401   .     A
C1409  C1420   1.393   .     A
C1410  O1473   1.391   .     S
C1410  C1421   1.414   .     A
C1410  C367    1.414   1_556 S
C1411  C1412   1.405   .     A
C1411  O1484   1.387   .     S
C1412  H1422   1.082   .     S
C1413  C1414   1.397   .     A
C1413  C368    1.409   1_556 S
C1413  C371    1.413   1_556 S
C1414  C1421   1.407   .     A
C1414  C1418   1.413   .     A
C1415  C1419   1.412   .     A
C1416  C1417   1.413   .     A
C1416  C363    1.414   1_556 S
C1416  C371    1.424   1_556 S
C1417  C1418   1.400   .     A
C1417  N1456   1.441   .     S
C1418  O1495   1.387   .     S
C1419  N1470   1.447   .     S
C1423  N1506   1.437   .     S
C1423  C1429   1.416   .     A
C1423  C1772   1.381   .     S
C1424  C1426   1.394   .     A
C1424  H1425   1.083   .     S
C1426  C1427   1.400   .     A
C1427  O1439   1.387   .     S
C1428  C1429   1.413   .     A
C1428  N1450   1.431   .     S
C1428  C1775   1.371   .     S
C1430  N1453   1.425   .     S
C1430  N1438   1.383   .     A
C1430  C1547   1.415   .     S
C1431  N1433   1.355   .     A
C1431  H1432   1.082   .     S
C1431  C1662   1.415   1_455 S
N1433  C1434   1.366   .     A
C1434  H1435   1.079   .     S
C1434  C1668   1.418   1_455 S
C1436  N1438   1.365   .     A
C1436  H1437   1.077   .     S
C1436  C1550   1.418   .     S
O1439  C1440   1.425   .     S
C1440  C1443   1.545   .     S
C1440  H1442   1.110   .     S
C1440  H1441   1.107   .     S
C1443  C1446   1.524   .     S
H1444  C1791   1.110   .     S
H1445  C1791   1.108   .     S
C1446  H1447   1.111   .     S
C1446  H1681   1.104   1_455 S
H1448  C1794   1.105   .     S
H1449  C1562   1.104   .     S
N1450  O1452   1.298   .     A
N1450  O1451   1.301   .     A
N1453  O1455   1.295   .     A
N1453  O1454   1.301   .     A
N1456  O1457   1.302   .     A
N1456  O1458   1.301   .     A
O1459  C363    1.384   1_556 S
O1459  C416    1.421   1_556 S
C1460  C1463   1.528   .     S
C1460  H1462   1.120   .     S
H1461  C416    1.110   1_556 S
C1463  H1465   1.112   .     S
C1463  H1464   1.111   .     S
C1466  H1468   1.106   .     S
C1466  H1469   1.109   .     S
C1466  H1467   1.109   .     S
C1466  C1811   1.525   .     S
N1470  O1472   1.302   .     A
N1470  O1471   1.299   .     A
O1473  C1474   1.418   .     S
C1474  H1476   1.115   .     S
C1474  H1475   1.111   .     S
C1474  C1709   1.538   1_455 S
C1477  H1478   1.110   .     S
C1477  H1479   1.109   .     S
C1477  C1480   1.524   .     S
C1477  C1590   1.538   .     S
C1480  H1483   1.109   .     S
C1480  H1481   1.110   .     S
C1480  H1482   1.109   .     S
O1484  C1485   1.419   .     S
C1485  H1486   1.110   .     S
C1485  H1487   1.117   .     S
C1485  C1720   1.527   1_455 S
C1488  C1491   1.524   .     S
C1488  H1489   1.110   .     S
C1488  C1601   1.527   .     S
C1488  H1606   1.111   .     S
H1490  C1720   1.111   1_455 S
C1491  H1493   1.109   .     S
C1491  H1494   1.109   .     S
C1491  H1608   1.107   .     S
H1492  C1723   1.107   1_455 S
O1495  C1496   1.421   .     S
C1496  H1498   1.115   .     S
C1496  H1497   1.106   .     S
C1496  C1499   1.535   .     S
C1499  H1500   1.110   .     S
C1499  H1501   1.111   .     S
C1502  H1504   1.110   .     S
C1502  H1505   1.110   .     S
C1502  C1847   1.527   .     S
C1502  H1851   1.111   .     S
N1506  O1507   1.302   .     A
N1506  O1508   1.302   .     A
O1509  Zn1515  2.010   .     S
O1509  C1511   1.289   .     A
O1510  Zn1516  2.017   .     S
O1510  C1511   1.292   .     A
C1511  C1545   1.437   .     S
O1512  Zn1515  1.945   .     S
O1512  C1514   1.293   .     A
O1513  Zn1516  1.883   .     S
O1513  C1514   1.306   .     A
C1514  C1537   1.476   .     S
Zn1515 O1519   1.883   .     S
Zn1515 O1517   2.017   .     S
Zn1515 N1549   2.019   .     S
Zn1516 O1520   1.945   .     S
Zn1516 O1518   2.010   .     S
Zn1516 N1554   2.019   .     S
O1517  C1521   1.286   .     A
O1518  C1521   1.291   .     A
O1519  C1522   1.297   .     A
O1520  C1522   1.296   .     A
C1521  C1542   1.428   .     S
C1522  C1525   1.461   .     S
C1523  C1536   1.391   .     A
H1524  C1536   1.072   .     S
C1525  C1535   1.401   .     A
C1525  C1536   1.393   .     A
C1526  O1589   1.391   .     S
C1526  C1537   1.414   .     A
C1526  C483    1.414   1_556 S
C1527  C1528   1.405   .     A
C1527  O1600   1.387   .     S
C1528  H1538   1.082   .     S
C1529  C1530   1.397   .     A
C1529  C484    1.409   1_556 S
C1529  C487    1.413   1_556 S
C1530  C1537   1.407   .     A
C1530  C1534   1.413   .     A
C1531  C1535   1.412   .     A
C1532  C1533   1.413   .     A
C1532  C479    1.414   1_556 S
C1532  C487    1.424   1_556 S
C1533  C1534   1.400   .     A
C1533  N1572   1.441   .     S
C1534  O1611   1.387   .     S
C1535  N1586   1.447   .     S
C1539  N1622   1.437   .     S
C1539  C1545   1.416   .     A
C1539  C1888   1.381   .     S
C1540  C1542   1.394   .     A
C1540  H1541   1.083   .     S
C1542  C1543   1.400   .     A
C1543  O1555   1.387   .     S
C1544  C1545   1.413   .     A
C1544  N1566   1.431   .     S
C1544  C1891   1.371   .     S
C1546  N1569   1.425   .     S
C1546  N1554   1.383   .     A
C1546  C1663   1.415   .     S
C1547  N1549   1.355   .     A
C1547  H1548   1.082   .     S
N1549  C1550   1.366   .     A
C1550  H1551   1.079   .     S
C1552  N1554   1.365   .     A
C1552  H1553   1.077   .     S
C1552  C1666   1.418   .     S
O1555  C1556   1.425   .     S
C1556  C1559   1.545   .     S
C1556  H1558   1.110   .     S
C1556  H1557   1.107   .     S
C1559  C1562   1.524   .     S
H1560  C1907   1.110   .     S
H1561  C1907   1.108   .     S
C1562  H1563   1.111   .     S
H1564  C1910   1.105   .     S
H1565  C1678   1.104   .     S
N1566  O1568   1.298   .     A
N1566  O1567   1.301   .     A
N1569  O1571   1.295   .     A
N1569  O1570   1.301   .     A
N1572  O1573   1.302   .     A
N1572  O1574   1.301   .     A
O1575  C479    1.384   1_556 S
O1575  C532    1.421   1_556 S
C1576  C1579   1.528   .     S
C1576  H1578   1.120   .     S
H1577  C532    1.110   1_556 S
C1579  H1581   1.112   .     S
C1579  H1580   1.111   .     S
C1582  H1584   1.106   .     S
C1582  H1585   1.109   .     S
C1582  H1583   1.109   .     S
C1582  C1927   1.525   .     S
N1586  O1588   1.302   .     A
N1586  O1587   1.299   .     A
O1589  C1590   1.418   .     S
C1590  H1592   1.115   .     S
C1590  H1591   1.111   .     S
C1593  H1594   1.110   .     S
C1593  H1595   1.109   .     S
C1593  C1596   1.524   .     S
C1593  C1706   1.538   .     S
C1596  H1599   1.109   .     S
C1596  H1597   1.110   .     S
C1596  H1598   1.109   .     S
O1600  C1601   1.419   .     S
C1601  H1602   1.110   .     S
C1601  H1603   1.117   .     S
C1604  C1607   1.524   .     S
C1604  H1605   1.110   .     S
C1604  C1717   1.527   .     S
C1604  H1722   1.111   .     S
C1607  H1609   1.109   .     S
C1607  H1610   1.109   .     S
C1607  H1724   1.107   .     S
O1611  C1612   1.421   .     S
C1612  H1614   1.115   .     S
C1612  H1613   1.106   .     S
C1612  C1615   1.535   .     S
C1615  H1616   1.110   .     S
C1615  H1617   1.111   .     S
C1618  H1620   1.110   .     S
C1618  H1621   1.110   .     S
C1618  C1963   1.527   .     S
C1618  H1967   1.111   .     S
N1622  O1623   1.302   .     A
N1622  O1624   1.302   .     A
O1625  Zn1631  2.010   .     S
O1625  C1627   1.289   .     A
O1626  Zn1632  2.017   .     S
O1626  C1627   1.292   .     A
C1627  C1661   1.437   .     S
O1628  Zn1631  1.945   .     S
O1628  C1630   1.293   .     A
O1629  Zn1632  1.883   .     S
O1629  C1630   1.306   .     A
C1630  C1653   1.476   .     S
Zn1631 O1635   1.883   .     S
Zn1631 O1633   2.017   .     S
Zn1631 N1665   2.019   .     S
Zn1632 O1636   1.945   .     S
Zn1632 O1634   2.010   .     S
Zn1632 N1670   2.019   .     S
O1633  C1637   1.286   .     A
O1634  C1637   1.291   .     A
O1635  C1638   1.297   .     A
O1636  C1638   1.296   .     A
C1637  C1658   1.428   .     S
C1638  C1641   1.461   .     S
C1639  C1652   1.391   .     A
H1640  C1652   1.072   .     S
C1641  C1651   1.401   .     A
C1641  C1652   1.393   .     A
C1642  O1705   1.391   .     S
C1642  C1653   1.414   .     A
C1642  C599    1.414   1_556 S
C1643  C1644   1.405   .     A
C1643  O1716   1.387   .     S
C1644  H1654   1.082   .     S
C1645  C1646   1.397   .     A
C1645  C600    1.409   1_556 S
C1645  C603    1.413   1_556 S
C1646  C1653   1.407   .     A
C1646  C1650   1.413   .     A
C1647  C1651   1.412   .     A
C1648  C1649   1.413   .     A
C1648  C595    1.414   1_556 S
C1648  C603    1.424   1_556 S
C1649  C1650   1.400   .     A
C1649  N1688   1.441   .     S
C1650  O1727   1.387   .     S
C1651  N1702   1.447   .     S
C1655  N1738   1.437   .     S
C1655  C1661   1.416   .     A
C1655  C2004   1.381   .     S
C1656  C1658   1.394   .     A
C1656  H1657   1.083   .     S
C1658  C1659   1.400   .     A
C1659  O1671   1.387   .     S
C1660  C1661   1.413   .     A
C1660  N1682   1.431   .     S
C1660  C2007   1.371   .     S
C1662  N1685   1.425   .     S
C1662  N1670   1.383   .     A
C1662  C1431   1.415   1_655 S
C1663  N1665   1.355   .     A
C1663  H1664   1.082   .     S
N1665  C1666   1.366   .     A
C1666  H1667   1.079   .     S
C1668  N1670   1.365   .     A
C1668  H1669   1.077   .     S
C1668  C1434   1.418   1_655 S
O1671  C1672   1.425   .     S
C1672  C1675   1.545   .     S
C1672  H1674   1.110   .     S
C1672  H1673   1.107   .     S
C1675  C1678   1.524   .     S
H1676  C2023   1.110   .     S
H1677  C2023   1.108   .     S
C1678  H1679   1.111   .     S
H1680  C2026   1.105   .     S
H1681  C1446   1.104   1_655 S
N1682  O1684   1.298   .     A
N1682  O1683   1.301   .     A
N1685  O1687   1.295   .     A
N1685  O1686   1.301   .     A
N1688  O1689   1.302   .     A
N1688  O1690   1.301   .     A
O1691  C595    1.384   1_556 S
O1691  C648    1.421   1_556 S
C1692  C1695   1.528   .     S
C1692  H1694   1.120   .     S
H1693  C648    1.110   1_556 S
C1695  H1697   1.112   .     S
C1695  H1696   1.111   .     S
C1698  H1700   1.106   .     S
C1698  H1701   1.109   .     S
C1698  H1699   1.109   .     S
C1698  C2043   1.525   .     S
N1702  O1704   1.302   .     A
N1702  O1703   1.299   .     A
O1705  C1706   1.418   .     S
C1706  H1708   1.115   .     S
C1706  H1707   1.111   .     S
C1709  H1710   1.110   .     S
C1709  H1711   1.109   .     S
C1709  C1712   1.524   .     S
C1709  C1474   1.538   1_655 S
C1712  H1715   1.109   .     S
C1712  H1713   1.110   .     S
C1712  H1714   1.109   .     S
O1716  C1717   1.419   .     S
C1717  H1718   1.110   .     S
C1717  H1719   1.117   .     S
C1720  C1723   1.524   .     S
C1720  H1721   1.110   .     S
C1720  C1485   1.527   1_655 S
C1720  H1490   1.111   1_655 S
C1723  H1725   1.109   .     S
C1723  H1726   1.109   .     S
C1723  H1492   1.107   1_655 S
O1727  C1728   1.421   .     S
C1728  H1730   1.115   .     S
C1728  H1729   1.106   .     S
C1728  C1731   1.535   .     S
C1731  H1732   1.110   .     S
C1731  H1733   1.111   .     S
C1734  H1736   1.110   .     S
C1734  H1737   1.110   .     S
C1734  C2079   1.527   .     S
C1734  H2083   1.111   .     S
N1738  O1739   1.302   .     A
N1738  O1740   1.302   .     A
O1741  Zn1747  2.010   .     S
O1741  C1743   1.289   .     A
O1742  Zn1748  2.017   .     S
O1742  C1743   1.292   .     A
C1743  C1777   1.437   .     S
O1744  Zn1747  1.945   .     S
O1744  C1746   1.293   .     A
O1745  Zn1748  1.883   .     S
O1745  C1746   1.306   .     A
C1746  C1769   1.476   .     S
Zn1747 O1751   1.883   .     S
Zn1747 O1749   2.017   .     S
Zn1747 N1781   2.019   .     S
Zn1748 O1752   1.945   .     S
Zn1748 O1750   2.010   .     S
Zn1748 N1786   2.019   .     S
O1749  C1753   1.286   .     A
O1750  C1753   1.291   .     A
O1751  C1754   1.297   .     A
O1752  C1754   1.296   .     A
C1753  C1774   1.428   .     S
C1754  C1757   1.461   .     S
C1755  C1768   1.391   .     A
H1756  C1768   1.072   .     S
C1757  C1767   1.401   .     A
C1757  C1768   1.393   .     A
C1758  O1821   1.391   .     S
C1758  C1769   1.414   .     A
C1758  C715    1.414   1_556 S
C1759  C1760   1.405   .     A
C1759  O1832   1.387   .     S
C1760  H1770   1.082   .     S
C1761  C1762   1.397   .     A
C1761  C716    1.409   1_556 S
C1761  C719    1.413   1_556 S
C1762  C1769   1.407   .     A
C1762  C1766   1.413   .     A
C1763  C1767   1.412   .     A
C1764  C1765   1.413   .     A
C1764  C711    1.414   1_556 S
C1764  C719    1.424   1_556 S
C1765  C1766   1.400   .     A
C1765  N1804   1.441   .     S
C1766  O1843   1.387   .     S
C1767  N1818   1.447   .     S
C1771  N1854   1.437   .     S
C1771  C1777   1.416   .     A
C1771  C1076   1.381   1_565 S
C1772  C1774   1.394   .     A
C1772  H1773   1.083   .     S
C1774  C1775   1.400   .     A
C1775  O1787   1.387   .     S
C1776  C1777   1.413   .     A
C1776  N1798   1.431   .     S
C1776  C1079   1.371   1_565 S
C1778  N1801   1.425   .     S
C1778  N1786   1.383   .     A
C1778  C1895   1.415   .     S
C1779  N1781   1.355   .     A
C1779  H1780   1.082   .     S
C1779  C2010   1.415   1_455 S
N1781  C1782   1.366   .     A
C1782  H1783   1.079   .     S
C1782  C2016   1.418   1_455 S
C1784  N1786   1.365   .     A
C1784  H1785   1.077   .     S
C1784  C1898   1.418   .     S
O1787  C1788   1.425   .     S
C1788  C1791   1.545   .     S
C1788  H1790   1.110   .     S
C1788  H1789   1.107   .     S
C1791  C1794   1.524   .     S
H1792  C1095   1.110   1_565 S
H1793  C1095   1.108   1_565 S
C1794  H1795   1.111   .     S
C1794  H2029   1.104   1_455 S
H1796  C1098   1.105   1_565 S
H1797  C1910   1.104   .     S
N1798  O1800   1.298   .     A
N1798  O1799   1.301   .     A
N1801  O1803   1.295   .     A
N1801  O1802   1.301   .     A
N1804  O1805   1.302   .     A
N1804  O1806   1.301   .     A
O1807  C711    1.384   1_556 S
O1807  C764    1.421   1_556 S
C1808  C1811   1.528   .     S
C1808  H1810   1.120   .     S
H1809  C764    1.110   1_556 S
C1811  H1813   1.112   .     S
C1811  H1812   1.111   .     S
C1814  H1816   1.106   .     S
C1814  H1817   1.109   .     S
C1814  H1815   1.109   .     S
C1814  C1115   1.525   1_565 S
N1818  O1820   1.302   .     A
N1818  O1819   1.299   .     A
O1821  C1822   1.418   .     S
C1822  H1824   1.115   .     S
C1822  H1823   1.111   .     S
C1822  C2057   1.538   1_455 S
C1825  H1826   1.110   .     S
C1825  H1827   1.109   .     S
C1825  C1828   1.524   .     S
C1825  C1938   1.538   .     S
C1828  H1831   1.109   .     S
C1828  H1829   1.110   .     S
C1828  H1830   1.109   .     S
O1832  C1833   1.419   .     S
C1833  H1834   1.110   .     S
C1833  H1835   1.117   .     S
C1833  C2068   1.527   1_455 S
C1836  C1839   1.524   .     S
C1836  H1837   1.110   .     S
C1836  C1949   1.527   .     S
C1836  H1954   1.111   .     S
H1838  C2068   1.111   1_455 S
C1839  H1841   1.109   .     S
C1839  H1842   1.109   .     S
C1839  H1956   1.107   .     S
H1840  C2071   1.107   1_455 S
O1843  C1844   1.421   .     S
C1844  H1846   1.115   .     S
C1844  H1845   1.106   .     S
C1844  C1847   1.535   .     S
C1847  H1848   1.110   .     S
C1847  H1849   1.111   .     S
C1850  H1852   1.110   .     S
C1850  H1853   1.110   .     S
C1850  C1151   1.527   1_565 S
C1850  H1155   1.111   1_565 S
N1854  O1855   1.302   .     A
N1854  O1856   1.302   .     A
O1857  Zn1863  2.010   .     S
O1857  C1859   1.289   .     A
O1858  Zn1864  2.017   .     S
O1858  C1859   1.292   .     A
C1859  C1893   1.437   .     S
O1860  Zn1863  1.945   .     S
O1860  C1862   1.293   .     A
O1861  Zn1864  1.883   .     S
O1861  C1862   1.306   .     A
C1862  C1885   1.476   .     S
Zn1863 O1867   1.883   .     S
Zn1863 O1865   2.017   .     S
Zn1863 N1897   2.019   .     S
Zn1864 O1868   1.945   .     S
Zn1864 O1866   2.010   .     S
Zn1864 N1902   2.019   .     S
O1865  C1869   1.286   .     A
O1866  C1869   1.291   .     A
O1867  C1870   1.297   .     A
O1868  C1870   1.296   .     A
C1869  C1890   1.428   .     S
C1870  C1873   1.461   .     S
C1871  C1884   1.391   .     A
H1872  C1884   1.072   .     S
C1873  C1883   1.401   .     A
C1873  C1884   1.393   .     A
C1874  O1937   1.391   .     S
C1874  C1885   1.414   .     A
C1874  C831    1.414   1_556 S
C1875  C1876   1.405   .     A
C1875  O1948   1.387   .     S
C1876  H1886   1.082   .     S
C1877  C1878   1.397   .     A
C1877  C832    1.409   1_556 S
C1877  C835    1.413   1_556 S
C1878  C1885   1.407   .     A
C1878  C1882   1.413   .     A
C1879  C1883   1.412   .     A
C1880  C1881   1.413   .     A
C1880  C827    1.414   1_556 S
C1880  C835    1.424   1_556 S
C1881  C1882   1.400   .     A
C1881  N1920   1.441   .     S
C1882  O1959   1.387   .     S
C1883  N1934   1.447   .     S
C1887  N1970   1.437   .     S
C1887  C1893   1.416   .     A
C1887  C1192   1.381   1_565 S
C1888  C1890   1.394   .     A
C1888  H1889   1.083   .     S
C1890  C1891   1.400   .     A
C1891  O1903   1.387   .     S
C1892  C1893   1.413   .     A
C1892  N1914   1.431   .     S
C1892  C1195   1.371   1_565 S
C1894  N1917   1.425   .     S
C1894  N1902   1.383   .     A
C1894  C2011   1.415   .     S
C1895  N1897   1.355   .     A
C1895  H1896   1.082   .     S
N1897  C1898   1.366   .     A
C1898  H1899   1.079   .     S
C1900  N1902   1.365   .     A
C1900  H1901   1.077   .     S
C1900  C2014   1.418   .     S
O1903  C1904   1.425   .     S
C1904  C1907   1.545   .     S
C1904  H1906   1.110   .     S
C1904  H1905   1.107   .     S
C1907  C1910   1.524   .     S
H1908  C1211   1.110   1_565 S
H1909  C1211   1.108   1_565 S
C1910  H1911   1.111   .     S
H1912  C1214   1.105   1_565 S
H1913  C2026   1.104   .     S
N1914  O1916   1.298   .     A
N1914  O1915   1.301   .     A
N1917  O1919   1.295   .     A
N1917  O1918   1.301   .     A
N1920  O1921   1.302   .     A
N1920  O1922   1.301   .     A
O1923  C827    1.384   1_556 S
O1923  C880    1.421   1_556 S
C1924  C1927   1.528   .     S
C1924  H1926   1.120   .     S
H1925  C880    1.110   1_556 S
C1927  H1929   1.112   .     S
C1927  H1928   1.111   .     S
C1930  H1932   1.106   .     S
C1930  H1933   1.109   .     S
C1930  H1931   1.109   .     S
C1930  C1231   1.525   1_565 S
N1934  O1936   1.302   .     A
N1934  O1935   1.299   .     A
O1937  C1938   1.418   .     S
C1938  H1940   1.115   .     S
C1938  H1939   1.111   .     S
C1941  H1942   1.110   .     S
C1941  H1943   1.109   .     S
C1941  C1944   1.524   .     S
C1941  C2054   1.538   .     S
C1944  H1947   1.109   .     S
C1944  H1945   1.110   .     S
C1944  H1946   1.109   .     S
O1948  C1949   1.419   .     S
C1949  H1950   1.110   .     S
C1949  H1951   1.117   .     S
C1952  C1955   1.524   .     S
C1952  H1953   1.110   .     S
C1952  C2065   1.527   .     S
C1952  H2070   1.111   .     S
C1955  H1957   1.109   .     S
C1955  H1958   1.109   .     S
C1955  H2072   1.107   .     S
O1959  C1960   1.421   .     S
C1960  H1962   1.115   .     S
C1960  H1961   1.106   .     S
C1960  C1963   1.535   .     S
C1963  H1964   1.110   .     S
C1963  H1965   1.111   .     S
C1966  H1968   1.110   .     S
C1966  H1969   1.110   .     S
C1966  C1267   1.527   1_565 S
C1966  H1271   1.111   1_565 S
N1970  O1971   1.302   .     A
N1970  O1972   1.302   .     A
O1973  Zn1979  2.010   .     S
O1973  C1975   1.289   .     A
O1974  Zn1980  2.017   .     S
O1974  C1975   1.292   .     A
C1975  C2009   1.437   .     S
O1976  Zn1979  1.945   .     S
O1976  C1978   1.293   .     A
O1977  Zn1980  1.883   .     S
O1977  C1978   1.306   .     A
C1978  C2001   1.476   .     S
Zn1979 O1983   1.883   .     S
Zn1979 O1981   2.017   .     S
Zn1979 N2013   2.019   .     S
Zn1980 O1984   1.945   .     S
Zn1980 O1982   2.010   .     S
Zn1980 N2018   2.019   .     S
O1981  C1985   1.286   .     A
O1982  C1985   1.291   .     A
O1983  C1986   1.297   .     A
O1984  C1986   1.296   .     A
C1985  C2006   1.428   .     S
C1986  C1989   1.461   .     S
C1987  C2000   1.391   .     A
H1988  C2000   1.072   .     S
C1989  C1999   1.401   .     A
C1989  C2000   1.393   .     A
C1990  O2053   1.391   .     S
C1990  C2001   1.414   .     A
C1990  C947    1.414   1_556 S
C1991  C1992   1.405   .     A
C1991  O2064   1.387   .     S
C1992  H2002   1.082   .     S
C1993  C1994   1.397   .     A
C1993  C948    1.409   1_556 S
C1993  C951    1.413   1_556 S
C1994  C2001   1.407   .     A
C1994  C1998   1.413   .     A
C1995  C1999   1.412   .     A
C1996  C1997   1.413   .     A
C1996  C943    1.414   1_556 S
C1996  C951    1.424   1_556 S
C1997  C1998   1.400   .     A
C1997  N2036   1.441   .     S
C1998  O2075   1.387   .     S
C1999  N2050   1.447   .     S
C2003  N2086   1.437   .     S
C2003  C2009   1.416   .     A
C2003  C1308   1.381   1_565 S
C2004  C2006   1.394   .     A
C2004  H2005   1.083   .     S
C2006  C2007   1.400   .     A
C2007  O2019   1.387   .     S
C2008  C2009   1.413   .     A
C2008  N2030   1.431   .     S
C2008  C1311   1.371   1_565 S
C2010  N2033   1.425   .     S
C2010  N2018   1.383   .     A
C2010  C1779   1.415   1_655 S
C2011  N2013   1.355   .     A
C2011  H2012   1.082   .     S
N2013  C2014   1.366   .     A
C2014  H2015   1.079   .     S
C2016  N2018   1.365   .     A
C2016  H2017   1.077   .     S
C2016  C1782   1.418   1_655 S
O2019  C2020   1.425   .     S
C2020  C2023   1.545   .     S
C2020  H2022   1.110   .     S
C2020  H2021   1.107   .     S
C2023  C2026   1.524   .     S
H2024  C1327   1.110   1_565 S
H2025  C1327   1.108   1_565 S
C2026  H2027   1.111   .     S
H2028  C1330   1.105   1_565 S
H2029  C1794   1.104   1_655 S
N2030  O2032   1.298   .     A
N2030  O2031   1.301   .     A
N2033  O2035   1.295   .     A
N2033  O2034   1.301   .     A
N2036  O2037   1.302   .     A
N2036  O2038   1.301   .     A
O2039  C943    1.384   1_556 S
O2039  C996    1.421   1_556 S
C2040  C2043   1.528   .     S
C2040  H2042   1.120   .     S
H2041  C996    1.110   1_556 S
C2043  H2045   1.112   .     S
C2043  H2044   1.111   .     S
C2046  H2048   1.106   .     S
C2046  H2049   1.109   .     S
C2046  H2047   1.109   .     S
C2046  C1347   1.525   1_565 S
N2050  O2052   1.302   .     A
N2050  O2051   1.299   .     A
O2053  C2054   1.418   .     S
C2054  H2056   1.115   .     S
C2054  H2055   1.111   .     S
C2057  H2058   1.110   .     S
C2057  H2059   1.109   .     S
C2057  C2060   1.524   .     S
C2057  C1822   1.538   1_655 S
C2060  H2063   1.109   .     S
C2060  H2061   1.110   .     S
C2060  H2062   1.109   .     S
O2064  C2065   1.419   .     S
C2065  H2066   1.110   .     S
C2065  H2067   1.117   .     S
C2068  C2071   1.524   .     S
C2068  H2069   1.110   .     S
C2068  C1833   1.527   1_655 S
C2068  H1838   1.111   1_655 S
C2071  H2073   1.109   .     S
C2071  H2074   1.109   .     S
C2071  H1840   1.107   1_655 S
O2075  C2076   1.421   .     S
C2076  H2078   1.115   .     S
C2076  H2077   1.106   .     S
C2076  C2079   1.535   .     S
C2079  H2080   1.110   .     S
C2079  H2081   1.111   .     S
C2082  H2084   1.110   .     S
C2082  H2085   1.110   .     S
C2082  C1383   1.527   1_565 S
C2082  H1387   1.111   1_565 S
N2086  O2087   1.302   .     A
N2086  O2088   1.302   .     A
