data_str_m1_o1_o17_pcu_sym.22
_audit_creation_date              2020-01-03
_audit_creation_method            'Materials Studio'
_symmetry_space_group_name_H-M    'P1'
_symmetry_Int_Tables_number       1
_symmetry_cell_setting            triclinic
loop_
_symmetry_equiv_pos_as_xyz
  x,y,z
_cell_length_a                    36.6216
_cell_length_b                    36.6280
_cell_length_c                    34.4217
_cell_angle_alpha                 89.9946
_cell_angle_beta                  90.0433
_cell_angle_gamma                 89.7179
loop_
_atom_site_label
_atom_site_type_symbol
_atom_site_fract_x
_atom_site_fract_y
_atom_site_fract_z
_atom_site_U_iso_or_equiv
_atom_site_adp_type
_atom_site_occupancy
C1     C     0.03322   0.25013   0.41883   0.00000  Uiso   1.00
C2     C     0.21679   0.49913   0.08118   0.00000  Uiso   1.00
C3     C     0.25000   0.46659   0.54073   0.00000  Uiso   1.00
C4     C     0.03345   0.25005   0.45932   0.00000  Uiso   1.00
C5     C     0.46656   0.24961   0.54071   0.00000  Uiso   1.00
C6     C     0.24999   0.46658   0.45929   0.00000  Uiso   1.00
C7     C     0.25035   0.03347   0.54073   0.00000  Uiso   1.00
C8     C     0.21657   0.49930   0.95925   0.00000  Uiso   1.00
C9     C     0.28342   0.00079   0.04076   0.00000  Uiso   1.00
C10    C     0.00044   0.28343   0.95927   0.00000  Uiso   1.00
C11    C     0.49954   0.21657   0.04072   0.00000  Uiso   1.00
C12    C     0.28344   0.00070   0.95931   0.00000  Uiso   1.00
C13    C     0.49965   0.21680   0.91879   0.00000  Uiso   1.00
C14    C     0.21656   0.49922   0.04070   0.00000  Uiso   1.00
C15    C     0.49966   0.21656   0.95928   0.00000  Uiso   1.00
C16    C     0.00051   0.28343   0.04071   0.00000  Uiso   1.00
C17    C     0.09866   0.34737   0.24852   0.00000  Uiso   1.00
C18    C     0.40415   0.14938   0.74412   0.00000  Uiso   1.00
C19    C     0.15152   0.09767   0.25003   0.00000  Uiso   1.00
C20    C     0.34853   0.40242   0.74983   0.00000  Uiso   1.00
C21    C     0.40135   0.15263   0.24850   0.00000  Uiso   1.00
C22    C     0.09765   0.34877   0.74864   0.00000  Uiso   1.00
C23    C     0.34846   0.40231   0.25003   0.00000  Uiso   1.00
C24    C     0.00061   0.28319   0.08120   0.00000  Uiso   1.00
C25    C     0.15163   0.09777   0.74980   0.00000  Uiso   1.00
C26    C     0.09830   0.15218   0.75001   0.00000  Uiso   1.00
C27    C     0.40160   0.34772   0.24980   0.00000  Uiso   1.00
C28    C     0.15129   0.40268   0.74845   0.00000  Uiso   1.00
C29    C     0.34771   0.09871   0.24871   0.00000  Uiso   1.00
C30    C     0.40159   0.34776   0.75003   0.00000  Uiso   1.00
C31    C     0.09842   0.15230   0.24980   0.00000  Uiso   1.00
C32    C     0.34977   0.09631   0.74574   0.00000  Uiso   1.00
C33    C     0.15230   0.40129   0.24869   0.00000  Uiso   1.00
C34    C     0.00000   0.24983   0.47964   0.00000  Uiso   1.00
C35    C     0.21682   0.49930   0.91876   0.00000  Uiso   1.00
C36    C    -0.00000   0.24982   0.52039   0.00000  Uiso   1.00
C37    C     0.25014   0.00002   0.47964   0.00000  Uiso   1.00
C38    C     0.25017   0.00003   0.52038   0.00000  Uiso   1.00
C39    C     0.25000   0.00000   0.97963   0.00000  Uiso   1.00
C40    C     0.25000   0.00001   0.02038   0.00000  Uiso   1.00
C41    C     0.00005   0.25000   0.97962   0.00000  Uiso   1.00
C42    C     0.00003   0.25000   0.02037   0.00000  Uiso   1.00
C43    C     0.09920   0.45241   0.19369   0.00000  Uiso   1.00
C44    C     0.09334   0.49298   0.18638   0.00000  Uiso   1.00
C45    C     0.39774   0.02801   0.73683   0.00000  Uiso   1.00
C46    C     0.28318   0.00089   0.08124   0.00000  Uiso   1.00
C47    C     0.41290   0.49140   0.75046   0.00000  Uiso   1.00
C48    C     0.10839   0.18093   0.16688   0.00000  Uiso   1.00
C49    C     0.09522   0.18877   0.12581   0.00000  Uiso   1.00
C50    C     0.39041   0.31813   0.83221   0.00000  Uiso   1.00
C51    C     0.40098   0.31071   0.87423   0.00000  Uiso   1.00
C52    C     0.40077   0.04755   0.19379   0.00000  Uiso   1.00
C53    C     0.40665   0.00698   0.18652   0.00000  Uiso   1.00
C54    C     0.10373   0.46928   0.72845   0.00000  Uiso   1.00
C55    C     0.08643   0.00631   0.73694   0.00000  Uiso   1.00
C56    C     0.39156   0.31912   0.16686   0.00000  Uiso   1.00
C57    C     0.00046   0.28320   0.91879   0.00000  Uiso   1.00
C58    C     0.40472   0.31131   0.12579   0.00000  Uiso   1.00
C59    C     0.11010   0.18244   0.83182   0.00000  Uiso   1.00
C60    C     0.10013   0.19000   0.87395   0.00000  Uiso   1.00
C61    C     0.17646   0.11464   0.83686   0.00000  Uiso   1.00
C62    C     0.20490   0.08894   0.85410   0.00000  Uiso   1.00
C63    C     0.32866   0.38777   0.15922   0.00000  Uiso   1.00
C64    C     0.29904   0.41294   0.14345   0.00000  Uiso   1.00
C65    C     0.03313   0.41089   0.73698   0.00000  Uiso   1.00
C66    C     0.49337   0.39929   0.73822   0.00000  Uiso   1.00
C67    C     0.46209   0.09516   0.27263   0.00000  Uiso   1.00
C68    C     0.49940   0.21681   0.08120   0.00000  Uiso   1.00
C69    C     0.00165   0.08354   0.26685   0.00000  Uiso   1.00
C70    C     0.32467   0.38561   0.83760   0.00000  Uiso   1.00
C71    C     0.29507   0.41095   0.85313   0.00000  Uiso   1.00
C72    C     0.17119   0.11222   0.15921   0.00000  Uiso   1.00
C73    C     0.20076   0.08703   0.14341   0.00000  Uiso   1.00
C74    C     0.46825   0.08659   0.74560   0.00000  Uiso   1.00
C75    C     0.00744   0.09996   0.74692   0.00000  Uiso   1.00
C76    C     0.03793   0.40485   0.27256   0.00000  Uiso   1.00
C77    C     0.49837   0.41647   0.26674   0.00000  Uiso   1.00
C78    C     0.37676   0.18609   0.66786   0.00000  Uiso   1.00
C79    C     0.00001   0.24994   0.39847   0.00000  Uiso   1.00
C80    C     0.37158   0.22262   0.64751   0.00000  Uiso   1.00
C81    C     0.14600   0.28098   0.22745   0.00000  Uiso   1.00
C82    C     0.16352   0.24394   0.23535   0.00000  Uiso   1.00
C83    C     0.36009   0.43261   0.66803   0.00000  Uiso   1.00
C84    C     0.34793   0.44140   0.62682   0.00000  Uiso   1.00
C85    C     0.14058   0.06830   0.33228   0.00000  Uiso   1.00
C86    C     0.15120   0.06097   0.37430   0.00000  Uiso   1.00
C87    C     0.15007   0.29835   0.69239   0.00000  Uiso   1.00
C88    C     0.15545   0.25784   0.68433   0.00000  Uiso   1.00
C89    C     0.35399   0.21900   0.22734   0.00000  Uiso   1.00
C90    C     0.49999   0.24991   0.60155   0.00000  Uiso   1.00
C91    C     0.33647   0.25605   0.23518   0.00000  Uiso   1.00
C92    C     0.14103   0.06859   0.66704   0.00000  Uiso   1.00
C93    C     0.15375   0.06082   0.62582   0.00000  Uiso   1.00
C94    C     0.35949   0.43165   0.33230   0.00000  Uiso   1.00
C95    C     0.34892   0.43896   0.37432   0.00000  Uiso   1.00
C96    C     0.42513   0.36418   0.33773   0.00000  Uiso   1.00
C97    C     0.45477   0.33887   0.35328   0.00000  Uiso   1.00
C98    C     0.07499   0.13581   0.66159   0.00000  Uiso   1.00
C99    C     0.04508   0.16114   0.64668   0.00000  Uiso   1.00
C100   C     0.28331   0.16039   0.23539   0.00000  Uiso   1.00
C101   C     0.25005   0.00001   0.39847   0.00000  Uiso   1.00
C102   C     0.24359   0.14865   0.23631   0.00000  Uiso   1.00
C103   C     0.21205   0.34505   0.77177   0.00000  Uiso   1.00
C104   C     0.25169   0.33383   0.76584   0.00000  Uiso   1.00
C105   C     0.07502   0.13582   0.33775   0.00000  Uiso   1.00
C106   C     0.04542   0.16113   0.35331   0.00000  Uiso   1.00
C107   C     0.42226   0.36308   0.65967   0.00000  Uiso   1.00
C108   C     0.45156   0.33779   0.64347   0.00000  Uiso   1.00
C109   C     0.21667   0.33960   0.23544   0.00000  Uiso   1.00
C110   C     0.25639   0.35136   0.23635   0.00000  Uiso   1.00
C111   C     0.29738   0.14543   0.68419   0.00000  Uiso   1.00
C112   C     0.46680   0.24961   0.58120   0.00000  Uiso   1.00
C113   C     0.25011   0.00002   0.60155   0.00000  Uiso   1.00
C114   C     0.25662   0.13976   0.67802   0.00000  Uiso   1.00
C115   C     0.25002   0.49999   0.89846   0.00000  Uiso   1.00
C116   C     0.24998   0.00001   0.10154   0.00000  Uiso   1.00
C117   C     0.00004   0.25000   0.89846   0.00000  Uiso   1.00
C118   C     0.00000   0.25000   0.10154   0.00000  Uiso   1.00
C119   C     0.43347   0.24946   0.47971   0.00000  Uiso   1.00
C120   C     0.06653   0.25020   0.52033   0.00000  Uiso   1.00
C121   C     0.25040   0.06655   0.47974   0.00000  Uiso   1.00
C122   C     0.24990   0.43350   0.52027   0.00000  Uiso   1.00
C123   C     0.06653   0.25020   0.47982   0.00000  Uiso   1.00
C124   C     0.24989   0.46681   0.41881   0.00000  Uiso   1.00
C125   C     0.43347   0.24942   0.52023   0.00000  Uiso   1.00
C126   C     0.24991   0.43350   0.47976   0.00000  Uiso   1.00
C127   C     0.25046   0.06655   0.52026   0.00000  Uiso   1.00
C128   C     0.18349   0.49859   0.97968   0.00000  Uiso   1.00
C129   C     0.31651   0.00148   0.02033   0.00000  Uiso   1.00
C130   C     0.00083   0.31651   0.97973   0.00000  Uiso   1.00
C131   C     0.49918   0.18349   0.02026   0.00000  Uiso   1.00
C132   C     0.31652   0.00141   0.97981   0.00000  Uiso   1.00
C133   C     0.18349   0.49853   0.02020   0.00000  Uiso   1.00
C134   C     0.49927   0.18348   0.97975   0.00000  Uiso   1.00
C135   C     0.25043   0.03323   0.58122   0.00000  Uiso   1.00
C136   C     0.00089   0.31651   0.02024   0.00000  Uiso   1.00
C137   C     0.25001   0.00000   0.35599   0.00000  Uiso   1.00
C138   C     0.25003   0.00001   0.64401   0.00000  Uiso   1.00
C139   C     0.00001   0.24999   0.35599   0.00000  Uiso   1.00
C140   C     0.49999   0.24998   0.64401   0.00000  Uiso   1.00
C141   C     0.00001   0.25000   0.85599   0.00000  Uiso   1.00
C142   C    -0.00000   0.25000   0.14401   0.00000  Uiso   1.00
C143   C     0.25001   0.49999   0.85599   0.00000  Uiso   1.00
C144   C     0.24999   0.00000   0.14401   0.00000  Uiso   1.00
C145   C     0.18007   0.07009   0.24977   0.00000  Uiso   1.00
C146   C     0.46680   0.24968   0.41878   0.00000  Uiso   1.00
C147   C     0.31993   0.42993   0.75019   0.00000  Uiso   1.00
C148   C     0.42995   0.18004   0.24989   0.00000  Uiso   1.00
C149   C     0.06996   0.32020   0.74977   0.00000  Uiso   1.00
C150   C     0.31991   0.42991   0.24977   0.00000  Uiso   1.00
C151   C     0.18010   0.07010   0.75017   0.00000  Uiso   1.00
C152   C     0.07006   0.31997   0.24990   0.00000  Uiso   1.00
C153   C     0.43057   0.17920   0.74863   0.00000  Uiso   1.00
C154   C     0.17993   0.43006   0.74987   0.00000  Uiso   1.00
C155   C     0.31997   0.07018   0.24980   0.00000  Uiso   1.00
C156   C     0.43008   0.32010   0.74977   0.00000  Uiso   1.00
C157   C     0.03320   0.25013   0.58125   0.00000  Uiso   1.00
C158   C     0.06992   0.17992   0.25017   0.00000  Uiso   1.00
C159   C     0.32021   0.06992   0.74959   0.00000  Uiso   1.00
C160   C     0.18002   0.42982   0.24979   0.00000  Uiso   1.00
C161   C     0.06987   0.17988   0.74976   0.00000  Uiso   1.00
C162   C     0.43009   0.32008   0.25017   0.00000  Uiso   1.00
C163   C     0.11594   0.41068   0.23960   0.00000  Uiso   1.00
C164   C     0.38593   0.08669   0.75618   0.00000  Uiso   1.00
C165   C     0.10997   0.13700   0.21424   0.00000  Uiso   1.00
C166   C     0.38975   0.36279   0.78560   0.00000  Uiso   1.00
C167   C     0.38406   0.08932   0.23965   0.00000  Uiso   1.00
C168   C     0.25027   0.03322   0.41879   0.00000  Uiso   1.00
C169   C     0.11445   0.41270   0.75467   0.00000  Uiso   1.00
C170   C     0.39000   0.36302   0.21424   0.00000  Uiso   1.00
C171   C     0.11047   0.13743   0.78559   0.00000  Uiso   1.00
C172   C     0.13691   0.10985   0.78535   0.00000  Uiso   1.00
C173   C     0.36383   0.39090   0.21453   0.00000  Uiso   1.00
C174   C     0.08778   0.38537   0.75618   0.00000  Uiso   1.00
C175   C     0.41113   0.11596   0.24182   0.00000  Uiso   1.00
C176   C     0.36336   0.39041   0.78536   0.00000  Uiso   1.00
C177   C     0.13611   0.10909   0.21453   0.00000  Uiso   1.00
C178   C     0.41269   0.11392   0.75733   0.00000  Uiso   1.00
C179   C     0.24989   0.46682   0.58121   0.00000  Uiso   1.00
C180   C     0.08887   0.38403   0.24179   0.00000  Uiso   1.00
C181   C     0.37028   0.15611   0.72539   0.00000  Uiso   1.00
C182   C     0.13555   0.33732   0.25434   0.00000  Uiso   1.00
C183   C     0.36054   0.38761   0.71423   0.00000  Uiso   1.00
C184   C     0.13984   0.11287   0.28557   0.00000  Uiso   1.00
C185   C     0.13391   0.33948   0.73908   0.00000  Uiso   1.00
C186   C     0.36446   0.16268   0.25430   0.00000  Uiso   1.00
C187   C     0.13960   0.11267   0.71421   0.00000  Uiso   1.00
C188   C     0.36019   0.38710   0.28557   0.00000  Uiso   1.00
C189   C     0.38658   0.35948   0.28531   0.00000  Uiso   1.00
C190   C     0.28321   0.00069   0.91882   0.00000  Uiso   1.00
C191   C     0.11311   0.14022   0.71445   0.00000  Uiso   1.00
C192   C     0.33778   0.13537   0.25579   0.00000  Uiso   1.00
C193   C     0.16100   0.36608   0.74133   0.00000  Uiso   1.00
C194   C     0.11348   0.14052   0.28531   0.00000  Uiso   1.00
C195   C     0.38655   0.35958   0.71449   0.00000  Uiso   1.00
C196   C     0.16223   0.36463   0.25580   0.00000  Uiso   1.00
C197   C     0.34200   0.13088   0.72947   0.00000  Uiso   1.00
C198   C     0.46656   0.24966   0.45927   0.00000  Uiso   1.00
C199   C     0.03344   0.25004   0.54077   0.00000  Uiso   1.00
C200   C     0.25027   0.03346   0.45928   0.00000  Uiso   1.00
H201   H     0.40762   0.24932   0.46437   0.00000  Uiso   1.00
H202   H     0.34234   0.00206   0.03568   0.00000  Uiso   1.00
H203   H     0.18826   0.06485   0.12600   0.00000  Uiso   1.00
H204   H     0.21966   0.10271   0.12460   0.00000  Uiso   1.00
H205   H     0.21664   0.07500   0.16777   0.00000  Uiso   1.00
H206   H     0.45863   0.08917   0.71489   0.00000  Uiso   1.00
H207   H     0.46831   0.05732   0.75393   0.00000  Uiso   1.00
H208   H     0.01750   0.10072   0.77736   0.00000  Uiso   1.00
H209   H     0.02522   0.08131   0.72982   0.00000  Uiso   1.00
H210   H     0.00883   0.12766   0.73402   0.00000  Uiso   1.00
H211   H     0.05312   0.42850   0.28478   0.00000  Uiso   1.00
H212   H     0.03859   0.38188   0.29378   0.00000  Uiso   1.00
H213   H     0.00111   0.34235   0.96441   0.00000  Uiso   1.00
H214   H     0.48205   0.39305   0.25605   0.00000  Uiso   1.00
H215   H     0.48679   0.42610   0.29474   0.00000  Uiso   1.00
H216   H     0.49677   0.43905   0.24527   0.00000  Uiso   1.00
H217   H     0.36206   0.16488   0.65102   0.00000  Uiso   1.00
H218   H     0.40632   0.17888   0.66696   0.00000  Uiso   1.00
H219   H     0.38745   0.24410   0.66271   0.00000  Uiso   1.00
H220   H     0.34223   0.23039   0.64745   0.00000  Uiso   1.00
H221   H     0.38123   0.22060   0.61701   0.00000  Uiso   1.00
H222   H     0.16186   0.29481   0.20417   0.00000  Uiso   1.00
H223   H     0.11794   0.27618   0.21639   0.00000  Uiso   1.00
H224   H     0.49885   0.15765   0.03559   0.00000  Uiso   1.00
H225   H     0.14673   0.22832   0.25637   0.00000  Uiso   1.00
H226   H     0.19137   0.24746   0.24750   0.00000  Uiso   1.00
H227   H     0.16563   0.22820   0.20790   0.00000  Uiso   1.00
H228   H     0.39047   0.43244   0.66879   0.00000  Uiso   1.00
H229   H     0.35017   0.45493   0.68720   0.00000  Uiso   1.00
H230   H     0.31767   0.44246   0.62535   0.00000  Uiso   1.00
H231   H     0.35895   0.46831   0.61788   0.00000  Uiso   1.00
H232   H     0.35809   0.42014   0.60647   0.00000  Uiso   1.00
H233   H     0.15179   0.04568   0.31436   0.00000  Uiso   1.00
H234   H     0.11026   0.06774   0.33006   0.00000  Uiso   1.00
H235   H     0.34236   0.00194   0.96452   0.00000  Uiso   1.00
H236   H     0.13993   0.08269   0.39341   0.00000  Uiso   1.00
H237   H     0.14021   0.03418   0.38369   0.00000  Uiso   1.00
H238   H     0.18140   0.06042   0.37717   0.00000  Uiso   1.00
H239   H     0.17516   0.31289   0.68303   0.00000  Uiso   1.00
H240   H     0.12650   0.30816   0.67464   0.00000  Uiso   1.00
H241   H     0.13053   0.24255   0.69257   0.00000  Uiso   1.00
H242   H     0.17902   0.24721   0.70129   0.00000  Uiso   1.00
H243   H     0.16081   0.25352   0.65291   0.00000  Uiso   1.00
H244   H     0.33810   0.20515   0.20407   0.00000  Uiso   1.00
H245   H     0.38204   0.22378   0.21629   0.00000  Uiso   1.00
H246   H     0.15764   0.49795   0.03550   0.00000  Uiso   1.00
H247   H     0.35329   0.27168   0.25620   0.00000  Uiso   1.00
H248   H     0.33434   0.27176   0.20772   0.00000  Uiso   1.00
H249   H     0.30864   0.25255   0.24733   0.00000  Uiso   1.00
H250   H     0.11067   0.06855   0.66729   0.00000  Uiso   1.00
H251   H     0.15091   0.04596   0.68584   0.00000  Uiso   1.00
H252   H     0.18403   0.06023   0.62476   0.00000  Uiso   1.00
H253   H     0.14322   0.03394   0.61610   0.00000  Uiso   1.00
H254   H     0.14349   0.08236   0.60584   0.00000  Uiso   1.00
H255   H     0.34826   0.45428   0.31438   0.00000  Uiso   1.00
H256   H     0.38981   0.43222   0.33009   0.00000  Uiso   1.00
H257   H     0.49900   0.15764   0.96443   0.00000  Uiso   1.00
H258   H     0.36022   0.41723   0.39342   0.00000  Uiso   1.00
H259   H     0.35991   0.46574   0.38373   0.00000  Uiso   1.00
H260   H     0.31873   0.43950   0.37718   0.00000  Uiso   1.00
H261   H     0.41319   0.37921   0.36271   0.00000  Uiso   1.00
H262   H     0.43844   0.38435   0.31804   0.00000  Uiso   1.00
H263   H     0.44261   0.31803   0.37272   0.00000  Uiso   1.00
H264   H     0.46897   0.32512   0.32882   0.00000  Uiso   1.00
H265   H     0.47512   0.35488   0.36997   0.00000  Uiso   1.00
H266   H     0.06194   0.11501   0.68074   0.00000  Uiso   1.00
H267   H     0.08712   0.12151   0.63622   0.00000  Uiso   1.00
H268   H     0.00121   0.34235   0.03557   0.00000  Uiso   1.00
H269   H     0.05701   0.18242   0.62761   0.00000  Uiso   1.00
H270   H     0.02481   0.14527   0.62974   0.00000  Uiso   1.00
H271   H     0.03086   0.17436   0.67146   0.00000  Uiso   1.00
H272   H     0.29455   0.15318   0.20619   0.00000  Uiso   1.00
H273   H     0.28385   0.19045   0.23909   0.00000  Uiso   1.00
H274   H     0.22754   0.16556   0.21562   0.00000  Uiso   1.00
H275   H     0.24153   0.11956   0.22764   0.00000  Uiso   1.00
H276   H     0.23204   0.15232   0.26589   0.00000  Uiso   1.00
H277   H     0.19707   0.32117   0.78374   0.00000  Uiso   1.00
H278   H     0.21124   0.36782   0.79324   0.00000  Uiso   1.00
H279   H     0.05892   0.25034   0.40322   0.00000  Uiso   1.00
H280   H     0.26782   0.35751   0.75548   0.00000  Uiso   1.00
H281   H     0.26337   0.32396   0.79372   0.00000  Uiso   1.00
H282   H     0.25346   0.31152   0.74407   0.00000  Uiso   1.00
H283   H     0.08701   0.12079   0.36272   0.00000  Uiso   1.00
H284   H     0.06168   0.11566   0.31806   0.00000  Uiso   1.00
H285   H     0.03116   0.17489   0.32886   0.00000  Uiso   1.00
H286   H     0.02510   0.14512   0.37002   0.00000  Uiso   1.00
H287   H     0.05761   0.18197   0.37275   0.00000  Uiso   1.00
H288   H     0.43612   0.38424   0.67761   0.00000  Uiso   1.00
H289   H     0.40854   0.37684   0.63487   0.00000  Uiso   1.00
H290   H     0.44111   0.24944   0.59681   0.00000  Uiso   1.00
H291   H     0.43884   0.31610   0.62554   0.00000  Uiso   1.00
H292   H     0.47075   0.35356   0.62509   0.00000  Uiso   1.00
H293   H     0.46716   0.32510   0.66765   0.00000  Uiso   1.00
H294   H     0.20539   0.34678   0.20624   0.00000  Uiso   1.00
H295   H     0.21615   0.30954   0.23917   0.00000  Uiso   1.00
H296   H     0.27242   0.33444   0.21568   0.00000  Uiso   1.00
H297   H     0.25842   0.38044   0.22764   0.00000  Uiso   1.00
H298   H     0.26798   0.34772   0.26594   0.00000  Uiso   1.00
H299   H     0.31229   0.12528   0.66568   0.00000  Uiso   1.00
H300   H     0.30336   0.17364   0.67452   0.00000  Uiso   1.00
H301   H     0.24971   0.44111   0.40318   0.00000  Uiso   1.00
H302   H     0.24065   0.15731   0.69819   0.00000  Uiso   1.00
H303   H     0.24919   0.14695   0.64768   0.00000  Uiso   1.00
H304   H     0.24946   0.11079   0.68290   0.00000  Uiso   1.00
H305   H     0.09238   0.25034   0.53568   0.00000  Uiso   1.00
H306   H     0.25069   0.05893   0.59685   0.00000  Uiso   1.00
H307   H     0.44110   0.24951   0.40312   0.00000  Uiso   1.00
H308   H     0.05891   0.25036   0.59691   0.00000  Uiso   1.00
H309   H     0.25042   0.05891   0.40316   0.00000  Uiso   1.00
H310   H     0.24965   0.44112   0.59684   0.00000  Uiso   1.00
H311   H     0.30891   0.00123   0.90321   0.00000  Uiso   1.00
H312   H     0.19110   0.49838   0.09680   0.00000  Uiso   1.00
H313   H     0.49933   0.19110   0.90316   0.00000  Uiso   1.00
H314   H     0.00115   0.30889   0.09682   0.00000  Uiso   1.00
H315   H     0.19112   0.49876   0.90310   0.00000  Uiso   1.00
H316   H     0.25047   0.09239   0.46442   0.00000  Uiso   1.00
H317   H     0.30887   0.00163   0.09690   0.00000  Uiso   1.00
H318   H     0.00080   0.30889   0.90315   0.00000  Uiso   1.00
H319   H     0.49886   0.19111   0.09683   0.00000  Uiso   1.00
H320   H     0.07416   0.43777   0.18435   0.00000  Uiso   1.00
H321   H     0.12268   0.44309   0.17553   0.00000  Uiso   1.00
H322   H     0.11818   0.00840   0.19464   0.00000  Uiso   1.00
H323   H     0.06983   0.00311   0.20375   0.00000  Uiso   1.00
H324   H     0.08761   0.49774   0.15509   0.00000  Uiso   1.00
H325   H     0.41632   0.03897   0.71413   0.00000  Uiso   1.00
H326   H     0.37072   0.02306   0.72317   0.00000  Uiso   1.00
H327   H     0.24981   0.40766   0.53560   0.00000  Uiso   1.00
H328   H     0.41488   0.47226   0.72554   0.00000  Uiso   1.00
H329   H     0.39465   0.47943   0.77278   0.00000  Uiso   1.00
H330   H     0.44052   0.49501   0.76317   0.00000  Uiso   1.00
H331   H     0.13875   0.18079   0.16675   0.00000  Uiso   1.00
H332   H     0.09890   0.20365   0.18576   0.00000  Uiso   1.00
H333   H     0.06494   0.18957   0.12513   0.00000  Uiso   1.00
H334   H     0.10582   0.21557   0.11594   0.00000  Uiso   1.00
H335   H     0.10507   0.16716   0.10571   0.00000  Uiso   1.00
H336   H     0.40164   0.29555   0.81425   0.00000  Uiso   1.00
H337   H     0.36009   0.31759   0.82995   0.00000  Uiso   1.00
H338   H     0.09238   0.25034   0.46452   0.00000  Uiso   1.00
H339   H     0.38969   0.33240   0.89337   0.00000  Uiso   1.00
H340   H     0.38998   0.28391   0.88355   0.00000  Uiso   1.00
H341   H     0.43118   0.31015   0.87714   0.00000  Uiso   1.00
H342   H     0.42582   0.06219   0.18446   0.00000  Uiso   1.00
H343   H     0.37730   0.05685   0.17560   0.00000  Uiso   1.00
H344   H     0.38181   0.49156   0.19477   0.00000  Uiso   1.00
H345   H     0.43015   0.49686   0.20395   0.00000  Uiso   1.00
H346   H     0.41237   0.00220   0.15525   0.00000  Uiso   1.00
H347   H     0.08753   0.45572   0.70524   0.00000  Uiso   1.00
H348   H     0.13166   0.47409   0.71708   0.00000  Uiso   1.00
H349   H     0.40762   0.24926   0.53554   0.00000  Uiso   1.00
H350   H     0.10351   0.02166   0.75795   0.00000  Uiso   1.00
H351   H     0.08407   0.02233   0.70970   0.00000  Uiso   1.00
H352   H     0.05871   0.00278   0.74937   0.00000  Uiso   1.00
H353   H     0.36120   0.31926   0.16668   0.00000  Uiso   1.00
H354   H     0.40107   0.29640   0.18573   0.00000  Uiso   1.00
H355   H     0.43501   0.31051   0.12515   0.00000  Uiso   1.00
H356   H     0.39413   0.28451   0.11590   0.00000  Uiso   1.00
H357   H     0.39487   0.33293   0.10569   0.00000  Uiso   1.00
H358   H     0.09848   0.20487   0.81391   0.00000  Uiso   1.00
H359   H     0.14039   0.18312   0.82906   0.00000  Uiso   1.00
H360   H     0.24982   0.40766   0.46444   0.00000  Uiso   1.00
H361   H     0.11178   0.16844   0.89303   0.00000  Uiso   1.00
H362   H     0.11118   0.21688   0.88296   0.00000  Uiso   1.00
H363   H     0.06998   0.19048   0.87732   0.00000  Uiso   1.00
H364   H     0.16501   0.13135   0.86087   0.00000  Uiso   1.00
H365   H     0.19073   0.13319   0.81609   0.00000  Uiso   1.00
H366   H     0.21888   0.07369   0.83052   0.00000  Uiso   1.00
H367   H     0.22562   0.10486   0.87037   0.00000  Uiso   1.00
H368   H     0.19172   0.06937   0.87429   0.00000  Uiso   1.00
H369   H     0.31506   0.36604   0.17660   0.00000  Uiso   1.00
H370   H     0.34261   0.37471   0.13416   0.00000  Uiso   1.00
H371   H     0.25057   0.09239   0.53558   0.00000  Uiso   1.00
H372   H     0.31150   0.43512   0.12601   0.00000  Uiso   1.00
H373   H     0.28010   0.39725   0.12466   0.00000  Uiso   1.00
H374   H     0.28322   0.42496   0.16782   0.00000  Uiso   1.00
H375   H     0.04398   0.40413   0.70750   0.00000  Uiso   1.00
H376   H     0.03383   0.44088   0.74127   0.00000  Uiso   1.00
H377   H     0.47710   0.41670   0.71820   0.00000  Uiso   1.00
H378   H     0.49110   0.37041   0.72887   0.00000  Uiso   1.00
H379   H     0.48224   0.40236   0.76806   0.00000  Uiso   1.00
H380   H     0.44692   0.07152   0.28486   0.00000  Uiso   1.00
H381   H     0.46145   0.11814   0.29384   0.00000  Uiso   1.00
H382   H     0.15765   0.49806   0.96434   0.00000  Uiso   1.00
H383   H     0.01796   0.10696   0.25615   0.00000  Uiso   1.00
H384   H     0.01326   0.07392   0.29486   0.00000  Uiso   1.00
H385   H     0.00323   0.06094   0.24539   0.00000  Uiso   1.00
H386   H     0.33653   0.37047   0.86257   0.00000  Uiso   1.00
H387   H     0.31137   0.36555   0.81778   0.00000  Uiso   1.00
H388   H     0.28095   0.42482   0.82866   0.00000  Uiso   1.00
H389   H     0.27465   0.39494   0.86969   0.00000  Uiso   1.00
H390   H     0.30724   0.43170   0.87270   0.00000  Uiso   1.00
H391   H     0.18484   0.13392   0.17659   0.00000  Uiso   1.00
H392   H     0.15719   0.12529   0.13416   0.00000  Uiso   1.00
O393   O     0.25000   0.00000   0.25000   0.00000  Uiso   1.00
O394   O     0.25000   0.46963   0.66245   0.00000  Uiso   1.00
O395   O     0.46964   0.25000   0.33755   0.00000  Uiso   1.00
O396   O     0.03037   0.25000   0.66245   0.00000  Uiso   1.00
O397   O     0.00000   0.21964   0.83755   0.00000  Uiso   1.00
O398   O     0.00000   0.28037   0.16245   0.00000  Uiso   1.00
O399   O     0.28037  -0.00000   0.83755   0.00000  Uiso   1.00
O400   O     0.21964  -0.00000   0.16245   0.00000  Uiso   1.00
O401   O     0.00000   0.28037   0.83755   0.00000  Uiso   1.00
O402   O     0.00000   0.21964   0.16245   0.00000  Uiso   1.00
O403   O     0.21964  -0.00000   0.83755   0.00000  Uiso   1.00
O404   O     0.25000   0.00000   0.75000   0.00000  Uiso   1.00
O405   O     0.28037  -0.00000   0.16245   0.00000  Uiso   1.00
O406   O     0.20725   0.07308   0.27302   0.00000  Uiso   1.00
O407   O     0.29276   0.42692   0.72698   0.00000  Uiso   1.00
O408   O     0.42693   0.20725   0.27302   0.00000  Uiso   1.00
O409   O     0.07308   0.29275   0.72698   0.00000  Uiso   1.00
O410   O     0.29276   0.42692   0.27302   0.00000  Uiso   1.00
O411   O     0.20725   0.07308   0.72698   0.00000  Uiso   1.00
O412   O     0.07308   0.29275   0.27302   0.00000  Uiso   1.00
O413   O     0.42693   0.20725   0.72698   0.00000  Uiso   1.00
O414   O     0.20725   0.42692   0.72698   0.00000  Uiso   1.00
O415   O     0.00000   0.25000   0.25000   0.00000  Uiso   1.00
O416   O     0.29276   0.07308   0.27302   0.00000  Uiso   1.00
O417   O     0.42693   0.29276   0.72698   0.00000  Uiso   1.00
O418   O     0.07308   0.20724   0.27302   0.00000  Uiso   1.00
O419   O     0.29276   0.07308   0.72698   0.00000  Uiso   1.00
O420   O     0.20725   0.42692   0.27302   0.00000  Uiso   1.00
O421   O     0.07308   0.20724   0.72698   0.00000  Uiso   1.00
O422   O     0.42693   0.29276   0.27302   0.00000  Uiso   1.00
O423   O     0.45725   0.32308   0.77302   0.00000  Uiso   1.00
O424   O     0.04276   0.17692   0.22698   0.00000  Uiso   1.00
O425   O     0.17693   0.45724   0.77302   0.00000  Uiso   1.00
O426   O     0.00000   0.25000   0.75000   0.00000  Uiso   1.00
O427   O     0.32308   0.04276   0.22698   0.00000  Uiso   1.00
O428   O     0.04276   0.17692   0.77302   0.00000  Uiso   1.00
O429   O     0.45725   0.32308   0.22698   0.00000  Uiso   1.00
O430   O     0.32308   0.04276   0.77302   0.00000  Uiso   1.00
O431   O     0.17693   0.45724   0.22698   0.00000  Uiso   1.00
O432   O     0.45725   0.17693   0.22698   0.00000  Uiso   1.00
O433   O     0.04276   0.32307   0.77302   0.00000  Uiso   1.00
O434   O     0.17693   0.04276   0.22698   0.00000  Uiso   1.00
O435   O     0.32308   0.45724   0.77302   0.00000  Uiso   1.00
O436   O     0.04276   0.32307   0.22698   0.00000  Uiso   1.00
O437   O     0.25000   0.46963   0.33755   0.00000  Uiso   1.00
O438   O     0.45725   0.17693   0.77302   0.00000  Uiso   1.00
O439   O     0.32308   0.45724   0.22698   0.00000  Uiso   1.00
O440   O     0.17693   0.04276   0.77302   0.00000  Uiso   1.00
O441   O     0.10612   0.44683   0.23366   0.00000  Uiso   1.00
O442   O     0.39479   0.05189   0.76909   0.00000  Uiso   1.00
O443   O     0.09407   0.14703   0.17923   0.00000  Uiso   1.00
O444   O     0.40499   0.35219   0.82075   0.00000  Uiso   1.00
O445   O     0.39387   0.05316   0.23375   0.00000  Uiso   1.00
O446   O     0.10456   0.44843   0.76311   0.00000  Uiso   1.00
O447   O     0.40587   0.35302   0.17923   0.00000  Uiso   1.00
O448   O     0.25000   0.03037   0.66245   0.00000  Uiso   1.00
O449   O     0.09551   0.14824   0.82077   0.00000  Uiso   1.00
O450   O     0.14795   0.09398   0.82000   0.00000  Uiso   1.00
O451   O     0.35450   0.40852   0.18025   0.00000  Uiso   1.00
O452   O     0.05244   0.39380   0.76765   0.00000  Uiso   1.00
O453   O     0.44733   0.10605   0.23652   0.00000  Uiso   1.00
O454   O     0.35257   0.40651   0.81998   0.00000  Uiso   1.00
O455   O     0.14538   0.09147   0.18025   0.00000  Uiso   1.00
O456   O     0.44690   0.10641   0.77273   0.00000  Uiso   1.00
O457   O     0.05267   0.39394   0.23647   0.00000  Uiso   1.00
O458   O     0.36330   0.18874   0.70645   0.00000  Uiso   1.00
O459   O     0.03037   0.25000   0.33755   0.00000  Uiso   1.00
O460   O     0.14553   0.30152   0.26232   0.00000  Uiso   1.00
O461   O     0.34541   0.39847   0.67912   0.00000  Uiso   1.00
O462   O     0.15515   0.10235   0.32072   0.00000  Uiso   1.00
O463   O     0.14368   0.30341   0.73253   0.00000  Uiso   1.00
O464   O     0.35448   0.19849   0.26223   0.00000  Uiso   1.00
O465   O     0.15530   0.10256   0.67916   0.00000  Uiso   1.00
O466   O     0.34493   0.39761   0.32071   0.00000  Uiso   1.00
O467   O     0.39732   0.34328   0.31991   0.00000  Uiso   1.00
O468   O     0.10257   0.15664   0.67991   0.00000  Uiso   1.00
O469   O     0.30231   0.14393   0.26666   0.00000  Uiso   1.00
O470   O     0.46964   0.25000   0.66245   0.00000  Uiso   1.00
O471   O     0.19716   0.35615   0.73579   0.00000  Uiso   1.00
O472   O     0.10280   0.15672   0.31991   0.00000  Uiso   1.00
O473   O     0.39610   0.34226   0.68013   0.00000  Uiso   1.00
O474   O     0.19772   0.35608   0.26669   0.00000  Uiso   1.00
O475   O     0.30588   0.14186   0.72413   0.00000  Uiso   1.00
O476   O     0.25000   0.03037   0.33755   0.00000  Uiso   1.00
Zn477  Zn    0.20660   0.00000   0.21735   0.00000  Uiso   1.00
Zn478  Zn    0.04341   0.25000   0.28265   0.00000  Uiso   1.00
Zn479  Zn    0.25000   0.45659   0.71735   0.00000  Uiso   1.00
Zn480  Zn    0.25000   0.04341   0.28265   0.00000  Uiso   1.00
Zn481  Zn    0.04341   0.25000   0.71735   0.00000  Uiso   1.00
Zn482  Zn    0.45660   0.25000   0.28265   0.00000  Uiso   1.00
Zn483  Zn    0.25000   0.04341   0.71735   0.00000  Uiso   1.00
Zn484  Zn    0.25000   0.45659   0.28265   0.00000  Uiso   1.00
Zn485  Zn    0.29341   0.00000   0.78265   0.00000  Uiso   1.00
Zn486  Zn    0.00000   0.20660   0.21735   0.00000  Uiso   1.00
Zn487  Zn    0.00000   0.29341   0.78265   0.00000  Uiso   1.00
Zn488  Zn    0.29341   0.00000   0.21735   0.00000  Uiso   1.00
Zn489  Zn    0.20660   0.00000   0.78265   0.00000  Uiso   1.00
Zn490  Zn    0.00000   0.29341   0.21735   0.00000  Uiso   1.00
Zn491  Zn    0.00000   0.20660   0.78265   0.00000  Uiso   1.00
Zn492  Zn    0.45660   0.25000   0.71735   0.00000  Uiso   1.00
C493   C     0.53322   0.25013   0.41883   0.00000  Uiso   1.00
C494   C     0.71679   0.49913   0.08118   0.00000  Uiso   1.00
C495   C     0.75000   0.46659   0.54073   0.00000  Uiso   1.00
C496   C     0.53345   0.25005   0.45932   0.00000  Uiso   1.00
C497   C     0.96656   0.24961   0.54071   0.00000  Uiso   1.00
C498   C     0.74999   0.46658   0.45929   0.00000  Uiso   1.00
C499   C     0.75035   0.03347   0.54073   0.00000  Uiso   1.00
C500   C     0.71657   0.49930   0.95925   0.00000  Uiso   1.00
C501   C     0.78342   0.00079   0.04076   0.00000  Uiso   1.00
C502   C     0.50044   0.28343   0.95927   0.00000  Uiso   1.00
C503   C     0.99954   0.21657   0.04072   0.00000  Uiso   1.00
C504   C     0.78344   0.00070   0.95931   0.00000  Uiso   1.00
C505   C     0.99965   0.21680   0.91879   0.00000  Uiso   1.00
C506   C     0.71656   0.49922   0.04070   0.00000  Uiso   1.00
C507   C     0.99966   0.21656   0.95928   0.00000  Uiso   1.00
C508   C     0.50051   0.28343   0.04071   0.00000  Uiso   1.00
C509   C     0.59866   0.34737   0.24852   0.00000  Uiso   1.00
C510   C     0.90415   0.14938   0.74412   0.00000  Uiso   1.00
C511   C     0.65152   0.09767   0.25003   0.00000  Uiso   1.00
C512   C     0.84853   0.40242   0.74983   0.00000  Uiso   1.00
C513   C     0.90135   0.15263   0.24850   0.00000  Uiso   1.00
C514   C     0.59765   0.34877   0.74864   0.00000  Uiso   1.00
C515   C     0.84846   0.40231   0.25003   0.00000  Uiso   1.00
C516   C     0.50061   0.28319   0.08120   0.00000  Uiso   1.00
C517   C     0.65163   0.09777   0.74980   0.00000  Uiso   1.00
C518   C     0.59830   0.15218   0.75001   0.00000  Uiso   1.00
C519   C     0.90160   0.34772   0.24980   0.00000  Uiso   1.00
C520   C     0.65129   0.40268   0.74845   0.00000  Uiso   1.00
C521   C     0.84771   0.09871   0.24871   0.00000  Uiso   1.00
C522   C     0.90159   0.34776   0.75003   0.00000  Uiso   1.00
C523   C     0.59842   0.15230   0.24980   0.00000  Uiso   1.00
C524   C     0.84977   0.09631   0.74574   0.00000  Uiso   1.00
C525   C     0.65230   0.40129   0.24869   0.00000  Uiso   1.00
C526   C     0.50000   0.24983   0.47964   0.00000  Uiso   1.00
C527   C     0.71682   0.49930   0.91876   0.00000  Uiso   1.00
C528   C     0.50000   0.24982   0.52039   0.00000  Uiso   1.00
C529   C     0.75014   0.00002   0.47964   0.00000  Uiso   1.00
C530   C     0.75017   0.00003   0.52038   0.00000  Uiso   1.00
C531   C     0.75000   0.00000   0.97963   0.00000  Uiso   1.00
C532   C     0.75000   0.00001   0.02038   0.00000  Uiso   1.00
C533   C     0.50005   0.25000   0.97962   0.00000  Uiso   1.00
C534   C     0.50003   0.25000   0.02037   0.00000  Uiso   1.00
C535   C     0.59920   0.45241   0.19369   0.00000  Uiso   1.00
C536   C     0.59334   0.49298   0.18638   0.00000  Uiso   1.00
C537   C     0.89774   0.02801   0.73683   0.00000  Uiso   1.00
C538   C     0.78318   0.00089   0.08124   0.00000  Uiso   1.00
C539   C     0.91290   0.49140   0.75046   0.00000  Uiso   1.00
C540   C     0.60839   0.18093   0.16688   0.00000  Uiso   1.00
C541   C     0.59522   0.18877   0.12581   0.00000  Uiso   1.00
C542   C     0.89041   0.31813   0.83221   0.00000  Uiso   1.00
C543   C     0.90098   0.31071   0.87423   0.00000  Uiso   1.00
C544   C     0.90077   0.04755   0.19379   0.00000  Uiso   1.00
C545   C     0.90665   0.00698   0.18652   0.00000  Uiso   1.00
C546   C     0.60373   0.46928   0.72845   0.00000  Uiso   1.00
C547   C     0.58643   0.00631   0.73694   0.00000  Uiso   1.00
C548   C     0.89156   0.31912   0.16686   0.00000  Uiso   1.00
C549   C     0.50046   0.28320   0.91879   0.00000  Uiso   1.00
C550   C     0.90472   0.31131   0.12579   0.00000  Uiso   1.00
C551   C     0.61010   0.18244   0.83182   0.00000  Uiso   1.00
C552   C     0.60013   0.19000   0.87395   0.00000  Uiso   1.00
C553   C     0.67646   0.11464   0.83686   0.00000  Uiso   1.00
C554   C     0.70490   0.08894   0.85410   0.00000  Uiso   1.00
C555   C     0.82866   0.38777   0.15922   0.00000  Uiso   1.00
C556   C     0.79904   0.41294   0.14345   0.00000  Uiso   1.00
C557   C     0.53313   0.41089   0.73698   0.00000  Uiso   1.00
C558   C     0.99337   0.39929   0.73822   0.00000  Uiso   1.00
C559   C     0.96209   0.09516   0.27263   0.00000  Uiso   1.00
C560   C     0.99940   0.21681   0.08120   0.00000  Uiso   1.00
C561   C     0.50165   0.08354   0.26685   0.00000  Uiso   1.00
C562   C     0.82467   0.38561   0.83760   0.00000  Uiso   1.00
C563   C     0.79507   0.41095   0.85313   0.00000  Uiso   1.00
C564   C     0.67119   0.11222   0.15921   0.00000  Uiso   1.00
C565   C     0.70076   0.08703   0.14341   0.00000  Uiso   1.00
C566   C     0.96825   0.08659   0.74560   0.00000  Uiso   1.00
C567   C     0.50744   0.09996   0.74692   0.00000  Uiso   1.00
C568   C     0.53793   0.40485   0.27256   0.00000  Uiso   1.00
C569   C     0.99837   0.41647   0.26674   0.00000  Uiso   1.00
C570   C     0.87676   0.18609   0.66786   0.00000  Uiso   1.00
C571   C     0.50001   0.24994   0.39847   0.00000  Uiso   1.00
C572   C     0.87158   0.22262   0.64751   0.00000  Uiso   1.00
C573   C     0.64600   0.28098   0.22745   0.00000  Uiso   1.00
C574   C     0.66352   0.24394   0.23535   0.00000  Uiso   1.00
C575   C     0.86009   0.43261   0.66803   0.00000  Uiso   1.00
C576   C     0.84793   0.44140   0.62682   0.00000  Uiso   1.00
C577   C     0.64058   0.06830   0.33228   0.00000  Uiso   1.00
C578   C     0.65120   0.06097   0.37430   0.00000  Uiso   1.00
C579   C     0.65007   0.29835   0.69239   0.00000  Uiso   1.00
C580   C     0.65545   0.25784   0.68433   0.00000  Uiso   1.00
C581   C     0.85399   0.21900   0.22734   0.00000  Uiso   1.00
C582   C     0.99999   0.24991   0.60155   0.00000  Uiso   1.00
C583   C     0.83647   0.25605   0.23518   0.00000  Uiso   1.00
C584   C     0.64103   0.06859   0.66704   0.00000  Uiso   1.00
C585   C     0.65375   0.06082   0.62582   0.00000  Uiso   1.00
C586   C     0.85949   0.43165   0.33230   0.00000  Uiso   1.00
C587   C     0.84892   0.43896   0.37432   0.00000  Uiso   1.00
C588   C     0.92513   0.36418   0.33773   0.00000  Uiso   1.00
C589   C     0.95477   0.33887   0.35328   0.00000  Uiso   1.00
C590   C     0.57499   0.13581   0.66159   0.00000  Uiso   1.00
C591   C     0.54508   0.16114   0.64668   0.00000  Uiso   1.00
C592   C     0.78331   0.16039   0.23539   0.00000  Uiso   1.00
C593   C     0.75005   0.00001   0.39847   0.00000  Uiso   1.00
C594   C     0.74359   0.14865   0.23631   0.00000  Uiso   1.00
C595   C     0.71205   0.34505   0.77177   0.00000  Uiso   1.00
C596   C     0.75169   0.33383   0.76584   0.00000  Uiso   1.00
C597   C     0.57502   0.13582   0.33775   0.00000  Uiso   1.00
C598   C     0.54542   0.16113   0.35331   0.00000  Uiso   1.00
C599   C     0.92226   0.36308   0.65967   0.00000  Uiso   1.00
C600   C     0.95156   0.33779   0.64347   0.00000  Uiso   1.00
C601   C     0.71667   0.33960   0.23544   0.00000  Uiso   1.00
C602   C     0.75639   0.35136   0.23635   0.00000  Uiso   1.00
C603   C     0.79738   0.14543   0.68419   0.00000  Uiso   1.00
C604   C     0.96680   0.24961   0.58120   0.00000  Uiso   1.00
C605   C     0.75011   0.00002   0.60155   0.00000  Uiso   1.00
C606   C     0.75662   0.13976   0.67802   0.00000  Uiso   1.00
C607   C     0.75002   0.49999   0.89846   0.00000  Uiso   1.00
C608   C     0.74998   0.00001   0.10154   0.00000  Uiso   1.00
C609   C     0.50004   0.25000   0.89846   0.00000  Uiso   1.00
C610   C     0.50000   0.25000   0.10154   0.00000  Uiso   1.00
C611   C     0.93347   0.24946   0.47971   0.00000  Uiso   1.00
C612   C     0.56653   0.25020   0.52033   0.00000  Uiso   1.00
C613   C     0.75040   0.06655   0.47974   0.00000  Uiso   1.00
C614   C     0.74990   0.43350   0.52027   0.00000  Uiso   1.00
C615   C     0.56653   0.25020   0.47982   0.00000  Uiso   1.00
C616   C     0.74989   0.46681   0.41881   0.00000  Uiso   1.00
C617   C     0.93347   0.24942   0.52023   0.00000  Uiso   1.00
C618   C     0.74991   0.43350   0.47976   0.00000  Uiso   1.00
C619   C     0.75046   0.06655   0.52026   0.00000  Uiso   1.00
C620   C     0.68349   0.49859   0.97968   0.00000  Uiso   1.00
C621   C     0.81651   0.00148   0.02033   0.00000  Uiso   1.00
C622   C     0.50083   0.31651   0.97973   0.00000  Uiso   1.00
C623   C     0.99918   0.18349   0.02026   0.00000  Uiso   1.00
C624   C     0.81652   0.00141   0.97981   0.00000  Uiso   1.00
C625   C     0.68349   0.49853   0.02020   0.00000  Uiso   1.00
C626   C     0.99927   0.18348   0.97975   0.00000  Uiso   1.00
C627   C     0.75043   0.03323   0.58122   0.00000  Uiso   1.00
C628   C     0.50089   0.31651   0.02024   0.00000  Uiso   1.00
C629   C     0.75001   0.00000   0.35599   0.00000  Uiso   1.00
C630   C     0.75003   0.00001   0.64401   0.00000  Uiso   1.00
C631   C     0.50001   0.24999   0.35599   0.00000  Uiso   1.00
C632   C     0.99999   0.24998   0.64401   0.00000  Uiso   1.00
C633   C     0.50001   0.25000   0.85599   0.00000  Uiso   1.00
C634   C     0.50000   0.25000   0.14401   0.00000  Uiso   1.00
C635   C     0.75001   0.49999   0.85599   0.00000  Uiso   1.00
C636   C     0.74999   0.00000   0.14401   0.00000  Uiso   1.00
C637   C     0.68007   0.07009   0.24977   0.00000  Uiso   1.00
C638   C     0.96680   0.24968   0.41878   0.00000  Uiso   1.00
C639   C     0.81993   0.42993   0.75019   0.00000  Uiso   1.00
C640   C     0.92995   0.18004   0.24989   0.00000  Uiso   1.00
C641   C     0.56996   0.32020   0.74977   0.00000  Uiso   1.00
C642   C     0.81991   0.42991   0.24977   0.00000  Uiso   1.00
C643   C     0.68010   0.07010   0.75017   0.00000  Uiso   1.00
C644   C     0.57006   0.31997   0.24990   0.00000  Uiso   1.00
C645   C     0.93057   0.17920   0.74863   0.00000  Uiso   1.00
C646   C     0.67993   0.43006   0.74987   0.00000  Uiso   1.00
C647   C     0.81997   0.07018   0.24980   0.00000  Uiso   1.00
C648   C     0.93008   0.32010   0.74977   0.00000  Uiso   1.00
C649   C     0.53320   0.25013   0.58125   0.00000  Uiso   1.00
C650   C     0.56992   0.17992   0.25017   0.00000  Uiso   1.00
C651   C     0.82021   0.06992   0.74959   0.00000  Uiso   1.00
C652   C     0.68002   0.42982   0.24979   0.00000  Uiso   1.00
C653   C     0.56987   0.17988   0.74976   0.00000  Uiso   1.00
C654   C     0.93009   0.32008   0.25017   0.00000  Uiso   1.00
C655   C     0.61594   0.41068   0.23960   0.00000  Uiso   1.00
C656   C     0.88593   0.08669   0.75618   0.00000  Uiso   1.00
C657   C     0.60997   0.13700   0.21424   0.00000  Uiso   1.00
C658   C     0.88975   0.36279   0.78560   0.00000  Uiso   1.00
C659   C     0.88406   0.08932   0.23965   0.00000  Uiso   1.00
C660   C     0.75027   0.03322   0.41879   0.00000  Uiso   1.00
C661   C     0.61445   0.41270   0.75467   0.00000  Uiso   1.00
C662   C     0.89000   0.36302   0.21424   0.00000  Uiso   1.00
C663   C     0.61047   0.13743   0.78559   0.00000  Uiso   1.00
C664   C     0.63691   0.10985   0.78535   0.00000  Uiso   1.00
C665   C     0.86383   0.39090   0.21453   0.00000  Uiso   1.00
C666   C     0.58778   0.38537   0.75618   0.00000  Uiso   1.00
C667   C     0.91113   0.11596   0.24182   0.00000  Uiso   1.00
C668   C     0.86336   0.39041   0.78536   0.00000  Uiso   1.00
C669   C     0.63611   0.10909   0.21453   0.00000  Uiso   1.00
C670   C     0.91269   0.11392   0.75733   0.00000  Uiso   1.00
C671   C     0.74989   0.46682   0.58121   0.00000  Uiso   1.00
C672   C     0.58887   0.38403   0.24179   0.00000  Uiso   1.00
C673   C     0.87028   0.15611   0.72539   0.00000  Uiso   1.00
C674   C     0.63555   0.33732   0.25434   0.00000  Uiso   1.00
C675   C     0.86054   0.38761   0.71423   0.00000  Uiso   1.00
C676   C     0.63984   0.11287   0.28557   0.00000  Uiso   1.00
C677   C     0.63391   0.33948   0.73908   0.00000  Uiso   1.00
C678   C     0.86446   0.16268   0.25430   0.00000  Uiso   1.00
C679   C     0.63960   0.11267   0.71421   0.00000  Uiso   1.00
C680   C     0.86019   0.38710   0.28557   0.00000  Uiso   1.00
C681   C     0.88658   0.35948   0.28531   0.00000  Uiso   1.00
C682   C     0.78321   0.00069   0.91882   0.00000  Uiso   1.00
C683   C     0.61311   0.14022   0.71445   0.00000  Uiso   1.00
C684   C     0.83778   0.13537   0.25579   0.00000  Uiso   1.00
C685   C     0.66100   0.36608   0.74133   0.00000  Uiso   1.00
C686   C     0.61348   0.14052   0.28531   0.00000  Uiso   1.00
C687   C     0.88655   0.35958   0.71449   0.00000  Uiso   1.00
C688   C     0.66223   0.36463   0.25580   0.00000  Uiso   1.00
C689   C     0.84200   0.13088   0.72947   0.00000  Uiso   1.00
C690   C     0.96656   0.24966   0.45927   0.00000  Uiso   1.00
C691   C     0.53344   0.25004   0.54077   0.00000  Uiso   1.00
C692   C     0.75027   0.03346   0.45928   0.00000  Uiso   1.00
H693   H     0.90762   0.24932   0.46437   0.00000  Uiso   1.00
H694   H     0.84234   0.00206   0.03568   0.00000  Uiso   1.00
H695   H     0.68826   0.06485   0.12600   0.00000  Uiso   1.00
H696   H     0.71966   0.10271   0.12460   0.00000  Uiso   1.00
H697   H     0.71664   0.07500   0.16777   0.00000  Uiso   1.00
H698   H     0.95863   0.08917   0.71489   0.00000  Uiso   1.00
H699   H     0.96831   0.05732   0.75393   0.00000  Uiso   1.00
H700   H     0.51750   0.10072   0.77736   0.00000  Uiso   1.00
H701   H     0.52522   0.08131   0.72982   0.00000  Uiso   1.00
H702   H     0.50883   0.12766   0.73402   0.00000  Uiso   1.00
H703   H     0.55312   0.42850   0.28478   0.00000  Uiso   1.00
H704   H     0.53859   0.38188   0.29378   0.00000  Uiso   1.00
H705   H     0.50111   0.34235   0.96441   0.00000  Uiso   1.00
H706   H     0.98205   0.39305   0.25605   0.00000  Uiso   1.00
H707   H     0.98679   0.42610   0.29474   0.00000  Uiso   1.00
H708   H     0.99677   0.43905   0.24527   0.00000  Uiso   1.00
H709   H     0.86206   0.16488   0.65102   0.00000  Uiso   1.00
H710   H     0.90632   0.17888   0.66696   0.00000  Uiso   1.00
H711   H     0.88745   0.24410   0.66271   0.00000  Uiso   1.00
H712   H     0.84223   0.23039   0.64745   0.00000  Uiso   1.00
H713   H     0.88123   0.22060   0.61701   0.00000  Uiso   1.00
H714   H     0.66186   0.29481   0.20417   0.00000  Uiso   1.00
H715   H     0.61794   0.27618   0.21639   0.00000  Uiso   1.00
H716   H     0.99885   0.15765   0.03559   0.00000  Uiso   1.00
H717   H     0.64673   0.22832   0.25637   0.00000  Uiso   1.00
H718   H     0.69137   0.24746   0.24750   0.00000  Uiso   1.00
H719   H     0.66563   0.22820   0.20790   0.00000  Uiso   1.00
H720   H     0.89047   0.43244   0.66879   0.00000  Uiso   1.00
H721   H     0.85017   0.45493   0.68720   0.00000  Uiso   1.00
H722   H     0.81767   0.44246   0.62535   0.00000  Uiso   1.00
H723   H     0.85895   0.46831   0.61788   0.00000  Uiso   1.00
H724   H     0.85809   0.42014   0.60647   0.00000  Uiso   1.00
H725   H     0.65179   0.04568   0.31436   0.00000  Uiso   1.00
H726   H     0.61026   0.06774   0.33006   0.00000  Uiso   1.00
H727   H     0.84236   0.00194   0.96452   0.00000  Uiso   1.00
H728   H     0.63993   0.08269   0.39341   0.00000  Uiso   1.00
H729   H     0.64021   0.03418   0.38369   0.00000  Uiso   1.00
H730   H     0.68140   0.06042   0.37717   0.00000  Uiso   1.00
H731   H     0.67516   0.31289   0.68303   0.00000  Uiso   1.00
H732   H     0.62650   0.30816   0.67464   0.00000  Uiso   1.00
H733   H     0.63053   0.24255   0.69257   0.00000  Uiso   1.00
H734   H     0.67902   0.24721   0.70129   0.00000  Uiso   1.00
H735   H     0.66081   0.25352   0.65291   0.00000  Uiso   1.00
H736   H     0.83810   0.20515   0.20407   0.00000  Uiso   1.00
H737   H     0.88204   0.22378   0.21629   0.00000  Uiso   1.00
H738   H     0.65764   0.49795   0.03550   0.00000  Uiso   1.00
H739   H     0.85329   0.27168   0.25620   0.00000  Uiso   1.00
H740   H     0.83434   0.27176   0.20772   0.00000  Uiso   1.00
H741   H     0.80864   0.25255   0.24733   0.00000  Uiso   1.00
H742   H     0.61067   0.06855   0.66729   0.00000  Uiso   1.00
H743   H     0.65091   0.04596   0.68584   0.00000  Uiso   1.00
H744   H     0.68403   0.06023   0.62476   0.00000  Uiso   1.00
H745   H     0.64322   0.03394   0.61610   0.00000  Uiso   1.00
H746   H     0.64349   0.08236   0.60584   0.00000  Uiso   1.00
H747   H     0.84826   0.45428   0.31438   0.00000  Uiso   1.00
H748   H     0.88981   0.43222   0.33009   0.00000  Uiso   1.00
H749   H     0.99900   0.15764   0.96443   0.00000  Uiso   1.00
H750   H     0.86022   0.41723   0.39342   0.00000  Uiso   1.00
H751   H     0.85991   0.46574   0.38373   0.00000  Uiso   1.00
H752   H     0.81873   0.43950   0.37718   0.00000  Uiso   1.00
H753   H     0.91319   0.37921   0.36271   0.00000  Uiso   1.00
H754   H     0.93844   0.38435   0.31804   0.00000  Uiso   1.00
H755   H     0.94261   0.31803   0.37272   0.00000  Uiso   1.00
H756   H     0.96897   0.32512   0.32882   0.00000  Uiso   1.00
H757   H     0.97512   0.35488   0.36997   0.00000  Uiso   1.00
H758   H     0.56194   0.11501   0.68074   0.00000  Uiso   1.00
H759   H     0.58712   0.12151   0.63622   0.00000  Uiso   1.00
H760   H     0.50121   0.34235   0.03557   0.00000  Uiso   1.00
H761   H     0.55701   0.18242   0.62761   0.00000  Uiso   1.00
H762   H     0.52481   0.14527   0.62974   0.00000  Uiso   1.00
H763   H     0.53086   0.17436   0.67146   0.00000  Uiso   1.00
H764   H     0.79455   0.15318   0.20619   0.00000  Uiso   1.00
H765   H     0.78385   0.19045   0.23909   0.00000  Uiso   1.00
H766   H     0.72754   0.16556   0.21562   0.00000  Uiso   1.00
H767   H     0.74153   0.11956   0.22764   0.00000  Uiso   1.00
H768   H     0.73204   0.15232   0.26589   0.00000  Uiso   1.00
H769   H     0.69707   0.32117   0.78374   0.00000  Uiso   1.00
H770   H     0.71124   0.36782   0.79324   0.00000  Uiso   1.00
H771   H     0.55892   0.25034   0.40322   0.00000  Uiso   1.00
H772   H     0.76782   0.35751   0.75548   0.00000  Uiso   1.00
H773   H     0.76337   0.32396   0.79372   0.00000  Uiso   1.00
H774   H     0.75346   0.31152   0.74407   0.00000  Uiso   1.00
H775   H     0.58701   0.12079   0.36272   0.00000  Uiso   1.00
H776   H     0.56168   0.11566   0.31806   0.00000  Uiso   1.00
H777   H     0.53116   0.17489   0.32886   0.00000  Uiso   1.00
H778   H     0.52510   0.14512   0.37002   0.00000  Uiso   1.00
H779   H     0.55761   0.18197   0.37275   0.00000  Uiso   1.00
H780   H     0.93612   0.38424   0.67761   0.00000  Uiso   1.00
H781   H     0.90854   0.37684   0.63487   0.00000  Uiso   1.00
H782   H     0.94111   0.24944   0.59681   0.00000  Uiso   1.00
H783   H     0.93884   0.31610   0.62554   0.00000  Uiso   1.00
H784   H     0.97075   0.35356   0.62509   0.00000  Uiso   1.00
H785   H     0.96716   0.32510   0.66765   0.00000  Uiso   1.00
H786   H     0.70539   0.34678   0.20624   0.00000  Uiso   1.00
H787   H     0.71615   0.30954   0.23917   0.00000  Uiso   1.00
H788   H     0.77242   0.33444   0.21568   0.00000  Uiso   1.00
H789   H     0.75842   0.38044   0.22764   0.00000  Uiso   1.00
H790   H     0.76798   0.34772   0.26594   0.00000  Uiso   1.00
H791   H     0.81229   0.12528   0.66568   0.00000  Uiso   1.00
H792   H     0.80336   0.17364   0.67452   0.00000  Uiso   1.00
H793   H     0.74971   0.44111   0.40318   0.00000  Uiso   1.00
H794   H     0.74065   0.15731   0.69819   0.00000  Uiso   1.00
H795   H     0.74919   0.14695   0.64768   0.00000  Uiso   1.00
H796   H     0.74946   0.11079   0.68290   0.00000  Uiso   1.00
H797   H     0.59238   0.25034   0.53568   0.00000  Uiso   1.00
H798   H     0.75069   0.05893   0.59685   0.00000  Uiso   1.00
H799   H     0.94110   0.24951   0.40312   0.00000  Uiso   1.00
H800   H     0.55891   0.25036   0.59691   0.00000  Uiso   1.00
H801   H     0.75042   0.05891   0.40316   0.00000  Uiso   1.00
H802   H     0.74965   0.44112   0.59684   0.00000  Uiso   1.00
H803   H     0.80891   0.00123   0.90321   0.00000  Uiso   1.00
H804   H     0.69110   0.49838   0.09680   0.00000  Uiso   1.00
H805   H     0.99933   0.19110   0.90316   0.00000  Uiso   1.00
H806   H     0.50115   0.30889   0.09682   0.00000  Uiso   1.00
H807   H     0.69112   0.49876   0.90310   0.00000  Uiso   1.00
H808   H     0.75047   0.09239   0.46442   0.00000  Uiso   1.00
H809   H     0.80887   0.00163   0.09690   0.00000  Uiso   1.00
H810   H     0.50080   0.30889   0.90315   0.00000  Uiso   1.00
H811   H     0.99886   0.19111   0.09683   0.00000  Uiso   1.00
H812   H     0.57416   0.43777   0.18435   0.00000  Uiso   1.00
H813   H     0.62268   0.44309   0.17553   0.00000  Uiso   1.00
H814   H     0.61818   0.00840   0.19464   0.00000  Uiso   1.00
H815   H     0.56983   0.00311   0.20375   0.00000  Uiso   1.00
H816   H     0.58761   0.49774   0.15509   0.00000  Uiso   1.00
H817   H     0.91632   0.03897   0.71413   0.00000  Uiso   1.00
H818   H     0.87072   0.02306   0.72317   0.00000  Uiso   1.00
H819   H     0.74981   0.40766   0.53560   0.00000  Uiso   1.00
H820   H     0.91488   0.47226   0.72554   0.00000  Uiso   1.00
H821   H     0.89465   0.47943   0.77278   0.00000  Uiso   1.00
H822   H     0.94052   0.49501   0.76317   0.00000  Uiso   1.00
H823   H     0.63875   0.18079   0.16675   0.00000  Uiso   1.00
H824   H     0.59890   0.20365   0.18576   0.00000  Uiso   1.00
H825   H     0.56494   0.18957   0.12513   0.00000  Uiso   1.00
H826   H     0.60582   0.21557   0.11594   0.00000  Uiso   1.00
H827   H     0.60507   0.16716   0.10571   0.00000  Uiso   1.00
H828   H     0.90164   0.29555   0.81425   0.00000  Uiso   1.00
H829   H     0.86009   0.31759   0.82995   0.00000  Uiso   1.00
H830   H     0.59238   0.25034   0.46452   0.00000  Uiso   1.00
H831   H     0.88969   0.33240   0.89337   0.00000  Uiso   1.00
H832   H     0.88998   0.28391   0.88355   0.00000  Uiso   1.00
H833   H     0.93118   0.31015   0.87714   0.00000  Uiso   1.00
H834   H     0.92582   0.06219   0.18446   0.00000  Uiso   1.00
H835   H     0.87730   0.05685   0.17560   0.00000  Uiso   1.00
H836   H     0.88181   0.49156   0.19477   0.00000  Uiso   1.00
H837   H     0.93015   0.49686   0.20395   0.00000  Uiso   1.00
H838   H     0.91237   0.00220   0.15525   0.00000  Uiso   1.00
H839   H     0.58753   0.45572   0.70524   0.00000  Uiso   1.00
H840   H     0.63166   0.47409   0.71708   0.00000  Uiso   1.00
H841   H     0.90762   0.24926   0.53554   0.00000  Uiso   1.00
H842   H     0.60351   0.02166   0.75795   0.00000  Uiso   1.00
H843   H     0.58407   0.02233   0.70970   0.00000  Uiso   1.00
H844   H     0.55871   0.00278   0.74937   0.00000  Uiso   1.00
H845   H     0.86120   0.31926   0.16668   0.00000  Uiso   1.00
H846   H     0.90107   0.29640   0.18573   0.00000  Uiso   1.00
H847   H     0.93501   0.31051   0.12515   0.00000  Uiso   1.00
H848   H     0.89413   0.28451   0.11590   0.00000  Uiso   1.00
H849   H     0.89487   0.33293   0.10569   0.00000  Uiso   1.00
H850   H     0.59848   0.20487   0.81391   0.00000  Uiso   1.00
H851   H     0.64039   0.18312   0.82906   0.00000  Uiso   1.00
H852   H     0.74982   0.40766   0.46444   0.00000  Uiso   1.00
H853   H     0.61178   0.16844   0.89303   0.00000  Uiso   1.00
H854   H     0.61118   0.21688   0.88296   0.00000  Uiso   1.00
H855   H     0.56998   0.19048   0.87732   0.00000  Uiso   1.00
H856   H     0.66501   0.13135   0.86087   0.00000  Uiso   1.00
H857   H     0.69073   0.13319   0.81609   0.00000  Uiso   1.00
H858   H     0.71888   0.07369   0.83052   0.00000  Uiso   1.00
H859   H     0.72562   0.10486   0.87037   0.00000  Uiso   1.00
H860   H     0.69172   0.06937   0.87429   0.00000  Uiso   1.00
H861   H     0.81506   0.36604   0.17660   0.00000  Uiso   1.00
H862   H     0.84261   0.37471   0.13416   0.00000  Uiso   1.00
H863   H     0.75057   0.09239   0.53558   0.00000  Uiso   1.00
H864   H     0.81150   0.43512   0.12601   0.00000  Uiso   1.00
H865   H     0.78010   0.39725   0.12466   0.00000  Uiso   1.00
H866   H     0.78322   0.42496   0.16782   0.00000  Uiso   1.00
H867   H     0.54398   0.40413   0.70750   0.00000  Uiso   1.00
H868   H     0.53383   0.44088   0.74127   0.00000  Uiso   1.00
H869   H     0.97710   0.41670   0.71820   0.00000  Uiso   1.00
H870   H     0.99110   0.37041   0.72887   0.00000  Uiso   1.00
H871   H     0.98224   0.40236   0.76806   0.00000  Uiso   1.00
H872   H     0.94692   0.07152   0.28486   0.00000  Uiso   1.00
H873   H     0.96145   0.11814   0.29384   0.00000  Uiso   1.00
H874   H     0.65765   0.49806   0.96434   0.00000  Uiso   1.00
H875   H     0.51796   0.10696   0.25615   0.00000  Uiso   1.00
H876   H     0.51326   0.07392   0.29486   0.00000  Uiso   1.00
H877   H     0.50323   0.06094   0.24539   0.00000  Uiso   1.00
H878   H     0.83653   0.37047   0.86257   0.00000  Uiso   1.00
H879   H     0.81137   0.36555   0.81778   0.00000  Uiso   1.00
H880   H     0.78095   0.42482   0.82866   0.00000  Uiso   1.00
H881   H     0.77465   0.39494   0.86969   0.00000  Uiso   1.00
H882   H     0.80724   0.43170   0.87270   0.00000  Uiso   1.00
H883   H     0.68484   0.13392   0.17659   0.00000  Uiso   1.00
H884   H     0.65719   0.12529   0.13416   0.00000  Uiso   1.00
O885   O     0.75000   0.00000   0.25000   0.00000  Uiso   1.00
O886   O     0.75000   0.46963   0.66245   0.00000  Uiso   1.00
O887   O     0.96964   0.25000   0.33755   0.00000  Uiso   1.00
O888   O     0.53037   0.25000   0.66245   0.00000  Uiso   1.00
O889   O     0.50000   0.21964   0.83755   0.00000  Uiso   1.00
O890   O     0.50000   0.28037   0.16245   0.00000  Uiso   1.00
O891   O     0.78037  -0.00000   0.83755   0.00000  Uiso   1.00
O892   O     0.71964  -0.00000   0.16245   0.00000  Uiso   1.00
O893   O     0.50000   0.28037   0.83755   0.00000  Uiso   1.00
O894   O     0.50000   0.21964   0.16245   0.00000  Uiso   1.00
O895   O     0.71964  -0.00000   0.83755   0.00000  Uiso   1.00
O896   O     0.75000   0.00000   0.75000   0.00000  Uiso   1.00
O897   O     0.78037  -0.00000   0.16245   0.00000  Uiso   1.00
O898   O     0.70725   0.07308   0.27302   0.00000  Uiso   1.00
O899   O     0.79276   0.42692   0.72698   0.00000  Uiso   1.00
O900   O     0.92693   0.20725   0.27302   0.00000  Uiso   1.00
O901   O     0.57308   0.29275   0.72698   0.00000  Uiso   1.00
O902   O     0.79276   0.42692   0.27302   0.00000  Uiso   1.00
O903   O     0.70725   0.07308   0.72698   0.00000  Uiso   1.00
O904   O     0.57308   0.29275   0.27302   0.00000  Uiso   1.00
O905   O     0.92693   0.20725   0.72698   0.00000  Uiso   1.00
O906   O     0.70725   0.42692   0.72698   0.00000  Uiso   1.00
O907   O     0.50000   0.25000   0.25000   0.00000  Uiso   1.00
O908   O     0.79276   0.07308   0.27302   0.00000  Uiso   1.00
O909   O     0.92693   0.29276   0.72698   0.00000  Uiso   1.00
O910   O     0.57308   0.20724   0.27302   0.00000  Uiso   1.00
O911   O     0.79276   0.07308   0.72698   0.00000  Uiso   1.00
O912   O     0.70725   0.42692   0.27302   0.00000  Uiso   1.00
O913   O     0.57308   0.20724   0.72698   0.00000  Uiso   1.00
O914   O     0.92693   0.29276   0.27302   0.00000  Uiso   1.00
O915   O     0.95725   0.32308   0.77302   0.00000  Uiso   1.00
O916   O     0.54276   0.17692   0.22698   0.00000  Uiso   1.00
O917   O     0.67693   0.45724   0.77302   0.00000  Uiso   1.00
O918   O     0.50000   0.25000   0.75000   0.00000  Uiso   1.00
O919   O     0.82308   0.04276   0.22698   0.00000  Uiso   1.00
O920   O     0.54276   0.17692   0.77302   0.00000  Uiso   1.00
O921   O     0.95725   0.32308   0.22698   0.00000  Uiso   1.00
O922   O     0.82308   0.04276   0.77302   0.00000  Uiso   1.00
O923   O     0.67693   0.45724   0.22698   0.00000  Uiso   1.00
O924   O     0.95725   0.17693   0.22698   0.00000  Uiso   1.00
O925   O     0.54276   0.32307   0.77302   0.00000  Uiso   1.00
O926   O     0.67693   0.04276   0.22698   0.00000  Uiso   1.00
O927   O     0.82308   0.45724   0.77302   0.00000  Uiso   1.00
O928   O     0.54276   0.32307   0.22698   0.00000  Uiso   1.00
O929   O     0.75000   0.46963   0.33755   0.00000  Uiso   1.00
O930   O     0.95725   0.17693   0.77302   0.00000  Uiso   1.00
O931   O     0.82308   0.45724   0.22698   0.00000  Uiso   1.00
O932   O     0.67693   0.04276   0.77302   0.00000  Uiso   1.00
O933   O     0.60612   0.44683   0.23366   0.00000  Uiso   1.00
O934   O     0.89479   0.05189   0.76909   0.00000  Uiso   1.00
O935   O     0.59407   0.14703   0.17923   0.00000  Uiso   1.00
O936   O     0.90499   0.35219   0.82075   0.00000  Uiso   1.00
O937   O     0.89387   0.05316   0.23375   0.00000  Uiso   1.00
O938   O     0.60456   0.44843   0.76311   0.00000  Uiso   1.00
O939   O     0.90587   0.35302   0.17923   0.00000  Uiso   1.00
O940   O     0.75000   0.03037   0.66245   0.00000  Uiso   1.00
O941   O     0.59551   0.14824   0.82077   0.00000  Uiso   1.00
O942   O     0.64795   0.09398   0.82000   0.00000  Uiso   1.00
O943   O     0.85450   0.40852   0.18025   0.00000  Uiso   1.00
O944   O     0.55244   0.39380   0.76765   0.00000  Uiso   1.00
O945   O     0.94733   0.10605   0.23652   0.00000  Uiso   1.00
O946   O     0.85257   0.40651   0.81998   0.00000  Uiso   1.00
O947   O     0.64538   0.09147   0.18025   0.00000  Uiso   1.00
O948   O     0.94690   0.10641   0.77273   0.00000  Uiso   1.00
O949   O     0.55267   0.39394   0.23647   0.00000  Uiso   1.00
O950   O     0.86330   0.18874   0.70645   0.00000  Uiso   1.00
O951   O     0.53037   0.25000   0.33755   0.00000  Uiso   1.00
O952   O     0.64553   0.30152   0.26232   0.00000  Uiso   1.00
O953   O     0.84541   0.39847   0.67912   0.00000  Uiso   1.00
O954   O     0.65515   0.10235   0.32072   0.00000  Uiso   1.00
O955   O     0.64368   0.30341   0.73253   0.00000  Uiso   1.00
O956   O     0.85448   0.19849   0.26223   0.00000  Uiso   1.00
O957   O     0.65530   0.10256   0.67916   0.00000  Uiso   1.00
O958   O     0.84493   0.39761   0.32071   0.00000  Uiso   1.00
O959   O     0.89732   0.34328   0.31991   0.00000  Uiso   1.00
O960   O     0.60257   0.15664   0.67991   0.00000  Uiso   1.00
O961   O     0.80231   0.14393   0.26666   0.00000  Uiso   1.00
O962   O     0.96964   0.25000   0.66245   0.00000  Uiso   1.00
O963   O     0.69716   0.35615   0.73579   0.00000  Uiso   1.00
O964   O     0.60280   0.15672   0.31991   0.00000  Uiso   1.00
O965   O     0.89610   0.34226   0.68013   0.00000  Uiso   1.00
O966   O     0.69772   0.35608   0.26669   0.00000  Uiso   1.00
O967   O     0.80588   0.14186   0.72413   0.00000  Uiso   1.00
O968   O     0.75000   0.03037   0.33755   0.00000  Uiso   1.00
Zn969  Zn    0.70660   0.00000   0.21735   0.00000  Uiso   1.00
Zn970  Zn    0.54341   0.25000   0.28265   0.00000  Uiso   1.00
Zn971  Zn    0.75000   0.45659   0.71735   0.00000  Uiso   1.00
Zn972  Zn    0.75000   0.04341   0.28265   0.00000  Uiso   1.00
Zn973  Zn    0.54341   0.25000   0.71735   0.00000  Uiso   1.00
Zn974  Zn    0.95660   0.25000   0.28265   0.00000  Uiso   1.00
Zn975  Zn    0.75000   0.04341   0.71735   0.00000  Uiso   1.00
Zn976  Zn    0.75000   0.45659   0.28265   0.00000  Uiso   1.00
Zn977  Zn    0.79341   0.00000   0.78265   0.00000  Uiso   1.00
Zn978  Zn    0.50000   0.20660   0.21735   0.00000  Uiso   1.00
Zn979  Zn    0.50000   0.29341   0.78265   0.00000  Uiso   1.00
Zn980  Zn    0.79341   0.00000   0.21735   0.00000  Uiso   1.00
Zn981  Zn    0.70660   0.00000   0.78265   0.00000  Uiso   1.00
Zn982  Zn    0.50000   0.29341   0.21735   0.00000  Uiso   1.00
Zn983  Zn    0.50000   0.20660   0.78265   0.00000  Uiso   1.00
Zn984  Zn    0.95660   0.25000   0.71735   0.00000  Uiso   1.00
C985   C     0.03322   0.75013   0.41883   0.00000  Uiso   1.00
C986   C     0.21679   0.99913   0.08118   0.00000  Uiso   1.00
C987   C     0.25000   0.96659   0.54073   0.00000  Uiso   1.00
C988   C     0.03345   0.75005   0.45932   0.00000  Uiso   1.00
C989   C     0.46656   0.74961   0.54071   0.00000  Uiso   1.00
C990   C     0.24999   0.96658   0.45929   0.00000  Uiso   1.00
C991   C     0.25035   0.53347   0.54073   0.00000  Uiso   1.00
C992   C     0.21657   0.99930   0.95925   0.00000  Uiso   1.00
C993   C     0.28342   0.50079   0.04076   0.00000  Uiso   1.00
C994   C     0.00044   0.78343   0.95927   0.00000  Uiso   1.00
C995   C     0.49954   0.71657   0.04072   0.00000  Uiso   1.00
C996   C     0.28344   0.50070   0.95931   0.00000  Uiso   1.00
C997   C     0.49965   0.71680   0.91879   0.00000  Uiso   1.00
C998   C     0.21656   0.99922   0.04070   0.00000  Uiso   1.00
C999   C     0.49966   0.71656   0.95928   0.00000  Uiso   1.00
C1000  C     0.00051   0.78343   0.04071   0.00000  Uiso   1.00
C1001  C     0.09866   0.84737   0.24852   0.00000  Uiso   1.00
C1002  C     0.40415   0.64938   0.74412   0.00000  Uiso   1.00
C1003  C     0.15152   0.59767   0.25003   0.00000  Uiso   1.00
C1004  C     0.34853   0.90242   0.74983   0.00000  Uiso   1.00
C1005  C     0.40135   0.65263   0.24850   0.00000  Uiso   1.00
C1006  C     0.09765   0.84877   0.74864   0.00000  Uiso   1.00
C1007  C     0.34846   0.90231   0.25003   0.00000  Uiso   1.00
C1008  C     0.00061   0.78319   0.08120   0.00000  Uiso   1.00
C1009  C     0.15163   0.59777   0.74980   0.00000  Uiso   1.00
C1010  C     0.09830   0.65218   0.75001   0.00000  Uiso   1.00
C1011  C     0.40160   0.84772   0.24980   0.00000  Uiso   1.00
C1012  C     0.15129   0.90268   0.74845   0.00000  Uiso   1.00
C1013  C     0.34771   0.59871   0.24871   0.00000  Uiso   1.00
C1014  C     0.40159   0.84776   0.75003   0.00000  Uiso   1.00
C1015  C     0.09842   0.65230   0.24980   0.00000  Uiso   1.00
C1016  C     0.34977   0.59631   0.74574   0.00000  Uiso   1.00
C1017  C     0.15230   0.90129   0.24869   0.00000  Uiso   1.00
C1018  C     0.00000   0.74983   0.47964   0.00000  Uiso   1.00
C1019  C     0.21682   0.99930   0.91876   0.00000  Uiso   1.00
C1020  C    -0.00000   0.74982   0.52039   0.00000  Uiso   1.00
C1021  C     0.25014   0.50002   0.47964   0.00000  Uiso   1.00
C1022  C     0.25017   0.50003   0.52038   0.00000  Uiso   1.00
C1023  C     0.25000   0.50000   0.97963   0.00000  Uiso   1.00
C1024  C     0.25000   0.50001   0.02038   0.00000  Uiso   1.00
C1025  C     0.00005   0.75000   0.97962   0.00000  Uiso   1.00
C1026  C     0.00003   0.75000   0.02037   0.00000  Uiso   1.00
C1027  C     0.09920   0.95241   0.19369   0.00000  Uiso   1.00
C1028  C     0.09334   0.99298   0.18638   0.00000  Uiso   1.00
C1029  C     0.39774   0.52801   0.73683   0.00000  Uiso   1.00
C1030  C     0.28318   0.50089   0.08124   0.00000  Uiso   1.00
C1031  C     0.41290   0.99140   0.75046   0.00000  Uiso   1.00
C1032  C     0.10839   0.68093   0.16688   0.00000  Uiso   1.00
C1033  C     0.09522   0.68877   0.12581   0.00000  Uiso   1.00
C1034  C     0.39041   0.81813   0.83221   0.00000  Uiso   1.00
C1035  C     0.40098   0.81071   0.87423   0.00000  Uiso   1.00
C1036  C     0.40077   0.54755   0.19379   0.00000  Uiso   1.00
C1037  C     0.40665   0.50698   0.18652   0.00000  Uiso   1.00
C1038  C     0.10373   0.96928   0.72845   0.00000  Uiso   1.00
C1039  C     0.08643   0.50631   0.73694   0.00000  Uiso   1.00
C1040  C     0.39156   0.81912   0.16686   0.00000  Uiso   1.00
C1041  C     0.00046   0.78320   0.91879   0.00000  Uiso   1.00
C1042  C     0.40472   0.81131   0.12579   0.00000  Uiso   1.00
C1043  C     0.11010   0.68244   0.83182   0.00000  Uiso   1.00
C1044  C     0.10013   0.69000   0.87395   0.00000  Uiso   1.00
C1045  C     0.17646   0.61464   0.83686   0.00000  Uiso   1.00
C1046  C     0.20490   0.58894   0.85410   0.00000  Uiso   1.00
C1047  C     0.32866   0.88777   0.15922   0.00000  Uiso   1.00
C1048  C     0.29904   0.91294   0.14345   0.00000  Uiso   1.00
C1049  C     0.03313   0.91089   0.73698   0.00000  Uiso   1.00
C1050  C     0.49337   0.89929   0.73822   0.00000  Uiso   1.00
C1051  C     0.46209   0.59516   0.27263   0.00000  Uiso   1.00
C1052  C     0.49940   0.71681   0.08120   0.00000  Uiso   1.00
C1053  C     0.00165   0.58354   0.26685   0.00000  Uiso   1.00
C1054  C     0.32467   0.88561   0.83760   0.00000  Uiso   1.00
C1055  C     0.29507   0.91095   0.85313   0.00000  Uiso   1.00
C1056  C     0.17119   0.61222   0.15921   0.00000  Uiso   1.00
C1057  C     0.20076   0.58703   0.14341   0.00000  Uiso   1.00
C1058  C     0.46825   0.58659   0.74560   0.00000  Uiso   1.00
C1059  C     0.00744   0.59996   0.74692   0.00000  Uiso   1.00
C1060  C     0.03793   0.90485   0.27256   0.00000  Uiso   1.00
C1061  C     0.49837   0.91647   0.26674   0.00000  Uiso   1.00
C1062  C     0.37676   0.68609   0.66786   0.00000  Uiso   1.00
C1063  C     0.00001   0.74994   0.39847   0.00000  Uiso   1.00
C1064  C     0.37158   0.72262   0.64751   0.00000  Uiso   1.00
C1065  C     0.14600   0.78098   0.22745   0.00000  Uiso   1.00
C1066  C     0.16352   0.74394   0.23535   0.00000  Uiso   1.00
C1067  C     0.36009   0.93261   0.66803   0.00000  Uiso   1.00
C1068  C     0.34793   0.94140   0.62682   0.00000  Uiso   1.00
C1069  C     0.14058   0.56830   0.33228   0.00000  Uiso   1.00
C1070  C     0.15120   0.56097   0.37430   0.00000  Uiso   1.00
C1071  C     0.15007   0.79835   0.69239   0.00000  Uiso   1.00
C1072  C     0.15545   0.75784   0.68433   0.00000  Uiso   1.00
C1073  C     0.35399   0.71900   0.22734   0.00000  Uiso   1.00
C1074  C     0.49999   0.74991   0.60155   0.00000  Uiso   1.00
C1075  C     0.33647   0.75605   0.23518   0.00000  Uiso   1.00
C1076  C     0.14103   0.56859   0.66704   0.00000  Uiso   1.00
C1077  C     0.15375   0.56082   0.62582   0.00000  Uiso   1.00
C1078  C     0.35949   0.93165   0.33230   0.00000  Uiso   1.00
C1079  C     0.34892   0.93896   0.37432   0.00000  Uiso   1.00
C1080  C     0.42513   0.86418   0.33773   0.00000  Uiso   1.00
C1081  C     0.45477   0.83887   0.35328   0.00000  Uiso   1.00
C1082  C     0.07499   0.63581   0.66159   0.00000  Uiso   1.00
C1083  C     0.04508   0.66114   0.64668   0.00000  Uiso   1.00
C1084  C     0.28331   0.66039   0.23539   0.00000  Uiso   1.00
C1085  C     0.25005   0.50001   0.39847   0.00000  Uiso   1.00
C1086  C     0.24359   0.64865   0.23631   0.00000  Uiso   1.00
C1087  C     0.21205   0.84505   0.77177   0.00000  Uiso   1.00
C1088  C     0.25169   0.83383   0.76584   0.00000  Uiso   1.00
C1089  C     0.07502   0.63582   0.33775   0.00000  Uiso   1.00
C1090  C     0.04542   0.66113   0.35331   0.00000  Uiso   1.00
C1091  C     0.42226   0.86308   0.65967   0.00000  Uiso   1.00
C1092  C     0.45156   0.83779   0.64347   0.00000  Uiso   1.00
C1093  C     0.21667   0.83960   0.23544   0.00000  Uiso   1.00
C1094  C     0.25639   0.85136   0.23635   0.00000  Uiso   1.00
C1095  C     0.29738   0.64543   0.68419   0.00000  Uiso   1.00
C1096  C     0.46680   0.74961   0.58120   0.00000  Uiso   1.00
C1097  C     0.25011   0.50002   0.60155   0.00000  Uiso   1.00
C1098  C     0.25662   0.63976   0.67802   0.00000  Uiso   1.00
C1099  C     0.25002   0.99999   0.89846   0.00000  Uiso   1.00
C1100  C     0.24998   0.50001   0.10154   0.00000  Uiso   1.00
C1101  C     0.00004   0.75000   0.89846   0.00000  Uiso   1.00
C1102  C     0.00000   0.75000   0.10154   0.00000  Uiso   1.00
C1103  C     0.43347   0.74946   0.47971   0.00000  Uiso   1.00
C1104  C     0.06653   0.75020   0.52033   0.00000  Uiso   1.00
C1105  C     0.25040   0.56655   0.47974   0.00000  Uiso   1.00
C1106  C     0.24990   0.93350   0.52027   0.00000  Uiso   1.00
C1107  C     0.06653   0.75020   0.47982   0.00000  Uiso   1.00
C1108  C     0.24989   0.96681   0.41881   0.00000  Uiso   1.00
C1109  C     0.43347   0.74942   0.52023   0.00000  Uiso   1.00
C1110  C     0.24991   0.93350   0.47976   0.00000  Uiso   1.00
C1111  C     0.25046   0.56655   0.52026   0.00000  Uiso   1.00
C1112  C     0.18349   0.99859   0.97968   0.00000  Uiso   1.00
C1113  C     0.31651   0.50148   0.02033   0.00000  Uiso   1.00
C1114  C     0.00083   0.81651   0.97973   0.00000  Uiso   1.00
C1115  C     0.49918   0.68349   0.02026   0.00000  Uiso   1.00
C1116  C     0.31652   0.50141   0.97981   0.00000  Uiso   1.00
C1117  C     0.18349   0.99853   0.02020   0.00000  Uiso   1.00
C1118  C     0.49927   0.68348   0.97975   0.00000  Uiso   1.00
C1119  C     0.25043   0.53323   0.58122   0.00000  Uiso   1.00
C1120  C     0.00089   0.81651   0.02024   0.00000  Uiso   1.00
C1121  C     0.25001   0.50000   0.35599   0.00000  Uiso   1.00
C1122  C     0.25003   0.50001   0.64401   0.00000  Uiso   1.00
C1123  C     0.00001   0.74999   0.35599   0.00000  Uiso   1.00
C1124  C     0.49999   0.74998   0.64401   0.00000  Uiso   1.00
C1125  C     0.00001   0.75000   0.85599   0.00000  Uiso   1.00
C1126  C    -0.00000   0.75000   0.14401   0.00000  Uiso   1.00
C1127  C     0.25001   0.99999   0.85599   0.00000  Uiso   1.00
C1128  C     0.24999   0.50000   0.14401   0.00000  Uiso   1.00
C1129  C     0.18007   0.57009   0.24977   0.00000  Uiso   1.00
C1130  C     0.46680   0.74968   0.41878   0.00000  Uiso   1.00
C1131  C     0.31993   0.92993   0.75019   0.00000  Uiso   1.00
C1132  C     0.42995   0.68004   0.24989   0.00000  Uiso   1.00
C1133  C     0.06996   0.82020   0.74977   0.00000  Uiso   1.00
C1134  C     0.31991   0.92991   0.24977   0.00000  Uiso   1.00
C1135  C     0.18010   0.57010   0.75017   0.00000  Uiso   1.00
C1136  C     0.07006   0.81997   0.24990   0.00000  Uiso   1.00
C1137  C     0.43057   0.67920   0.74863   0.00000  Uiso   1.00
C1138  C     0.17993   0.93006   0.74987   0.00000  Uiso   1.00
C1139  C     0.31997   0.57018   0.24980   0.00000  Uiso   1.00
C1140  C     0.43008   0.82010   0.74977   0.00000  Uiso   1.00
C1141  C     0.03320   0.75013   0.58125   0.00000  Uiso   1.00
C1142  C     0.06992   0.67992   0.25017   0.00000  Uiso   1.00
C1143  C     0.32021   0.56992   0.74959   0.00000  Uiso   1.00
C1144  C     0.18002   0.92982   0.24979   0.00000  Uiso   1.00
C1145  C     0.06987   0.67988   0.74976   0.00000  Uiso   1.00
C1146  C     0.43009   0.82008   0.25017   0.00000  Uiso   1.00
C1147  C     0.11594   0.91068   0.23960   0.00000  Uiso   1.00
C1148  C     0.38593   0.58669   0.75618   0.00000  Uiso   1.00
C1149  C     0.10997   0.63700   0.21424   0.00000  Uiso   1.00
C1150  C     0.38975   0.86279   0.78560   0.00000  Uiso   1.00
C1151  C     0.38406   0.58932   0.23965   0.00000  Uiso   1.00
C1152  C     0.25027   0.53322   0.41879   0.00000  Uiso   1.00
C1153  C     0.11445   0.91270   0.75467   0.00000  Uiso   1.00
C1154  C     0.39000   0.86302   0.21424   0.00000  Uiso   1.00
C1155  C     0.11047   0.63743   0.78559   0.00000  Uiso   1.00
C1156  C     0.13691   0.60985   0.78535   0.00000  Uiso   1.00
C1157  C     0.36383   0.89090   0.21453   0.00000  Uiso   1.00
C1158  C     0.08778   0.88537   0.75618   0.00000  Uiso   1.00
C1159  C     0.41113   0.61596   0.24182   0.00000  Uiso   1.00
C1160  C     0.36336   0.89041   0.78536   0.00000  Uiso   1.00
C1161  C     0.13611   0.60909   0.21453   0.00000  Uiso   1.00
C1162  C     0.41269   0.61392   0.75733   0.00000  Uiso   1.00
C1163  C     0.24989   0.96682   0.58121   0.00000  Uiso   1.00
C1164  C     0.08887   0.88403   0.24179   0.00000  Uiso   1.00
C1165  C     0.37028   0.65611   0.72539   0.00000  Uiso   1.00
C1166  C     0.13555   0.83732   0.25434   0.00000  Uiso   1.00
C1167  C     0.36054   0.88761   0.71423   0.00000  Uiso   1.00
C1168  C     0.13984   0.61287   0.28557   0.00000  Uiso   1.00
C1169  C     0.13391   0.83948   0.73908   0.00000  Uiso   1.00
C1170  C     0.36446   0.66268   0.25430   0.00000  Uiso   1.00
C1171  C     0.13960   0.61267   0.71421   0.00000  Uiso   1.00
C1172  C     0.36019   0.88710   0.28557   0.00000  Uiso   1.00
C1173  C     0.38658   0.85948   0.28531   0.00000  Uiso   1.00
C1174  C     0.28321   0.50069   0.91882   0.00000  Uiso   1.00
C1175  C     0.11311   0.64022   0.71445   0.00000  Uiso   1.00
C1176  C     0.33778   0.63537   0.25579   0.00000  Uiso   1.00
C1177  C     0.16100   0.86608   0.74133   0.00000  Uiso   1.00
C1178  C     0.11348   0.64052   0.28531   0.00000  Uiso   1.00
C1179  C     0.38655   0.85958   0.71449   0.00000  Uiso   1.00
C1180  C     0.16223   0.86463   0.25580   0.00000  Uiso   1.00
C1181  C     0.34200   0.63088   0.72947   0.00000  Uiso   1.00
C1182  C     0.46656   0.74966   0.45927   0.00000  Uiso   1.00
C1183  C     0.03344   0.75004   0.54077   0.00000  Uiso   1.00
C1184  C     0.25027   0.53346   0.45928   0.00000  Uiso   1.00
H1185  H     0.40762   0.74932   0.46437   0.00000  Uiso   1.00
H1186  H     0.34234   0.50206   0.03568   0.00000  Uiso   1.00
H1187  H     0.18826   0.56485   0.12600   0.00000  Uiso   1.00
H1188  H     0.21966   0.60271   0.12460   0.00000  Uiso   1.00
H1189  H     0.21664   0.57500   0.16777   0.00000  Uiso   1.00
H1190  H     0.45863   0.58917   0.71489   0.00000  Uiso   1.00
H1191  H     0.46831   0.55732   0.75393   0.00000  Uiso   1.00
H1192  H     0.01750   0.60072   0.77736   0.00000  Uiso   1.00
H1193  H     0.02522   0.58131   0.72982   0.00000  Uiso   1.00
H1194  H     0.00883   0.62766   0.73402   0.00000  Uiso   1.00
H1195  H     0.05312   0.92850   0.28478   0.00000  Uiso   1.00
H1196  H     0.03859   0.88188   0.29378   0.00000  Uiso   1.00
H1197  H     0.00111   0.84235   0.96441   0.00000  Uiso   1.00
H1198  H     0.48205   0.89305   0.25605   0.00000  Uiso   1.00
H1199  H     0.48679   0.92610   0.29474   0.00000  Uiso   1.00
H1200  H     0.49677   0.93905   0.24527   0.00000  Uiso   1.00
H1201  H     0.36206   0.66488   0.65102   0.00000  Uiso   1.00
H1202  H     0.40632   0.67888   0.66696   0.00000  Uiso   1.00
H1203  H     0.38745   0.74410   0.66271   0.00000  Uiso   1.00
H1204  H     0.34223   0.73039   0.64745   0.00000  Uiso   1.00
H1205  H     0.38123   0.72060   0.61701   0.00000  Uiso   1.00
H1206  H     0.16186   0.79481   0.20417   0.00000  Uiso   1.00
H1207  H     0.11794   0.77618   0.21639   0.00000  Uiso   1.00
H1208  H     0.49885   0.65765   0.03559   0.00000  Uiso   1.00
H1209  H     0.14673   0.72832   0.25637   0.00000  Uiso   1.00
H1210  H     0.19137   0.74746   0.24750   0.00000  Uiso   1.00
H1211  H     0.16563   0.72820   0.20790   0.00000  Uiso   1.00
H1212  H     0.39047   0.93244   0.66879   0.00000  Uiso   1.00
H1213  H     0.35017   0.95493   0.68720   0.00000  Uiso   1.00
H1214  H     0.31767   0.94246   0.62535   0.00000  Uiso   1.00
H1215  H     0.35895   0.96831   0.61788   0.00000  Uiso   1.00
H1216  H     0.35809   0.92014   0.60647   0.00000  Uiso   1.00
H1217  H     0.15179   0.54568   0.31436   0.00000  Uiso   1.00
H1218  H     0.11026   0.56774   0.33006   0.00000  Uiso   1.00
H1219  H     0.34236   0.50194   0.96452   0.00000  Uiso   1.00
H1220  H     0.13993   0.58269   0.39341   0.00000  Uiso   1.00
H1221  H     0.14021   0.53418   0.38369   0.00000  Uiso   1.00
H1222  H     0.18140   0.56042   0.37717   0.00000  Uiso   1.00
H1223  H     0.17516   0.81289   0.68303   0.00000  Uiso   1.00
H1224  H     0.12650   0.80816   0.67464   0.00000  Uiso   1.00
H1225  H     0.13053   0.74255   0.69257   0.00000  Uiso   1.00
H1226  H     0.17902   0.74721   0.70129   0.00000  Uiso   1.00
H1227  H     0.16081   0.75352   0.65291   0.00000  Uiso   1.00
H1228  H     0.33810   0.70515   0.20407   0.00000  Uiso   1.00
H1229  H     0.38204   0.72378   0.21629   0.00000  Uiso   1.00
H1230  H     0.15764   0.99795   0.03550   0.00000  Uiso   1.00
H1231  H     0.35329   0.77168   0.25620   0.00000  Uiso   1.00
H1232  H     0.33434   0.77176   0.20772   0.00000  Uiso   1.00
H1233  H     0.30864   0.75255   0.24733   0.00000  Uiso   1.00
H1234  H     0.11067   0.56855   0.66729   0.00000  Uiso   1.00
H1235  H     0.15091   0.54596   0.68584   0.00000  Uiso   1.00
H1236  H     0.18403   0.56023   0.62476   0.00000  Uiso   1.00
H1237  H     0.14322   0.53394   0.61610   0.00000  Uiso   1.00
H1238  H     0.14349   0.58236   0.60584   0.00000  Uiso   1.00
H1239  H     0.34826   0.95428   0.31438   0.00000  Uiso   1.00
H1240  H     0.38981   0.93222   0.33009   0.00000  Uiso   1.00
H1241  H     0.49900   0.65764   0.96443   0.00000  Uiso   1.00
H1242  H     0.36022   0.91723   0.39342   0.00000  Uiso   1.00
H1243  H     0.35991   0.96574   0.38373   0.00000  Uiso   1.00
H1244  H     0.31873   0.93950   0.37718   0.00000  Uiso   1.00
H1245  H     0.41319   0.87921   0.36271   0.00000  Uiso   1.00
H1246  H     0.43844   0.88435   0.31804   0.00000  Uiso   1.00
H1247  H     0.44261   0.81803   0.37272   0.00000  Uiso   1.00
H1248  H     0.46897   0.82512   0.32882   0.00000  Uiso   1.00
H1249  H     0.47512   0.85488   0.36997   0.00000  Uiso   1.00
H1250  H     0.06194   0.61501   0.68074   0.00000  Uiso   1.00
H1251  H     0.08712   0.62151   0.63622   0.00000  Uiso   1.00
H1252  H     0.00121   0.84235   0.03557   0.00000  Uiso   1.00
H1253  H     0.05701   0.68242   0.62761   0.00000  Uiso   1.00
H1254  H     0.02481   0.64527   0.62974   0.00000  Uiso   1.00
H1255  H     0.03086   0.67436   0.67146   0.00000  Uiso   1.00
H1256  H     0.29455   0.65318   0.20619   0.00000  Uiso   1.00
H1257  H     0.28385   0.69045   0.23909   0.00000  Uiso   1.00
H1258  H     0.22754   0.66556   0.21562   0.00000  Uiso   1.00
H1259  H     0.24153   0.61956   0.22764   0.00000  Uiso   1.00
H1260  H     0.23204   0.65232   0.26589   0.00000  Uiso   1.00
H1261  H     0.19707   0.82117   0.78374   0.00000  Uiso   1.00
H1262  H     0.21124   0.86782   0.79324   0.00000  Uiso   1.00
H1263  H     0.05892   0.75034   0.40322   0.00000  Uiso   1.00
H1264  H     0.26782   0.85751   0.75548   0.00000  Uiso   1.00
H1265  H     0.26337   0.82396   0.79372   0.00000  Uiso   1.00
H1266  H     0.25346   0.81152   0.74407   0.00000  Uiso   1.00
H1267  H     0.08701   0.62079   0.36272   0.00000  Uiso   1.00
H1268  H     0.06168   0.61566   0.31806   0.00000  Uiso   1.00
H1269  H     0.03116   0.67489   0.32886   0.00000  Uiso   1.00
H1270  H     0.02510   0.64512   0.37002   0.00000  Uiso   1.00
H1271  H     0.05761   0.68197   0.37275   0.00000  Uiso   1.00
H1272  H     0.43612   0.88424   0.67761   0.00000  Uiso   1.00
H1273  H     0.40854   0.87684   0.63487   0.00000  Uiso   1.00
H1274  H     0.44111   0.74944   0.59681   0.00000  Uiso   1.00
H1275  H     0.43884   0.81610   0.62554   0.00000  Uiso   1.00
H1276  H     0.47075   0.85356   0.62509   0.00000  Uiso   1.00
H1277  H     0.46716   0.82510   0.66765   0.00000  Uiso   1.00
H1278  H     0.20539   0.84678   0.20624   0.00000  Uiso   1.00
H1279  H     0.21615   0.80954   0.23917   0.00000  Uiso   1.00
H1280  H     0.27242   0.83444   0.21568   0.00000  Uiso   1.00
H1281  H     0.25842   0.88044   0.22764   0.00000  Uiso   1.00
H1282  H     0.26798   0.84772   0.26594   0.00000  Uiso   1.00
H1283  H     0.31229   0.62528   0.66568   0.00000  Uiso   1.00
H1284  H     0.30336   0.67364   0.67452   0.00000  Uiso   1.00
H1285  H     0.24971   0.94111   0.40318   0.00000  Uiso   1.00
H1286  H     0.24065   0.65731   0.69819   0.00000  Uiso   1.00
H1287  H     0.24919   0.64695   0.64768   0.00000  Uiso   1.00
H1288  H     0.24946   0.61079   0.68290   0.00000  Uiso   1.00
H1289  H     0.09238   0.75034   0.53568   0.00000  Uiso   1.00
H1290  H     0.25069   0.55893   0.59685   0.00000  Uiso   1.00
H1291  H     0.44110   0.74951   0.40312   0.00000  Uiso   1.00
H1292  H     0.05891   0.75036   0.59691   0.00000  Uiso   1.00
H1293  H     0.25042   0.55891   0.40316   0.00000  Uiso   1.00
H1294  H     0.24965   0.94112   0.59684   0.00000  Uiso   1.00
H1295  H     0.30891   0.50123   0.90321   0.00000  Uiso   1.00
H1296  H     0.19110   0.99838   0.09680   0.00000  Uiso   1.00
H1297  H     0.49933   0.69110   0.90316   0.00000  Uiso   1.00
H1298  H     0.00115   0.80889   0.09682   0.00000  Uiso   1.00
H1299  H     0.19112   0.99876   0.90310   0.00000  Uiso   1.00
H1300  H     0.25047   0.59239   0.46442   0.00000  Uiso   1.00
H1301  H     0.30887   0.50163   0.09690   0.00000  Uiso   1.00
H1302  H     0.00080   0.80889   0.90315   0.00000  Uiso   1.00
H1303  H     0.49886   0.69111   0.09683   0.00000  Uiso   1.00
H1304  H     0.07416   0.93777   0.18435   0.00000  Uiso   1.00
H1305  H     0.12268   0.94309   0.17553   0.00000  Uiso   1.00
H1306  H     0.11818   0.50840   0.19464   0.00000  Uiso   1.00
H1307  H     0.06983   0.50311   0.20375   0.00000  Uiso   1.00
H1308  H     0.08761   0.99774   0.15509   0.00000  Uiso   1.00
H1309  H     0.41632   0.53897   0.71413   0.00000  Uiso   1.00
H1310  H     0.37072   0.52306   0.72317   0.00000  Uiso   1.00
H1311  H     0.24981   0.90766   0.53560   0.00000  Uiso   1.00
H1312  H     0.41488   0.97226   0.72554   0.00000  Uiso   1.00
H1313  H     0.39465   0.97943   0.77278   0.00000  Uiso   1.00
H1314  H     0.44052   0.99501   0.76317   0.00000  Uiso   1.00
H1315  H     0.13875   0.68079   0.16675   0.00000  Uiso   1.00
H1316  H     0.09890   0.70365   0.18576   0.00000  Uiso   1.00
H1317  H     0.06494   0.68957   0.12513   0.00000  Uiso   1.00
H1318  H     0.10582   0.71557   0.11594   0.00000  Uiso   1.00
H1319  H     0.10507   0.66716   0.10571   0.00000  Uiso   1.00
H1320  H     0.40164   0.79555   0.81425   0.00000  Uiso   1.00
H1321  H     0.36009   0.81759   0.82995   0.00000  Uiso   1.00
H1322  H     0.09238   0.75034   0.46452   0.00000  Uiso   1.00
H1323  H     0.38969   0.83240   0.89337   0.00000  Uiso   1.00
H1324  H     0.38998   0.78391   0.88355   0.00000  Uiso   1.00
H1325  H     0.43118   0.81015   0.87714   0.00000  Uiso   1.00
H1326  H     0.42582   0.56219   0.18446   0.00000  Uiso   1.00
H1327  H     0.37730   0.55685   0.17560   0.00000  Uiso   1.00
H1328  H     0.38181   0.99156   0.19477   0.00000  Uiso   1.00
H1329  H     0.43015   0.99686   0.20395   0.00000  Uiso   1.00
H1330  H     0.41237   0.50220   0.15525   0.00000  Uiso   1.00
H1331  H     0.08753   0.95572   0.70524   0.00000  Uiso   1.00
H1332  H     0.13166   0.97409   0.71708   0.00000  Uiso   1.00
H1333  H     0.40762   0.74926   0.53554   0.00000  Uiso   1.00
H1334  H     0.10351   0.52166   0.75795   0.00000  Uiso   1.00
H1335  H     0.08407   0.52233   0.70970   0.00000  Uiso   1.00
H1336  H     0.05871   0.50278   0.74937   0.00000  Uiso   1.00
H1337  H     0.36120   0.81926   0.16668   0.00000  Uiso   1.00
H1338  H     0.40107   0.79640   0.18573   0.00000  Uiso   1.00
H1339  H     0.43501   0.81051   0.12515   0.00000  Uiso   1.00
H1340  H     0.39413   0.78451   0.11590   0.00000  Uiso   1.00
H1341  H     0.39487   0.83293   0.10569   0.00000  Uiso   1.00
H1342  H     0.09848   0.70487   0.81391   0.00000  Uiso   1.00
H1343  H     0.14039   0.68312   0.82906   0.00000  Uiso   1.00
H1344  H     0.24982   0.90766   0.46444   0.00000  Uiso   1.00
H1345  H     0.11178   0.66844   0.89303   0.00000  Uiso   1.00
H1346  H     0.11118   0.71688   0.88296   0.00000  Uiso   1.00
H1347  H     0.06998   0.69048   0.87732   0.00000  Uiso   1.00
H1348  H     0.16501   0.63135   0.86087   0.00000  Uiso   1.00
H1349  H     0.19073   0.63319   0.81609   0.00000  Uiso   1.00
H1350  H     0.21888   0.57369   0.83052   0.00000  Uiso   1.00
H1351  H     0.22562   0.60486   0.87037   0.00000  Uiso   1.00
H1352  H     0.19172   0.56937   0.87429   0.00000  Uiso   1.00
H1353  H     0.31506   0.86604   0.17660   0.00000  Uiso   1.00
H1354  H     0.34261   0.87471   0.13416   0.00000  Uiso   1.00
H1355  H     0.25057   0.59239   0.53558   0.00000  Uiso   1.00
H1356  H     0.31150   0.93512   0.12601   0.00000  Uiso   1.00
H1357  H     0.28010   0.89725   0.12466   0.00000  Uiso   1.00
H1358  H     0.28322   0.92496   0.16782   0.00000  Uiso   1.00
H1359  H     0.04398   0.90413   0.70750   0.00000  Uiso   1.00
H1360  H     0.03383   0.94088   0.74127   0.00000  Uiso   1.00
H1361  H     0.47710   0.91670   0.71820   0.00000  Uiso   1.00
H1362  H     0.49110   0.87041   0.72887   0.00000  Uiso   1.00
H1363  H     0.48224   0.90236   0.76806   0.00000  Uiso   1.00
H1364  H     0.44692   0.57152   0.28486   0.00000  Uiso   1.00
H1365  H     0.46145   0.61814   0.29384   0.00000  Uiso   1.00
H1366  H     0.15765   0.99806   0.96434   0.00000  Uiso   1.00
H1367  H     0.01796   0.60696   0.25615   0.00000  Uiso   1.00
H1368  H     0.01326   0.57392   0.29486   0.00000  Uiso   1.00
H1369  H     0.00323   0.56094   0.24539   0.00000  Uiso   1.00
H1370  H     0.33653   0.87047   0.86257   0.00000  Uiso   1.00
H1371  H     0.31137   0.86555   0.81778   0.00000  Uiso   1.00
H1372  H     0.28095   0.92482   0.82866   0.00000  Uiso   1.00
H1373  H     0.27465   0.89494   0.86969   0.00000  Uiso   1.00
H1374  H     0.30724   0.93170   0.87270   0.00000  Uiso   1.00
H1375  H     0.18484   0.63392   0.17659   0.00000  Uiso   1.00
H1376  H     0.15719   0.62529   0.13416   0.00000  Uiso   1.00
O1377  O     0.25000   0.50000   0.25000   0.00000  Uiso   1.00
O1378  O     0.25000   0.96963   0.66245   0.00000  Uiso   1.00
O1379  O     0.46964   0.75000   0.33755   0.00000  Uiso   1.00
O1380  O     0.03037   0.75000   0.66245   0.00000  Uiso   1.00
O1381  O     0.00000   0.71964   0.83755   0.00000  Uiso   1.00
O1382  O     0.00000   0.78037   0.16245   0.00000  Uiso   1.00
O1383  O     0.28037   0.50000   0.83755   0.00000  Uiso   1.00
O1384  O     0.21964   0.50000   0.16245   0.00000  Uiso   1.00
O1385  O     0.00000   0.78037   0.83755   0.00000  Uiso   1.00
O1386  O     0.00000   0.71964   0.16245   0.00000  Uiso   1.00
O1387  O     0.21964   0.50000   0.83755   0.00000  Uiso   1.00
O1388  O     0.25000   0.50000   0.75000   0.00000  Uiso   1.00
O1389  O     0.28037   0.50000   0.16245   0.00000  Uiso   1.00
O1390  O     0.20725   0.57308   0.27302   0.00000  Uiso   1.00
O1391  O     0.29276   0.92692   0.72698   0.00000  Uiso   1.00
O1392  O     0.42693   0.70725   0.27302   0.00000  Uiso   1.00
O1393  O     0.07308   0.79275   0.72698   0.00000  Uiso   1.00
O1394  O     0.29276   0.92692   0.27302   0.00000  Uiso   1.00
O1395  O     0.20725   0.57308   0.72698   0.00000  Uiso   1.00
O1396  O     0.07308   0.79275   0.27302   0.00000  Uiso   1.00
O1397  O     0.42693   0.70725   0.72698   0.00000  Uiso   1.00
O1398  O     0.20725   0.92692   0.72698   0.00000  Uiso   1.00
O1399  O     0.00000   0.75000   0.25000   0.00000  Uiso   1.00
O1400  O     0.29276   0.57308   0.27302   0.00000  Uiso   1.00
O1401  O     0.42693   0.79276   0.72698   0.00000  Uiso   1.00
O1402  O     0.07308   0.70724   0.27302   0.00000  Uiso   1.00
O1403  O     0.29276   0.57308   0.72698   0.00000  Uiso   1.00
O1404  O     0.20725   0.92692   0.27302   0.00000  Uiso   1.00
O1405  O     0.07308   0.70724   0.72698   0.00000  Uiso   1.00
O1406  O     0.42693   0.79276   0.27302   0.00000  Uiso   1.00
O1407  O     0.45725   0.82308   0.77302   0.00000  Uiso   1.00
O1408  O     0.04276   0.67692   0.22698   0.00000  Uiso   1.00
O1409  O     0.17693   0.95724   0.77302   0.00000  Uiso   1.00
O1410  O     0.00000   0.75000   0.75000   0.00000  Uiso   1.00
O1411  O     0.32308   0.54276   0.22698   0.00000  Uiso   1.00
O1412  O     0.04276   0.67692   0.77302   0.00000  Uiso   1.00
O1413  O     0.45725   0.82308   0.22698   0.00000  Uiso   1.00
O1414  O     0.32308   0.54276   0.77302   0.00000  Uiso   1.00
O1415  O     0.17693   0.95724   0.22698   0.00000  Uiso   1.00
O1416  O     0.45725   0.67693   0.22698   0.00000  Uiso   1.00
O1417  O     0.04276   0.82307   0.77302   0.00000  Uiso   1.00
O1418  O     0.17693   0.54276   0.22698   0.00000  Uiso   1.00
O1419  O     0.32308   0.95724   0.77302   0.00000  Uiso   1.00
O1420  O     0.04276   0.82307   0.22698   0.00000  Uiso   1.00
O1421  O     0.25000   0.96963   0.33755   0.00000  Uiso   1.00
O1422  O     0.45725   0.67693   0.77302   0.00000  Uiso   1.00
O1423  O     0.32308   0.95724   0.22698   0.00000  Uiso   1.00
O1424  O     0.17693   0.54276   0.77302   0.00000  Uiso   1.00
O1425  O     0.10612   0.94683   0.23366   0.00000  Uiso   1.00
O1426  O     0.39479   0.55189   0.76909   0.00000  Uiso   1.00
O1427  O     0.09407   0.64703   0.17923   0.00000  Uiso   1.00
O1428  O     0.40499   0.85219   0.82075   0.00000  Uiso   1.00
O1429  O     0.39387   0.55316   0.23375   0.00000  Uiso   1.00
O1430  O     0.10456   0.94843   0.76311   0.00000  Uiso   1.00
O1431  O     0.40587   0.85302   0.17923   0.00000  Uiso   1.00
O1432  O     0.25000   0.53037   0.66245   0.00000  Uiso   1.00
O1433  O     0.09551   0.64824   0.82077   0.00000  Uiso   1.00
O1434  O     0.14795   0.59398   0.82000   0.00000  Uiso   1.00
O1435  O     0.35450   0.90852   0.18025   0.00000  Uiso   1.00
O1436  O     0.05244   0.89380   0.76765   0.00000  Uiso   1.00
O1437  O     0.44733   0.60605   0.23652   0.00000  Uiso   1.00
O1438  O     0.35257   0.90651   0.81998   0.00000  Uiso   1.00
O1439  O     0.14538   0.59147   0.18025   0.00000  Uiso   1.00
O1440  O     0.44690   0.60641   0.77273   0.00000  Uiso   1.00
O1441  O     0.05267   0.89394   0.23647   0.00000  Uiso   1.00
O1442  O     0.36330   0.68874   0.70645   0.00000  Uiso   1.00
O1443  O     0.03037   0.75000   0.33755   0.00000  Uiso   1.00
O1444  O     0.14553   0.80152   0.26232   0.00000  Uiso   1.00
O1445  O     0.34541   0.89847   0.67912   0.00000  Uiso   1.00
O1446  O     0.15515   0.60235   0.32072   0.00000  Uiso   1.00
O1447  O     0.14368   0.80341   0.73253   0.00000  Uiso   1.00
O1448  O     0.35448   0.69849   0.26223   0.00000  Uiso   1.00
O1449  O     0.15530   0.60256   0.67916   0.00000  Uiso   1.00
O1450  O     0.34493   0.89761   0.32071   0.00000  Uiso   1.00
O1451  O     0.39732   0.84328   0.31991   0.00000  Uiso   1.00
O1452  O     0.10257   0.65664   0.67991   0.00000  Uiso   1.00
O1453  O     0.30231   0.64393   0.26666   0.00000  Uiso   1.00
O1454  O     0.46964   0.75000   0.66245   0.00000  Uiso   1.00
O1455  O     0.19716   0.85615   0.73579   0.00000  Uiso   1.00
O1456  O     0.10280   0.65672   0.31991   0.00000  Uiso   1.00
O1457  O     0.39610   0.84226   0.68013   0.00000  Uiso   1.00
O1458  O     0.19772   0.85608   0.26669   0.00000  Uiso   1.00
O1459  O     0.30588   0.64186   0.72413   0.00000  Uiso   1.00
O1460  O     0.25000   0.53037   0.33755   0.00000  Uiso   1.00
Zn1461 Zn    0.20660   0.50000   0.21735   0.00000  Uiso   1.00
Zn1462 Zn    0.04341   0.75000   0.28265   0.00000  Uiso   1.00
Zn1463 Zn    0.25000   0.95659   0.71735   0.00000  Uiso   1.00
Zn1464 Zn    0.25000   0.54341   0.28265   0.00000  Uiso   1.00
Zn1465 Zn    0.04341   0.75000   0.71735   0.00000  Uiso   1.00
Zn1466 Zn    0.45660   0.75000   0.28265   0.00000  Uiso   1.00
Zn1467 Zn    0.25000   0.54341   0.71735   0.00000  Uiso   1.00
Zn1468 Zn    0.25000   0.95659   0.28265   0.00000  Uiso   1.00
Zn1469 Zn    0.29341   0.50000   0.78265   0.00000  Uiso   1.00
Zn1470 Zn    0.00000   0.70660   0.21735   0.00000  Uiso   1.00
Zn1471 Zn    0.00000   0.79341   0.78265   0.00000  Uiso   1.00
Zn1472 Zn    0.29341   0.50000   0.21735   0.00000  Uiso   1.00
Zn1473 Zn    0.20660   0.50000   0.78265   0.00000  Uiso   1.00
Zn1474 Zn    0.00000   0.79341   0.21735   0.00000  Uiso   1.00
Zn1475 Zn    0.00000   0.70660   0.78265   0.00000  Uiso   1.00
Zn1476 Zn    0.45660   0.75000   0.71735   0.00000  Uiso   1.00
C1477  C     0.53322   0.75013   0.41883   0.00000  Uiso   1.00
C1478  C     0.71679   0.99913   0.08118   0.00000  Uiso   1.00
C1479  C     0.75000   0.96659   0.54073   0.00000  Uiso   1.00
C1480  C     0.53345   0.75005   0.45932   0.00000  Uiso   1.00
C1481  C     0.96656   0.74961   0.54071   0.00000  Uiso   1.00
C1482  C     0.74999   0.96658   0.45929   0.00000  Uiso   1.00
C1483  C     0.75035   0.53347   0.54073   0.00000  Uiso   1.00
C1484  C     0.71657   0.99930   0.95925   0.00000  Uiso   1.00
C1485  C     0.78342   0.50079   0.04076   0.00000  Uiso   1.00
C1486  C     0.50044   0.78343   0.95927   0.00000  Uiso   1.00
C1487  C     0.99954   0.71657   0.04072   0.00000  Uiso   1.00
C1488  C     0.78344   0.50070   0.95931   0.00000  Uiso   1.00
C1489  C     0.99965   0.71680   0.91879   0.00000  Uiso   1.00
C1490  C     0.71656   0.99922   0.04070   0.00000  Uiso   1.00
C1491  C     0.99966   0.71656   0.95928   0.00000  Uiso   1.00
C1492  C     0.50051   0.78343   0.04071   0.00000  Uiso   1.00
C1493  C     0.59866   0.84737   0.24852   0.00000  Uiso   1.00
C1494  C     0.90415   0.64938   0.74412   0.00000  Uiso   1.00
C1495  C     0.65152   0.59767   0.25003   0.00000  Uiso   1.00
C1496  C     0.84853   0.90242   0.74983   0.00000  Uiso   1.00
C1497  C     0.90135   0.65263   0.24850   0.00000  Uiso   1.00
C1498  C     0.59765   0.84877   0.74864   0.00000  Uiso   1.00
C1499  C     0.84846   0.90231   0.25003   0.00000  Uiso   1.00
C1500  C     0.50061   0.78319   0.08120   0.00000  Uiso   1.00
C1501  C     0.65163   0.59777   0.74980   0.00000  Uiso   1.00
C1502  C     0.59830   0.65218   0.75001   0.00000  Uiso   1.00
C1503  C     0.90160   0.84772   0.24980   0.00000  Uiso   1.00
C1504  C     0.65129   0.90268   0.74845   0.00000  Uiso   1.00
C1505  C     0.84771   0.59871   0.24871   0.00000  Uiso   1.00
C1506  C     0.90159   0.84776   0.75003   0.00000  Uiso   1.00
C1507  C     0.59842   0.65230   0.24980   0.00000  Uiso   1.00
C1508  C     0.84977   0.59631   0.74574   0.00000  Uiso   1.00
C1509  C     0.65230   0.90129   0.24869   0.00000  Uiso   1.00
C1510  C     0.50000   0.74983   0.47964   0.00000  Uiso   1.00
C1511  C     0.71682   0.99930   0.91876   0.00000  Uiso   1.00
C1512  C     0.50000   0.74982   0.52039   0.00000  Uiso   1.00
C1513  C     0.75014   0.50002   0.47964   0.00000  Uiso   1.00
C1514  C     0.75017   0.50003   0.52038   0.00000  Uiso   1.00
C1515  C     0.75000   0.50000   0.97963   0.00000  Uiso   1.00
C1516  C     0.75000   0.50001   0.02038   0.00000  Uiso   1.00
C1517  C     0.50005   0.75000   0.97962   0.00000  Uiso   1.00
C1518  C     0.50003   0.75000   0.02037   0.00000  Uiso   1.00
C1519  C     0.59920   0.95241   0.19369   0.00000  Uiso   1.00
C1520  C     0.59334   0.99298   0.18638   0.00000  Uiso   1.00
C1521  C     0.89774   0.52801   0.73683   0.00000  Uiso   1.00
C1522  C     0.78318   0.50089   0.08124   0.00000  Uiso   1.00
C1523  C     0.91290   0.99140   0.75046   0.00000  Uiso   1.00
C1524  C     0.60839   0.68093   0.16688   0.00000  Uiso   1.00
C1525  C     0.59522   0.68877   0.12581   0.00000  Uiso   1.00
C1526  C     0.89041   0.81813   0.83221   0.00000  Uiso   1.00
C1527  C     0.90098   0.81071   0.87423   0.00000  Uiso   1.00
C1528  C     0.90077   0.54755   0.19379   0.00000  Uiso   1.00
C1529  C     0.90665   0.50698   0.18652   0.00000  Uiso   1.00
C1530  C     0.60373   0.96928   0.72845   0.00000  Uiso   1.00
C1531  C     0.58643   0.50631   0.73694   0.00000  Uiso   1.00
C1532  C     0.89156   0.81912   0.16686   0.00000  Uiso   1.00
C1533  C     0.50046   0.78320   0.91879   0.00000  Uiso   1.00
C1534  C     0.90472   0.81131   0.12579   0.00000  Uiso   1.00
C1535  C     0.61010   0.68244   0.83182   0.00000  Uiso   1.00
C1536  C     0.60013   0.69000   0.87395   0.00000  Uiso   1.00
C1537  C     0.67646   0.61464   0.83686   0.00000  Uiso   1.00
C1538  C     0.70490   0.58894   0.85410   0.00000  Uiso   1.00
C1539  C     0.82866   0.88777   0.15922   0.00000  Uiso   1.00
C1540  C     0.79904   0.91294   0.14345   0.00000  Uiso   1.00
C1541  C     0.53313   0.91089   0.73698   0.00000  Uiso   1.00
C1542  C     0.99337   0.89929   0.73822   0.00000  Uiso   1.00
C1543  C     0.96209   0.59516   0.27263   0.00000  Uiso   1.00
C1544  C     0.99940   0.71681   0.08120   0.00000  Uiso   1.00
C1545  C     0.50165   0.58354   0.26685   0.00000  Uiso   1.00
C1546  C     0.82467   0.88561   0.83760   0.00000  Uiso   1.00
C1547  C     0.79507   0.91095   0.85313   0.00000  Uiso   1.00
C1548  C     0.67119   0.61222   0.15921   0.00000  Uiso   1.00
C1549  C     0.70076   0.58703   0.14341   0.00000  Uiso   1.00
C1550  C     0.96825   0.58659   0.74560   0.00000  Uiso   1.00
C1551  C     0.50744   0.59996   0.74692   0.00000  Uiso   1.00
C1552  C     0.53793   0.90485   0.27256   0.00000  Uiso   1.00
C1553  C     0.99837   0.91647   0.26674   0.00000  Uiso   1.00
C1554  C     0.87676   0.68609   0.66786   0.00000  Uiso   1.00
C1555  C     0.50001   0.74994   0.39847   0.00000  Uiso   1.00
C1556  C     0.87158   0.72262   0.64751   0.00000  Uiso   1.00
C1557  C     0.64600   0.78098   0.22745   0.00000  Uiso   1.00
C1558  C     0.66352   0.74394   0.23535   0.00000  Uiso   1.00
C1559  C     0.86009   0.93261   0.66803   0.00000  Uiso   1.00
C1560  C     0.84793   0.94140   0.62682   0.00000  Uiso   1.00
C1561  C     0.64058   0.56830   0.33228   0.00000  Uiso   1.00
C1562  C     0.65120   0.56097   0.37430   0.00000  Uiso   1.00
C1563  C     0.65007   0.79835   0.69239   0.00000  Uiso   1.00
C1564  C     0.65545   0.75784   0.68433   0.00000  Uiso   1.00
C1565  C     0.85399   0.71900   0.22734   0.00000  Uiso   1.00
C1566  C     0.99999   0.74991   0.60155   0.00000  Uiso   1.00
C1567  C     0.83647   0.75605   0.23518   0.00000  Uiso   1.00
C1568  C     0.64103   0.56859   0.66704   0.00000  Uiso   1.00
C1569  C     0.65375   0.56082   0.62582   0.00000  Uiso   1.00
C1570  C     0.85949   0.93165   0.33230   0.00000  Uiso   1.00
C1571  C     0.84892   0.93896   0.37432   0.00000  Uiso   1.00
C1572  C     0.92513   0.86418   0.33773   0.00000  Uiso   1.00
C1573  C     0.95477   0.83887   0.35328   0.00000  Uiso   1.00
C1574  C     0.57499   0.63581   0.66159   0.00000  Uiso   1.00
C1575  C     0.54508   0.66114   0.64668   0.00000  Uiso   1.00
C1576  C     0.78331   0.66039   0.23539   0.00000  Uiso   1.00
C1577  C     0.75005   0.50001   0.39847   0.00000  Uiso   1.00
C1578  C     0.74359   0.64865   0.23631   0.00000  Uiso   1.00
C1579  C     0.71205   0.84505   0.77177   0.00000  Uiso   1.00
C1580  C     0.75169   0.83383   0.76584   0.00000  Uiso   1.00
C1581  C     0.57502   0.63582   0.33775   0.00000  Uiso   1.00
C1582  C     0.54542   0.66113   0.35331   0.00000  Uiso   1.00
C1583  C     0.92226   0.86308   0.65967   0.00000  Uiso   1.00
C1584  C     0.95156   0.83779   0.64347   0.00000  Uiso   1.00
C1585  C     0.71667   0.83960   0.23544   0.00000  Uiso   1.00
C1586  C     0.75639   0.85136   0.23635   0.00000  Uiso   1.00
C1587  C     0.79738   0.64543   0.68419   0.00000  Uiso   1.00
C1588  C     0.96680   0.74961   0.58120   0.00000  Uiso   1.00
C1589  C     0.75011   0.50002   0.60155   0.00000  Uiso   1.00
C1590  C     0.75662   0.63976   0.67802   0.00000  Uiso   1.00
C1591  C     0.75002   0.99999   0.89846   0.00000  Uiso   1.00
C1592  C     0.74998   0.50001   0.10154   0.00000  Uiso   1.00
C1593  C     0.50004   0.75000   0.89846   0.00000  Uiso   1.00
C1594  C     0.50000   0.75000   0.10154   0.00000  Uiso   1.00
C1595  C     0.93347   0.74946   0.47971   0.00000  Uiso   1.00
C1596  C     0.56653   0.75020   0.52033   0.00000  Uiso   1.00
C1597  C     0.75040   0.56655   0.47974   0.00000  Uiso   1.00
C1598  C     0.74990   0.93350   0.52027   0.00000  Uiso   1.00
C1599  C     0.56653   0.75020   0.47982   0.00000  Uiso   1.00
C1600  C     0.74989   0.96681   0.41881   0.00000  Uiso   1.00
C1601  C     0.93347   0.74942   0.52023   0.00000  Uiso   1.00
C1602  C     0.74991   0.93350   0.47976   0.00000  Uiso   1.00
C1603  C     0.75046   0.56655   0.52026   0.00000  Uiso   1.00
C1604  C     0.68349   0.99859   0.97968   0.00000  Uiso   1.00
C1605  C     0.81651   0.50148   0.02033   0.00000  Uiso   1.00
C1606  C     0.50083   0.81651   0.97973   0.00000  Uiso   1.00
C1607  C     0.99918   0.68349   0.02026   0.00000  Uiso   1.00
C1608  C     0.81652   0.50141   0.97981   0.00000  Uiso   1.00
C1609  C     0.68349   0.99853   0.02020   0.00000  Uiso   1.00
C1610  C     0.99927   0.68348   0.97975   0.00000  Uiso   1.00
C1611  C     0.75043   0.53323   0.58122   0.00000  Uiso   1.00
C1612  C     0.50089   0.81651   0.02024   0.00000  Uiso   1.00
C1613  C     0.75001   0.50000   0.35599   0.00000  Uiso   1.00
C1614  C     0.75003   0.50001   0.64401   0.00000  Uiso   1.00
C1615  C     0.50001   0.74999   0.35599   0.00000  Uiso   1.00
C1616  C     0.99999   0.74998   0.64401   0.00000  Uiso   1.00
C1617  C     0.50001   0.75000   0.85599   0.00000  Uiso   1.00
C1618  C     0.50000   0.75000   0.14401   0.00000  Uiso   1.00
C1619  C     0.75001   0.99999   0.85599   0.00000  Uiso   1.00
C1620  C     0.74999   0.50000   0.14401   0.00000  Uiso   1.00
C1621  C     0.68007   0.57009   0.24977   0.00000  Uiso   1.00
C1622  C     0.96680   0.74968   0.41878   0.00000  Uiso   1.00
C1623  C     0.81993   0.92993   0.75019   0.00000  Uiso   1.00
C1624  C     0.92995   0.68004   0.24989   0.00000  Uiso   1.00
C1625  C     0.56996   0.82020   0.74977   0.00000  Uiso   1.00
C1626  C     0.81991   0.92991   0.24977   0.00000  Uiso   1.00
C1627  C     0.68010   0.57010   0.75017   0.00000  Uiso   1.00
C1628  C     0.57006   0.81997   0.24990   0.00000  Uiso   1.00
C1629  C     0.93057   0.67920   0.74863   0.00000  Uiso   1.00
C1630  C     0.67993   0.93006   0.74987   0.00000  Uiso   1.00
C1631  C     0.81997   0.57018   0.24980   0.00000  Uiso   1.00
C1632  C     0.93008   0.82010   0.74977   0.00000  Uiso   1.00
C1633  C     0.53320   0.75013   0.58125   0.00000  Uiso   1.00
C1634  C     0.56992   0.67992   0.25017   0.00000  Uiso   1.00
C1635  C     0.82021   0.56992   0.74959   0.00000  Uiso   1.00
C1636  C     0.68002   0.92982   0.24979   0.00000  Uiso   1.00
C1637  C     0.56987   0.67988   0.74976   0.00000  Uiso   1.00
C1638  C     0.93009   0.82008   0.25017   0.00000  Uiso   1.00
C1639  C     0.61594   0.91068   0.23960   0.00000  Uiso   1.00
C1640  C     0.88593   0.58669   0.75618   0.00000  Uiso   1.00
C1641  C     0.60997   0.63700   0.21424   0.00000  Uiso   1.00
C1642  C     0.88975   0.86279   0.78560   0.00000  Uiso   1.00
C1643  C     0.88406   0.58932   0.23965   0.00000  Uiso   1.00
C1644  C     0.75027   0.53322   0.41879   0.00000  Uiso   1.00
C1645  C     0.61445   0.91270   0.75467   0.00000  Uiso   1.00
C1646  C     0.89000   0.86302   0.21424   0.00000  Uiso   1.00
C1647  C     0.61047   0.63743   0.78559   0.00000  Uiso   1.00
C1648  C     0.63691   0.60985   0.78535   0.00000  Uiso   1.00
C1649  C     0.86383   0.89090   0.21453   0.00000  Uiso   1.00
C1650  C     0.58778   0.88537   0.75618   0.00000  Uiso   1.00
C1651  C     0.91113   0.61596   0.24182   0.00000  Uiso   1.00
C1652  C     0.86336   0.89041   0.78536   0.00000  Uiso   1.00
C1653  C     0.63611   0.60909   0.21453   0.00000  Uiso   1.00
C1654  C     0.91269   0.61392   0.75733   0.00000  Uiso   1.00
C1655  C     0.74989   0.96682   0.58121   0.00000  Uiso   1.00
C1656  C     0.58887   0.88403   0.24179   0.00000  Uiso   1.00
C1657  C     0.87028   0.65611   0.72539   0.00000  Uiso   1.00
C1658  C     0.63555   0.83732   0.25434   0.00000  Uiso   1.00
C1659  C     0.86054   0.88761   0.71423   0.00000  Uiso   1.00
C1660  C     0.63984   0.61287   0.28557   0.00000  Uiso   1.00
C1661  C     0.63391   0.83948   0.73908   0.00000  Uiso   1.00
C1662  C     0.86446   0.66268   0.25430   0.00000  Uiso   1.00
C1663  C     0.63960   0.61267   0.71421   0.00000  Uiso   1.00
C1664  C     0.86019   0.88710   0.28557   0.00000  Uiso   1.00
C1665  C     0.88658   0.85948   0.28531   0.00000  Uiso   1.00
C1666  C     0.78321   0.50069   0.91882   0.00000  Uiso   1.00
C1667  C     0.61311   0.64022   0.71445   0.00000  Uiso   1.00
C1668  C     0.83778   0.63537   0.25579   0.00000  Uiso   1.00
C1669  C     0.66100   0.86608   0.74133   0.00000  Uiso   1.00
C1670  C     0.61348   0.64052   0.28531   0.00000  Uiso   1.00
C1671  C     0.88655   0.85958   0.71449   0.00000  Uiso   1.00
C1672  C     0.66223   0.86463   0.25580   0.00000  Uiso   1.00
C1673  C     0.84200   0.63088   0.72947   0.00000  Uiso   1.00
C1674  C     0.96656   0.74966   0.45927   0.00000  Uiso   1.00
C1675  C     0.53344   0.75004   0.54077   0.00000  Uiso   1.00
C1676  C     0.75027   0.53346   0.45928   0.00000  Uiso   1.00
H1677  H     0.90762   0.74932   0.46437   0.00000  Uiso   1.00
H1678  H     0.84234   0.50206   0.03568   0.00000  Uiso   1.00
H1679  H     0.68826   0.56485   0.12600   0.00000  Uiso   1.00
H1680  H     0.71966   0.60271   0.12460   0.00000  Uiso   1.00
H1681  H     0.71664   0.57500   0.16777   0.00000  Uiso   1.00
H1682  H     0.95863   0.58917   0.71489   0.00000  Uiso   1.00
H1683  H     0.96831   0.55732   0.75393   0.00000  Uiso   1.00
H1684  H     0.51750   0.60072   0.77736   0.00000  Uiso   1.00
H1685  H     0.52522   0.58131   0.72982   0.00000  Uiso   1.00
H1686  H     0.50883   0.62766   0.73402   0.00000  Uiso   1.00
H1687  H     0.55312   0.92850   0.28478   0.00000  Uiso   1.00
H1688  H     0.53859   0.88188   0.29378   0.00000  Uiso   1.00
H1689  H     0.50111   0.84235   0.96441   0.00000  Uiso   1.00
H1690  H     0.98205   0.89305   0.25605   0.00000  Uiso   1.00
H1691  H     0.98679   0.92610   0.29474   0.00000  Uiso   1.00
H1692  H     0.99677   0.93905   0.24527   0.00000  Uiso   1.00
H1693  H     0.86206   0.66488   0.65102   0.00000  Uiso   1.00
H1694  H     0.90632   0.67888   0.66696   0.00000  Uiso   1.00
H1695  H     0.88745   0.74410   0.66271   0.00000  Uiso   1.00
H1696  H     0.84223   0.73039   0.64745   0.00000  Uiso   1.00
H1697  H     0.88123   0.72060   0.61701   0.00000  Uiso   1.00
H1698  H     0.66186   0.79481   0.20417   0.00000  Uiso   1.00
H1699  H     0.61794   0.77618   0.21639   0.00000  Uiso   1.00
H1700  H     0.99885   0.65765   0.03559   0.00000  Uiso   1.00
H1701  H     0.64673   0.72832   0.25637   0.00000  Uiso   1.00
H1702  H     0.69137   0.74746   0.24750   0.00000  Uiso   1.00
H1703  H     0.66563   0.72820   0.20790   0.00000  Uiso   1.00
H1704  H     0.89047   0.93244   0.66879   0.00000  Uiso   1.00
H1705  H     0.85017   0.95493   0.68720   0.00000  Uiso   1.00
H1706  H     0.81767   0.94246   0.62535   0.00000  Uiso   1.00
H1707  H     0.85895   0.96831   0.61788   0.00000  Uiso   1.00
H1708  H     0.85809   0.92014   0.60647   0.00000  Uiso   1.00
H1709  H     0.65179   0.54568   0.31436   0.00000  Uiso   1.00
H1710  H     0.61026   0.56774   0.33006   0.00000  Uiso   1.00
H1711  H     0.84236   0.50194   0.96452   0.00000  Uiso   1.00
H1712  H     0.63993   0.58269   0.39341   0.00000  Uiso   1.00
H1713  H     0.64021   0.53418   0.38369   0.00000  Uiso   1.00
H1714  H     0.68140   0.56042   0.37717   0.00000  Uiso   1.00
H1715  H     0.67516   0.81289   0.68303   0.00000  Uiso   1.00
H1716  H     0.62650   0.80816   0.67464   0.00000  Uiso   1.00
H1717  H     0.63053   0.74255   0.69257   0.00000  Uiso   1.00
H1718  H     0.67902   0.74721   0.70129   0.00000  Uiso   1.00
H1719  H     0.66081   0.75352   0.65291   0.00000  Uiso   1.00
H1720  H     0.83810   0.70515   0.20407   0.00000  Uiso   1.00
H1721  H     0.88204   0.72378   0.21629   0.00000  Uiso   1.00
H1722  H     0.65764   0.99795   0.03550   0.00000  Uiso   1.00
H1723  H     0.85329   0.77168   0.25620   0.00000  Uiso   1.00
H1724  H     0.83434   0.77176   0.20772   0.00000  Uiso   1.00
H1725  H     0.80864   0.75255   0.24733   0.00000  Uiso   1.00
H1726  H     0.61067   0.56855   0.66729   0.00000  Uiso   1.00
H1727  H     0.65091   0.54596   0.68584   0.00000  Uiso   1.00
H1728  H     0.68403   0.56023   0.62476   0.00000  Uiso   1.00
H1729  H     0.64322   0.53394   0.61610   0.00000  Uiso   1.00
H1730  H     0.64349   0.58236   0.60584   0.00000  Uiso   1.00
H1731  H     0.84826   0.95428   0.31438   0.00000  Uiso   1.00
H1732  H     0.88981   0.93222   0.33009   0.00000  Uiso   1.00
H1733  H     0.99900   0.65764   0.96443   0.00000  Uiso   1.00
H1734  H     0.86022   0.91723   0.39342   0.00000  Uiso   1.00
H1735  H     0.85991   0.96574   0.38373   0.00000  Uiso   1.00
H1736  H     0.81873   0.93950   0.37718   0.00000  Uiso   1.00
H1737  H     0.91319   0.87921   0.36271   0.00000  Uiso   1.00
H1738  H     0.93844   0.88435   0.31804   0.00000  Uiso   1.00
H1739  H     0.94261   0.81803   0.37272   0.00000  Uiso   1.00
H1740  H     0.96897   0.82512   0.32882   0.00000  Uiso   1.00
H1741  H     0.97512   0.85488   0.36997   0.00000  Uiso   1.00
H1742  H     0.56194   0.61501   0.68074   0.00000  Uiso   1.00
H1743  H     0.58712   0.62151   0.63622   0.00000  Uiso   1.00
H1744  H     0.50121   0.84235   0.03557   0.00000  Uiso   1.00
H1745  H     0.55701   0.68242   0.62761   0.00000  Uiso   1.00
H1746  H     0.52481   0.64527   0.62974   0.00000  Uiso   1.00
H1747  H     0.53086   0.67436   0.67146   0.00000  Uiso   1.00
H1748  H     0.79455   0.65318   0.20619   0.00000  Uiso   1.00
H1749  H     0.78385   0.69045   0.23909   0.00000  Uiso   1.00
H1750  H     0.72754   0.66556   0.21562   0.00000  Uiso   1.00
H1751  H     0.74153   0.61956   0.22764   0.00000  Uiso   1.00
H1752  H     0.73204   0.65232   0.26589   0.00000  Uiso   1.00
H1753  H     0.69707   0.82117   0.78374   0.00000  Uiso   1.00
H1754  H     0.71124   0.86782   0.79324   0.00000  Uiso   1.00
H1755  H     0.55892   0.75034   0.40322   0.00000  Uiso   1.00
H1756  H     0.76782   0.85751   0.75548   0.00000  Uiso   1.00
H1757  H     0.76337   0.82396   0.79372   0.00000  Uiso   1.00
H1758  H     0.75346   0.81152   0.74407   0.00000  Uiso   1.00
H1759  H     0.58701   0.62079   0.36272   0.00000  Uiso   1.00
H1760  H     0.56168   0.61566   0.31806   0.00000  Uiso   1.00
H1761  H     0.53116   0.67489   0.32886   0.00000  Uiso   1.00
H1762  H     0.52510   0.64512   0.37002   0.00000  Uiso   1.00
H1763  H     0.55761   0.68197   0.37275   0.00000  Uiso   1.00
H1764  H     0.93612   0.88424   0.67761   0.00000  Uiso   1.00
H1765  H     0.90854   0.87684   0.63487   0.00000  Uiso   1.00
H1766  H     0.94111   0.74944   0.59681   0.00000  Uiso   1.00
H1767  H     0.93884   0.81610   0.62554   0.00000  Uiso   1.00
H1768  H     0.97075   0.85356   0.62509   0.00000  Uiso   1.00
H1769  H     0.96716   0.82510   0.66765   0.00000  Uiso   1.00
H1770  H     0.70539   0.84678   0.20624   0.00000  Uiso   1.00
H1771  H     0.71615   0.80954   0.23917   0.00000  Uiso   1.00
H1772  H     0.77242   0.83444   0.21568   0.00000  Uiso   1.00
H1773  H     0.75842   0.88044   0.22764   0.00000  Uiso   1.00
H1774  H     0.76798   0.84772   0.26594   0.00000  Uiso   1.00
H1775  H     0.81229   0.62528   0.66568   0.00000  Uiso   1.00
H1776  H     0.80336   0.67364   0.67452   0.00000  Uiso   1.00
H1777  H     0.74971   0.94111   0.40318   0.00000  Uiso   1.00
H1778  H     0.74065   0.65731   0.69819   0.00000  Uiso   1.00
H1779  H     0.74919   0.64695   0.64768   0.00000  Uiso   1.00
H1780  H     0.74946   0.61079   0.68290   0.00000  Uiso   1.00
H1781  H     0.59238   0.75034   0.53568   0.00000  Uiso   1.00
H1782  H     0.75069   0.55893   0.59685   0.00000  Uiso   1.00
H1783  H     0.94110   0.74951   0.40312   0.00000  Uiso   1.00
H1784  H     0.55891   0.75036   0.59691   0.00000  Uiso   1.00
H1785  H     0.75042   0.55891   0.40316   0.00000  Uiso   1.00
H1786  H     0.74965   0.94112   0.59684   0.00000  Uiso   1.00
H1787  H     0.80891   0.50123   0.90321   0.00000  Uiso   1.00
H1788  H     0.69110   0.99838   0.09680   0.00000  Uiso   1.00
H1789  H     0.99933   0.69110   0.90316   0.00000  Uiso   1.00
H1790  H     0.50115   0.80889   0.09682   0.00000  Uiso   1.00
H1791  H     0.69112   0.99876   0.90310   0.00000  Uiso   1.00
H1792  H     0.75047   0.59239   0.46442   0.00000  Uiso   1.00
H1793  H     0.80887   0.50163   0.09690   0.00000  Uiso   1.00
H1794  H     0.50080   0.80889   0.90315   0.00000  Uiso   1.00
H1795  H     0.99886   0.69111   0.09683   0.00000  Uiso   1.00
H1796  H     0.57416   0.93777   0.18435   0.00000  Uiso   1.00
H1797  H     0.62268   0.94309   0.17553   0.00000  Uiso   1.00
H1798  H     0.61818   0.50840   0.19464   0.00000  Uiso   1.00
H1799  H     0.56983   0.50311   0.20375   0.00000  Uiso   1.00
H1800  H     0.58761   0.99774   0.15509   0.00000  Uiso   1.00
H1801  H     0.91632   0.53897   0.71413   0.00000  Uiso   1.00
H1802  H     0.87072   0.52306   0.72317   0.00000  Uiso   1.00
H1803  H     0.74981   0.90766   0.53560   0.00000  Uiso   1.00
H1804  H     0.91488   0.97226   0.72554   0.00000  Uiso   1.00
H1805  H     0.89465   0.97943   0.77278   0.00000  Uiso   1.00
H1806  H     0.94052   0.99501   0.76317   0.00000  Uiso   1.00
H1807  H     0.63875   0.68079   0.16675   0.00000  Uiso   1.00
H1808  H     0.59890   0.70365   0.18576   0.00000  Uiso   1.00
H1809  H     0.56494   0.68957   0.12513   0.00000  Uiso   1.00
H1810  H     0.60582   0.71557   0.11594   0.00000  Uiso   1.00
H1811  H     0.60507   0.66716   0.10571   0.00000  Uiso   1.00
H1812  H     0.90164   0.79555   0.81425   0.00000  Uiso   1.00
H1813  H     0.86009   0.81759   0.82995   0.00000  Uiso   1.00
H1814  H     0.59238   0.75034   0.46452   0.00000  Uiso   1.00
H1815  H     0.88969   0.83240   0.89337   0.00000  Uiso   1.00
H1816  H     0.88998   0.78391   0.88355   0.00000  Uiso   1.00
H1817  H     0.93118   0.81015   0.87714   0.00000  Uiso   1.00
H1818  H     0.92582   0.56219   0.18446   0.00000  Uiso   1.00
H1819  H     0.87730   0.55685   0.17560   0.00000  Uiso   1.00
H1820  H     0.88181   0.99156   0.19477   0.00000  Uiso   1.00
H1821  H     0.93015   0.99686   0.20395   0.00000  Uiso   1.00
H1822  H     0.91237   0.50220   0.15525   0.00000  Uiso   1.00
H1823  H     0.58753   0.95572   0.70524   0.00000  Uiso   1.00
H1824  H     0.63166   0.97409   0.71708   0.00000  Uiso   1.00
H1825  H     0.90762   0.74926   0.53554   0.00000  Uiso   1.00
H1826  H     0.60351   0.52166   0.75795   0.00000  Uiso   1.00
H1827  H     0.58407   0.52233   0.70970   0.00000  Uiso   1.00
H1828  H     0.55871   0.50278   0.74937   0.00000  Uiso   1.00
H1829  H     0.86120   0.81926   0.16668   0.00000  Uiso   1.00
H1830  H     0.90107   0.79640   0.18573   0.00000  Uiso   1.00
H1831  H     0.93501   0.81051   0.12515   0.00000  Uiso   1.00
H1832  H     0.89413   0.78451   0.11590   0.00000  Uiso   1.00
H1833  H     0.89487   0.83293   0.10569   0.00000  Uiso   1.00
H1834  H     0.59848   0.70487   0.81391   0.00000  Uiso   1.00
H1835  H     0.64039   0.68312   0.82906   0.00000  Uiso   1.00
H1836  H     0.74982   0.90766   0.46444   0.00000  Uiso   1.00
H1837  H     0.61178   0.66844   0.89303   0.00000  Uiso   1.00
H1838  H     0.61118   0.71688   0.88296   0.00000  Uiso   1.00
H1839  H     0.56998   0.69048   0.87732   0.00000  Uiso   1.00
H1840  H     0.66501   0.63135   0.86087   0.00000  Uiso   1.00
H1841  H     0.69073   0.63319   0.81609   0.00000  Uiso   1.00
H1842  H     0.71888   0.57369   0.83052   0.00000  Uiso   1.00
H1843  H     0.72562   0.60486   0.87037   0.00000  Uiso   1.00
H1844  H     0.69172   0.56937   0.87429   0.00000  Uiso   1.00
H1845  H     0.81506   0.86604   0.17660   0.00000  Uiso   1.00
H1846  H     0.84261   0.87471   0.13416   0.00000  Uiso   1.00
H1847  H     0.75057   0.59239   0.53558   0.00000  Uiso   1.00
H1848  H     0.81150   0.93512   0.12601   0.00000  Uiso   1.00
H1849  H     0.78010   0.89725   0.12466   0.00000  Uiso   1.00
H1850  H     0.78322   0.92496   0.16782   0.00000  Uiso   1.00
H1851  H     0.54398   0.90413   0.70750   0.00000  Uiso   1.00
H1852  H     0.53383   0.94088   0.74127   0.00000  Uiso   1.00
H1853  H     0.97710   0.91670   0.71820   0.00000  Uiso   1.00
H1854  H     0.99110   0.87041   0.72887   0.00000  Uiso   1.00
H1855  H     0.98224   0.90236   0.76806   0.00000  Uiso   1.00
H1856  H     0.94692   0.57152   0.28486   0.00000  Uiso   1.00
H1857  H     0.96145   0.61814   0.29384   0.00000  Uiso   1.00
H1858  H     0.65765   0.99806   0.96434   0.00000  Uiso   1.00
H1859  H     0.51796   0.60696   0.25615   0.00000  Uiso   1.00
H1860  H     0.51326   0.57392   0.29486   0.00000  Uiso   1.00
H1861  H     0.50323   0.56094   0.24539   0.00000  Uiso   1.00
H1862  H     0.83653   0.87047   0.86257   0.00000  Uiso   1.00
H1863  H     0.81137   0.86555   0.81778   0.00000  Uiso   1.00
H1864  H     0.78095   0.92482   0.82866   0.00000  Uiso   1.00
H1865  H     0.77465   0.89494   0.86969   0.00000  Uiso   1.00
H1866  H     0.80724   0.93170   0.87270   0.00000  Uiso   1.00
H1867  H     0.68484   0.63392   0.17659   0.00000  Uiso   1.00
H1868  H     0.65719   0.62529   0.13416   0.00000  Uiso   1.00
O1869  O     0.75000   0.50000   0.25000   0.00000  Uiso   1.00
O1870  O     0.75000   0.96963   0.66245   0.00000  Uiso   1.00
O1871  O     0.96964   0.75000   0.33755   0.00000  Uiso   1.00
O1872  O     0.53037   0.75000   0.66245   0.00000  Uiso   1.00
O1873  O     0.50000   0.71964   0.83755   0.00000  Uiso   1.00
O1874  O     0.50000   0.78037   0.16245   0.00000  Uiso   1.00
O1875  O     0.78037   0.50000   0.83755   0.00000  Uiso   1.00
O1876  O     0.71964   0.50000   0.16245   0.00000  Uiso   1.00
O1877  O     0.50000   0.78037   0.83755   0.00000  Uiso   1.00
O1878  O     0.50000   0.71964   0.16245   0.00000  Uiso   1.00
O1879  O     0.71964   0.50000   0.83755   0.00000  Uiso   1.00
O1880  O     0.75000   0.50000   0.75000   0.00000  Uiso   1.00
O1881  O     0.78037   0.50000   0.16245   0.00000  Uiso   1.00
O1882  O     0.70725   0.57308   0.27302   0.00000  Uiso   1.00
O1883  O     0.79276   0.92692   0.72698   0.00000  Uiso   1.00
O1884  O     0.92693   0.70725   0.27302   0.00000  Uiso   1.00
O1885  O     0.57308   0.79275   0.72698   0.00000  Uiso   1.00
O1886  O     0.79276   0.92692   0.27302   0.00000  Uiso   1.00
O1887  O     0.70725   0.57308   0.72698   0.00000  Uiso   1.00
O1888  O     0.57308   0.79275   0.27302   0.00000  Uiso   1.00
O1889  O     0.92693   0.70725   0.72698   0.00000  Uiso   1.00
O1890  O     0.70725   0.92692   0.72698   0.00000  Uiso   1.00
O1891  O     0.50000   0.75000   0.25000   0.00000  Uiso   1.00
O1892  O     0.79276   0.57308   0.27302   0.00000  Uiso   1.00
O1893  O     0.92693   0.79276   0.72698   0.00000  Uiso   1.00
O1894  O     0.57308   0.70724   0.27302   0.00000  Uiso   1.00
O1895  O     0.79276   0.57308   0.72698   0.00000  Uiso   1.00
O1896  O     0.70725   0.92692   0.27302   0.00000  Uiso   1.00
O1897  O     0.57308   0.70724   0.72698   0.00000  Uiso   1.00
O1898  O     0.92693   0.79276   0.27302   0.00000  Uiso   1.00
O1899  O     0.95725   0.82308   0.77302   0.00000  Uiso   1.00
O1900  O     0.54276   0.67692   0.22698   0.00000  Uiso   1.00
O1901  O     0.67693   0.95724   0.77302   0.00000  Uiso   1.00
O1902  O     0.50000   0.75000   0.75000   0.00000  Uiso   1.00
O1903  O     0.82308   0.54276   0.22698   0.00000  Uiso   1.00
O1904  O     0.54276   0.67692   0.77302   0.00000  Uiso   1.00
O1905  O     0.95725   0.82308   0.22698   0.00000  Uiso   1.00
O1906  O     0.82308   0.54276   0.77302   0.00000  Uiso   1.00
O1907  O     0.67693   0.95724   0.22698   0.00000  Uiso   1.00
O1908  O     0.95725   0.67693   0.22698   0.00000  Uiso   1.00
O1909  O     0.54276   0.82307   0.77302   0.00000  Uiso   1.00
O1910  O     0.67693   0.54276   0.22698   0.00000  Uiso   1.00
O1911  O     0.82308   0.95724   0.77302   0.00000  Uiso   1.00
O1912  O     0.54276   0.82307   0.22698   0.00000  Uiso   1.00
O1913  O     0.75000   0.96963   0.33755   0.00000  Uiso   1.00
O1914  O     0.95725   0.67693   0.77302   0.00000  Uiso   1.00
O1915  O     0.82308   0.95724   0.22698   0.00000  Uiso   1.00
O1916  O     0.67693   0.54276   0.77302   0.00000  Uiso   1.00
O1917  O     0.60612   0.94683   0.23366   0.00000  Uiso   1.00
O1918  O     0.89479   0.55189   0.76909   0.00000  Uiso   1.00
O1919  O     0.59407   0.64703   0.17923   0.00000  Uiso   1.00
O1920  O     0.90499   0.85219   0.82075   0.00000  Uiso   1.00
O1921  O     0.89387   0.55316   0.23375   0.00000  Uiso   1.00
O1922  O     0.60456   0.94843   0.76311   0.00000  Uiso   1.00
O1923  O     0.90587   0.85302   0.17923   0.00000  Uiso   1.00
O1924  O     0.75000   0.53037   0.66245   0.00000  Uiso   1.00
O1925  O     0.59551   0.64824   0.82077   0.00000  Uiso   1.00
O1926  O     0.64795   0.59398   0.82000   0.00000  Uiso   1.00
O1927  O     0.85450   0.90852   0.18025   0.00000  Uiso   1.00
O1928  O     0.55244   0.89380   0.76765   0.00000  Uiso   1.00
O1929  O     0.94733   0.60605   0.23652   0.00000  Uiso   1.00
O1930  O     0.85257   0.90651   0.81998   0.00000  Uiso   1.00
O1931  O     0.64538   0.59147   0.18025   0.00000  Uiso   1.00
O1932  O     0.94690   0.60641   0.77273   0.00000  Uiso   1.00
O1933  O     0.55267   0.89394   0.23647   0.00000  Uiso   1.00
O1934  O     0.86330   0.68874   0.70645   0.00000  Uiso   1.00
O1935  O     0.53037   0.75000   0.33755   0.00000  Uiso   1.00
O1936  O     0.64553   0.80152   0.26232   0.00000  Uiso   1.00
O1937  O     0.84541   0.89847   0.67912   0.00000  Uiso   1.00
O1938  O     0.65515   0.60235   0.32072   0.00000  Uiso   1.00
O1939  O     0.64368   0.80341   0.73253   0.00000  Uiso   1.00
O1940  O     0.85448   0.69849   0.26223   0.00000  Uiso   1.00
O1941  O     0.65530   0.60256   0.67916   0.00000  Uiso   1.00
O1942  O     0.84493   0.89761   0.32071   0.00000  Uiso   1.00
O1943  O     0.89732   0.84328   0.31991   0.00000  Uiso   1.00
O1944  O     0.60257   0.65664   0.67991   0.00000  Uiso   1.00
O1945  O     0.80231   0.64393   0.26666   0.00000  Uiso   1.00
O1946  O     0.96964   0.75000   0.66245   0.00000  Uiso   1.00
O1947  O     0.69716   0.85615   0.73579   0.00000  Uiso   1.00
O1948  O     0.60280   0.65672   0.31991   0.00000  Uiso   1.00
O1949  O     0.89610   0.84226   0.68013   0.00000  Uiso   1.00
O1950  O     0.69772   0.85608   0.26669   0.00000  Uiso   1.00
O1951  O     0.80588   0.64186   0.72413   0.00000  Uiso   1.00
O1952  O     0.75000   0.53037   0.33755   0.00000  Uiso   1.00
Zn1953 Zn    0.70660   0.50000   0.21735   0.00000  Uiso   1.00
Zn1954 Zn    0.54341   0.75000   0.28265   0.00000  Uiso   1.00
Zn1955 Zn    0.75000   0.95659   0.71735   0.00000  Uiso   1.00
Zn1956 Zn    0.75000   0.54341   0.28265   0.00000  Uiso   1.00
Zn1957 Zn    0.54341   0.75000   0.71735   0.00000  Uiso   1.00
Zn1958 Zn    0.95660   0.75000   0.28265   0.00000  Uiso   1.00
Zn1959 Zn    0.75000   0.54341   0.71735   0.00000  Uiso   1.00
Zn1960 Zn    0.75000   0.95659   0.28265   0.00000  Uiso   1.00
Zn1961 Zn    0.79341   0.50000   0.78265   0.00000  Uiso   1.00
Zn1962 Zn    0.50000   0.70660   0.21735   0.00000  Uiso   1.00
Zn1963 Zn    0.50000   0.79341   0.78265   0.00000  Uiso   1.00
Zn1964 Zn    0.79341   0.50000   0.21735   0.00000  Uiso   1.00
Zn1965 Zn    0.70660   0.50000   0.78265   0.00000  Uiso   1.00
Zn1966 Zn    0.50000   0.79341   0.21735   0.00000  Uiso   1.00
Zn1967 Zn    0.50000   0.70660   0.78265   0.00000  Uiso   1.00
Zn1968 Zn    0.95660   0.75000   0.71735   0.00000  Uiso   1.00
loop_
_geom_bond_atom_site_label_1
_geom_bond_atom_site_label_2
_geom_bond_distance
_geom_bond_site_symmetry_2
_ccdc_geom_bond_type
C1     C79     1.403   .     A
C1     H279    1.084   .     S
C1     C4      1.394   .     A
C2     C14     1.394   .     A
C2     H312    1.084   .     S
C2     C1100   1.403   .     S
C3     C179    1.394   .     A
C3     C122    1.402   .     A
C3     C1022   1.411   .     S
C4     C34     1.411   .     A
C4     C123    1.402   .     A
C5     C528    1.411   .     A
C5     C112    1.394   .     A
C5     C125    1.402   .     A
C6     C126    1.402   .     A
C6     C124    1.394   .     A
C6     C1021   1.411   .     S
C7     C127    1.402   .     A
C7     C135    1.394   .     A
C7     C38     1.411   .     A
C8     C35     1.394   .     A
C8     C128    1.402   .     A
C8     C1023   1.411   .     S
C9     C46     1.394   .     A
C9     C40     1.411   .     A
C9     C129    1.402   .     A
C10    C41     1.411   .     A
C10    C130    1.402   .     A
C10    C57     1.394   .     A
C11    C68     1.394   .     A
C11    C131    1.402   .     A
C11    C534    1.411   .     S
C12    C132    1.402   .     A
C12    C39     1.411   .     A
C12    C190    1.394   .     A
C13    C15     1.394   .     A
C13    H313    1.084   .     S
C13    C609    1.403   .     S
C14    C133    1.402   .     A
C14    C1024   1.411   .     S
C15    C134    1.402   .     A
C15    C533    1.411   .     S
C16    C136    1.402   .     A
C16    C24     1.394   .     A
C16    C42     1.411   .     A
C17    C182    1.413   .     A
C17    C152    1.455   .     S
C17    C180    1.407   .     A
C18    C181    1.418   .     A
C18    C178    1.410   .     A
C18    C153    1.471   .     S
C19    C177    1.408   .     A
C19    C184    1.410   .     A
C19    C145    1.451   .     S
C20    C176    1.408   .     A
C20    C183    1.410   .     A
C20    C147    1.450   .     S
C21    C186    1.413   .     A
C21    C175    1.407   .     A
C21    C148    1.455   .     S
C22    C149    1.461   .     S
C22    C174    1.411   .     A
C22    C185    1.409   .     A
C23    C188    1.410   .     A
C23    C150    1.451   .     S
C23    C173    1.409   .     A
C24    H314    1.084   .     S
C24    C118    1.403   .     A
C25    C187    1.410   .     A
C25    C172    1.408   .     A
C25    C151    1.451   .     S
C26    C191    1.408   .     A
C26    C171    1.410   .     A
C26    C161    1.450   .     S
C27    C162    1.450   .     S
C27    C170    1.410   .     A
C27    C189    1.408   .     A
C28    C169    1.413   .     A
C28    C154    1.455   .     S
C28    C193    1.407   .     A
C29    C155    1.461   .     S
C29    C192    1.411   .     A
C29    C167    1.409   .     A
C30    C156    1.451   .     S
C30    C166    1.410   .     A
C30    C195    1.408   .     A
C31    C165    1.410   .     A
C31    C158    1.450   .     S
C31    C194    1.408   .     A
C32    C197    1.412   .     A
C32    C164    1.415   .     A
C32    C159    1.461   .     S
C33    C163    1.408   .     A
C33    C196    1.411   .     A
C33    C160    1.461   .     S
C34    C36     1.403   .     S
C34    C690    1.411   1_455 S
C35    C115    1.403   .     A
C35    H315    1.084   .     S
C36    C497    1.411   1_455 A
C36    C199    1.411   .     S
C37    C200    1.411   .     A
C37    C38     1.402   .     A
C37    C990    1.411   1_545 S
C38    C987    1.411   1_545 S
C39    C992    1.411   1_545 S
C39    C40     1.403   1_556 S
C40    C998    1.411   1_545 S
C40    C39     1.403   1_554 S
C41    C507    1.411   1_455 S
C41    C42     1.402   1_556 S
C42    C503    1.411   1_455 S
C42    C41     1.402   1_554 S
C43    H321    1.115   .     S
C43    C44     1.521   .     S
C43    O441    1.413   .     S
C43    H320    1.112   .     S
C44    H324    1.110   .     S
C44    H1306   1.110   .     S
C44    H1307   1.111   .     S
C45    O442    1.418   .     S
C45    H325    1.113   .     S
C45    H326    1.111   .     S
C45    C1031   1.523   1_545 S
C46    H317    1.084   .     S
C46    C116    1.403   .     A
C47    H329    1.110   .     S
C47    H328    1.110   .     S
C47    H330    1.110   .     S
C47    C1029   1.523   .     S
C48    O443    1.416   .     S
C48    H331    1.112   .     S
C48    C49     1.520   .     S
C48    H332    1.110   .     S
C49    H334    1.111   .     S
C49    H333    1.110   .     S
C49    H335    1.110   .     S
C50    H337    1.113   .     S
C50    O444    1.416   .     S
C50    C51     1.521   .     S
C50    H336    1.110   .     S
C51    H340    1.110   .     S
C51    H341    1.110   .     S
C51    H339    1.110   .     S
C52    H343    1.115   .     S
C52    C53     1.521   .     S
C52    H342    1.112   .     S
C52    O445    1.413   .     S
C53    H346    1.110   .     S
C53    H1328   1.110   1_545 S
C53    H1329   1.111   1_545 S
C54    O446    1.417   .     S
C54    H347    1.113   .     S
C54    H348    1.110   .     S
C54    C1039   1.523   .     S
C55    H352    1.110   .     S
C55    H350    1.110   .     S
C55    H351    1.109   .     S
C55    C1038   1.523   1_545 S
C56    H354    1.110   .     S
C56    C58     1.520   .     S
C56    O447    1.416   .     S
C56    H353    1.112   .     S
C57    H318    1.084   .     S
C57    C117    1.403   .     A
C58    H355    1.110   .     S
C58    H356    1.110   .     S
C58    H357    1.110   .     S
C59    C60     1.521   .     S
C59    H358    1.110   .     S
C59    O449    1.416   .     S
C59    H359    1.114   .     S
C60    H361    1.110   .     S
C60    H363    1.111   .     S
C60    H362    1.110   .     S
C61    H364    1.110   .     S
C61    O450    1.416   .     S
C61    C62     1.521   .     S
C61    H365    1.118   .     S
C62    H368    1.111   .     S
C62    H366    1.110   .     S
C62    H367    1.110   .     S
C63    O451    1.415   .     S
C63    H370    1.110   .     S
C63    C64     1.520   .     S
C63    H369    1.115   .     S
C64    H372    1.110   .     S
C64    H373    1.110   .     S
C64    H374    1.110   .     S
C65    H375    1.117   .     S
C65    H376    1.109   .     S
C65    O452    1.414   .     S
C65    C558    1.519   1_455 S
C66    H377    1.110   .     S
C66    H379    1.111   .     S
C66    H378    1.109   .     S
C66    C557    1.519   .     S
C67    O453    1.412   .     S
C67    H381    1.114   .     S
C67    H380    1.114   .     S
C67    C561    1.521   .     S
C68    H319    1.084   .     S
C68    C610    1.403   .     S
C69    H383    1.111   .     S
C69    H385    1.111   .     S
C69    H384    1.110   .     S
C69    C559    1.521   1_455 S
C70    H387    1.116   .     S
C70    C71     1.521   .     S
C70    O454    1.416   .     S
C70    H386    1.110   .     S
C71    H390    1.110   .     S
C71    H389    1.110   .     S
C71    H388    1.110   .     S
C72    C73     1.520   .     S
C72    H392    1.110   .     S
C72    O455    1.415   .     S
C72    H391    1.115   .     S
C73    H204    1.110   .     S
C73    H205    1.110   .     S
C73    H203    1.110   .     S
C74    H207    1.110   .     S
C74    O456    1.416   .     S
C74    H206    1.118   .     S
C74    C567    1.519   .     S
C75    H210    1.109   .     S
C75    H208    1.111   .     S
C75    H209    1.110   .     S
C75    C566    1.519   1_455 S
C76    H212    1.114   .     S
C76    H211    1.114   .     S
C76    O457    1.412   .     S
C76    C569    1.521   1_455 S
C77    H214    1.111   .     S
C77    H216    1.111   .     S
C77    H215    1.110   .     S
C77    C568    1.521   .     S
C78    H217    1.110   .     S
C78    H218    1.113   .     S
C78    C80     1.521   .     S
C78    O458    1.420   .     S
C79    C139    1.462   .     S
C79    C638    1.403   1_455 S
C80    H221    1.110   .     S
C80    H219    1.111   .     S
C80    H220    1.110   .     S
C81    H222    1.113   .     S
C81    C82     1.522   .     S
C81    H223    1.110   .     S
C81    O460    1.417   .     S
C82    H226    1.110   .     S
C82    H225    1.111   .     S
C82    H227    1.109   .     S
C83    O461    1.416   .     S
C83    C84     1.521   .     S
C83    H229    1.110   .     S
C83    H228    1.113   .     S
C84    H230    1.110   .     S
C84    H232    1.110   .     S
C84    H231    1.110   .     S
C85    H233    1.110   .     S
C85    O462    1.416   .     S
C85    C86     1.521   .     S
C85    H234    1.113   .     S
C86    H236    1.110   .     S
C86    H238    1.110   .     S
C86    H237    1.110   .     S
C87    H239    1.112   .     S
C87    C88     1.521   .     S
C87    O463    1.414   .     S
C87    H240    1.115   .     S
C88    H243    1.110   .     S
C88    H242    1.111   .     S
C88    H241    1.110   .     S
C89    H245    1.110   .     S
C89    C91     1.522   .     S
C89    O464    1.417   .     S
C89    H244    1.113   .     S
C90    C140    1.462   .     S
C90    C112    1.403   .     A
C90    C649    1.403   .     S
C91    H249    1.110   .     S
C91    H248    1.109   .     S
C91    H247    1.111   .     S
C92    H250    1.112   .     S
C92    O465    1.415   .     S
C92    C93     1.520   .     S
C92    H251    1.110   .     S
C93    H254    1.111   .     S
C93    H253    1.110   .     S
C93    H252    1.110   .     S
C94    H255    1.110   .     S
C94    C95     1.521   .     S
C94    O466    1.416   .     S
C94    H256    1.113   .     S
C95    H260    1.110   .     S
C95    H258    1.110   .     S
C95    H259    1.110   .     S
C96    H262    1.117   .     S
C96    H261    1.110   .     S
C96    O467    1.417   .     S
C96    C97     1.521   .     S
C97    H265    1.110   .     S
C97    H263    1.110   .     S
C97    H264    1.110   .     S
C98    O468    1.416   .     S
C98    C99     1.521   .     S
C98    H266    1.117   .     S
C98    H267    1.110   .     S
C99    H270    1.110   .     S
C99    H271    1.110   .     S
C99    H269    1.110   .     S
C100   C102    1.519   .     S
C100   H272    1.118   .     S
C100   H273    1.109   .     S
C100   O469    1.414   .     S
C101   C137    1.462   .     S
C101   C168    1.403   .     A
C101   C1108   1.403   1_545 S
C102   H274    1.110   .     S
C102   H275    1.109   .     S
C102   H276    1.111   .     S
C103   O471    1.412   .     S
C103   H278    1.114   .     S
C103   C104    1.521   .     S
C103   H277    1.114   .     S
C104   H280    1.111   .     S
C104   H281    1.110   .     S
C104   H282    1.111   .     S
C105   O472    1.417   .     S
C105   H283    1.110   .     S
C105   C106    1.521   .     S
C105   H284    1.117   .     S
C106   H287    1.110   .     S
C106   H285    1.110   .     S
C106   H286    1.110   .     S
C107   C108    1.520   .     S
C107   O473    1.415   .     S
C107   H288    1.115   .     S
C107   H289    1.110   .     S
C108   H291    1.110   .     S
C108   H293    1.110   .     S
C108   H292    1.110   .     S
C109   H295    1.109   .     S
C109   O474    1.414   .     S
C109   C110    1.519   .     S
C109   H294    1.117   .     S
C110   H298    1.111   .     S
C110   H296    1.110   .     S
C110   H297    1.109   .     S
C111   H300    1.109   .     S
C111   H299    1.116   .     S
C111   O475    1.415   .     S
C111   C114    1.523   .     S
C112   H290    1.084   .     S
C113   C135    1.403   .     A
C113   C138    1.462   .     S
C113   C1163   1.403   1_545 S
C114   H302    1.111   .     S
C114   H304    1.107   .     S
C114   H303    1.111   .     S
C115   C143    1.462   .     S
C115   C1174   1.403   .     S
C116   C144    1.462   .     S
C116   C986    1.403   1_545 S
C117   C141    1.462   .     S
C117   C505    1.403   1_455 S
C118   C560    1.403   1_455 S
C118   C142    1.462   .     S
C119   C198    1.402   .     A
C119   C125    1.395   .     A
C119   H201    1.084   .     S
C120   C199    1.402   .     A
C120   H305    1.084   .     S
C120   C123    1.395   .     A
C121   H316    1.084   .     S
C121   C127    1.395   .     A
C121   C200    1.402   .     A
C122   H327    1.084   .     S
C122   C126    1.394   .     A
C123   H338    1.084   .     S
C124   H301    1.084   .     S
C124   C1085   1.403   .     S
C125   H349    1.084   .     S
C126   H360    1.084   .     S
C127   H371    1.084   .     S
C128   H382    1.084   .     S
C128   C133    1.395   1_556 S
C129   H202    1.084   .     S
C129   C132    1.395   1_554 S
C130   H213    1.084   .     S
C130   C136    1.394   1_556 S
C131   H224    1.084   .     S
C131   C134    1.394   1_554 S
C132   H235    1.084   .     S
C132   C129    1.395   1_556 S
C133   H246    1.084   .     S
C133   C128    1.395   1_554 S
C134   H257    1.084   .     S
C134   C131    1.394   1_556 S
C135   H306    1.084   .     S
C136   H268    1.084   .     S
C136   C130    1.394   1_554 S
C137   O476    1.281   .     A
C137   O1421   1.281   1_545 S
C138   O448    1.280   .     A
C138   O1378   1.281   1_545 S
C139   O459    1.281   .     A
C139   O887    1.280   1_455 S
C140   O470    1.280   .     A
C140   O888    1.280   .     S
C141   O397    1.281   .     S
C141   O401    1.281   .     S
C142   O402    1.281   .     A
C142   O398    1.281   .     A
C143   O1383   1.281   .     A
C143   O1387   1.280   .     A
C144   O400    1.281   .     S
C144   O405    1.280   .     S
C145   O434    1.278   .     A
C145   O406    1.282   .     A
C146   H307    1.084   .     S
C146   C198    1.394   .     A
C146   C571    1.403   .     S
C147   O435    1.278   .     A
C147   O407    1.281   .     A
C148   O432    1.278   .     A
C148   O408    1.280   .     A
C149   O433    1.282   .     A
C149   O409    1.280   .     A
C150   O439    1.278   .     A
C150   O410    1.282   .     A
C151   O440    1.279   .     A
C151   O411    1.281   .     A
C152   O412    1.280   .     A
C152   O436    1.278   .     A
C153   O413    1.276   .     A
C153   O438    1.290   .     A
C154   O414    1.278   .     A
C154   O425    1.280   .     A
C155   O416    1.282   .     A
C155   O427    1.280   .     A
C156   O423    1.281   .     A
C156   O417    1.278   .     A
C157   H308    1.084   .     S
C157   C199    1.394   .     A
C157   C582    1.403   1_455 S
C158   O418    1.278   .     A
C158   O424    1.280   .     A
C159   O430    1.285   .     A
C159   O419    1.276   .     A
C160   O420    1.282   .     A
C160   O431    1.279   .     A
C161   O428    1.281   .     A
C161   O421    1.278   .     A
C162   O429    1.281   .     A
C162   O422    1.279   .     A
C163   O441    1.386   .     S
C163   C180    1.397   .     A
C164   O442    1.387   .     S
C164   C178    1.402   .     A
C165   C177    1.397   .     A
C165   O443    1.387   .     S
C166   O444    1.387   .     S
C166   C176    1.396   .     A
C167   C175    1.397   .     A
C167   O445    1.386   .     S
C168   H309    1.084   .     S
C168   C200    1.394   .     A
C169   C174    1.403   .     A
C169   O446    1.387   .     S
C170   C173    1.397   .     A
C170   O447    1.387   .     S
C171   C172    1.396   .     A
C171   O449    1.387   .     S
C172   O450    1.386   .     S
C173   O451    1.387   .     S
C174   O452    1.387   .     S
C175   O453    1.385   .     S
C176   O454    1.386   .     S
C177   O455    1.387   .     S
C178   O456    1.386   .     S
C179   H310    1.084   .     S
C179   C1097   1.403   .     S
C180   O457    1.385   .     S
C181   O458    1.384   .     S
C181   C197    1.398   .     A
C182   O460    1.387   .     S
C182   C196    1.403   .     A
C183   C195    1.397   .     A
C183   O461    1.387   .     S
C184   O462    1.387   .     S
C184   C194    1.396   .     A
C185   O463    1.386   .     S
C185   C193    1.396   .     A
C186   O464    1.387   .     S
C186   C192    1.403   .     A
C187   C191    1.397   .     A
C187   O465    1.386   .     S
C188   O466    1.387   .     S
C188   C189    1.396   .     A
C189   O467    1.386   .     S
C190   H311    1.084   .     S
C190   C1099   1.403   1_545 S
C191   O468    1.386   .     S
C192   O469    1.387   .     S
C193   O471    1.385   .     S
C194   O472    1.386   .     S
C195   O473    1.386   .     S
C196   O474    1.387   .     S
C197   O475    1.393   .     S
C198   C526    1.411   .     S
H322   C1028   1.110   1_545 S
H323   C1028   1.111   1_545 S
H344   C1037   1.110   .     S
H345   C1037   1.111   .     S
O393   Zn480   1.947   .     S
O393   Zn488   1.947   .     S
O393   Zn477   1.946   .     S
O393   Zn1468  1.947   1_545 S
O394   Zn479   1.949   .     S
O394   C1122   1.281   .     S
O395   Zn482   1.949   .     S
O395   C631    1.280   .     S
O396   Zn481   1.949   .     S
O396   C632    1.280   1_455 S
O397   Zn491   1.949   .     S
O398   Zn490   1.949   .     S
O399   C1127   1.281   1_545 A
O399   Zn485   1.950   .     S
O400   Zn477   1.950   .     S
O401   Zn487   1.949   .     S
O402   Zn486   1.949   .     S
O403   C1127   1.280   1_545 A
O403   Zn489   1.949   .     S
O404   Zn483   1.947   .     S
O404   Zn485   1.946   .     S
O404   Zn489   1.947   .     S
O404   Zn1463  1.947   1_545 S
O405   Zn488   1.949   .     S
O406   Zn480   1.930   .     S
O407   Zn479   1.930   .     S
O408   Zn482   1.939   .     S
O409   Zn481   1.939   .     S
O410   Zn484   1.930   .     S
O411   Zn483   1.930   .     S
O412   Zn478   1.939   .     S
O413   Zn492   1.939   .     S
O414   Zn479   1.939   .     S
O415   Zn486   1.947   .     S
O415   Zn490   1.947   .     S
O415   Zn974   1.947   1_455 S
O415   Zn478   1.946   .     S
O416   Zn480   1.939   .     S
O417   Zn492   1.931   .     S
O418   Zn478   1.931   .     S
O419   Zn483   1.939   .     S
O420   Zn484   1.939   .     S
O421   Zn481   1.930   .     S
O422   Zn482   1.930   .     S
O423   Zn979   1.930   .     S
O424   Zn486   1.930   .     S
O425   Zn1473  1.939   .     S
O426   Zn481   1.947   .     S
O426   Zn487   1.947   .     S
O426   Zn491   1.947   .     S
O426   Zn984   1.946   1_455 S
O427   Zn488   1.939   .     S
O428   Zn491   1.930   .     S
O429   Zn982   1.930   .     S
O430   Zn485   1.939   .     S
O431   Zn1461  1.939   .     S
O432   Zn978   1.939   .     S
O433   Zn487   1.939   .     S
O434   Zn477   1.931   .     S
O435   Zn1469  1.931   .     S
O436   Zn490   1.939   .     S
O437   Zn484   1.949   .     S
O437   C1121   1.281   .     S
O438   Zn983   1.939   .     S
O439   Zn1472  1.930   .     S
O440   Zn489   1.930   .     S
O448   Zn483   1.949   .     S
O459   Zn478   1.950   .     S
O470   Zn492   1.950   .     S
O476   Zn480   1.949   .     S
Zn477  O1415   1.939   1_545 S
Zn479  O1388   1.947   .     S
Zn482  O907    1.947   .     S
Zn484  O1377   1.947   .     S
Zn485  O1419   1.931   1_545 S
Zn486  O924    1.939   1_455 S
Zn487  O915    1.930   1_455 S
Zn488  O1423   1.930   1_545 S
Zn489  O1409   1.939   1_545 S
Zn490  O921    1.930   1_455 S
Zn491  O930    1.939   1_455 S
Zn492  O918    1.946   .     S
C493   C571    1.403   .     A
C493   H771    1.084   .     S
C493   C496    1.394   .     A
C494   C506    1.394   .     A
C494   H804    1.084   .     S
C494   C1592   1.403   .     S
C495   C671    1.394   .     A
C495   C614    1.402   .     A
C495   C1514   1.411   .     S
C496   C526    1.411   .     A
C496   C615    1.402   .     A
C497   C36     1.411   1_655 A
C497   C604    1.394   .     A
C497   C617    1.402   .     A
C498   C618    1.402   .     A
C498   C616    1.394   .     A
C498   C1513   1.411   .     S
C499   C619    1.402   .     A
C499   C627    1.394   .     A
C499   C530    1.411   .     A
C500   C527    1.394   .     A
C500   C620    1.402   .     A
C500   C1515   1.411   .     S
C501   C538    1.394   .     A
C501   C532    1.411   .     A
C501   C621    1.402   .     A
C502   C533    1.411   .     A
C502   C622    1.402   .     A
C502   C549    1.394   .     A
C503   C560    1.394   .     A
C503   C623    1.402   .     A
C503   C42     1.411   1_655 S
C504   C624    1.402   .     A
C504   C531    1.411   .     A
C504   C682    1.394   .     A
C505   C507    1.394   .     A
C505   H805    1.084   .     S
C505   C117    1.403   1_655 S
C506   C625    1.402   .     A
C506   C1516   1.411   .     S
C507   C626    1.402   .     A
C507   C41     1.411   1_655 S
C508   C628    1.402   .     A
C508   C516    1.394   .     A
C508   C534    1.411   .     A
C509   C674    1.413   .     A
C509   C644    1.455   .     S
C509   C672    1.407   .     A
C510   C673    1.418   .     A
C510   C670    1.410   .     A
C510   C645    1.471   .     S
C511   C669    1.408   .     A
C511   C676    1.410   .     A
C511   C637    1.451   .     S
C512   C668    1.408   .     A
C512   C675    1.410   .     A
C512   C639    1.450   .     S
C513   C678    1.413   .     A
C513   C667    1.407   .     A
C513   C640    1.455   .     S
C514   C641    1.461   .     S
C514   C666    1.411   .     A
C514   C677    1.409   .     A
C515   C680    1.410   .     A
C515   C642    1.451   .     S
C515   C665    1.409   .     A
C516   H806    1.084   .     S
C516   C610    1.403   .     A
C517   C679    1.410   .     A
C517   C664    1.408   .     A
C517   C643    1.451   .     S
C518   C683    1.408   .     A
C518   C663    1.410   .     A
C518   C653    1.450   .     S
C519   C654    1.450   .     S
C519   C662    1.410   .     A
C519   C681    1.408   .     A
C520   C661    1.413   .     A
C520   C646    1.455   .     S
C520   C685    1.407   .     A
C521   C647    1.461   .     S
C521   C684    1.411   .     A
C521   C659    1.409   .     A
C522   C648    1.451   .     S
C522   C658    1.410   .     A
C522   C687    1.408   .     A
C523   C657    1.410   .     A
C523   C650    1.450   .     S
C523   C686    1.408   .     A
C524   C689    1.412   .     A
C524   C656    1.415   .     A
C524   C651    1.461   .     S
C525   C655    1.408   .     A
C525   C688    1.411   .     A
C525   C652    1.461   .     S
C526   C528    1.403   .     S
C527   C607    1.403   .     A
C527   H807    1.084   .     S
C528   C691    1.411   .     S
C529   C692    1.411   .     A
C529   C530    1.402   .     A
C529   C1482   1.411   1_545 S
C530   C1479   1.411   1_545 S
C531   C1484   1.411   1_545 S
C531   C532    1.403   1_556 S
C532   C1490   1.411   1_545 S
C532   C531    1.403   1_554 S
C533   C534    1.402   1_556 S
C534   C533    1.402   1_554 S
C535   H813    1.115   .     S
C535   C536    1.521   .     S
C535   O933    1.413   .     S
C535   H812    1.112   .     S
C536   H816    1.110   .     S
C536   H1798   1.110   .     S
C536   H1799   1.111   .     S
C537   O934    1.418   .     S
C537   H817    1.113   .     S
C537   H818    1.111   .     S
C537   C1523   1.523   1_545 S
C538   H809    1.084   .     S
C538   C608    1.403   .     A
C539   H821    1.110   .     S
C539   H820    1.110   .     S
C539   H822    1.110   .     S
C539   C1521   1.523   .     S
C540   O935    1.416   .     S
C540   H823    1.112   .     S
C540   C541    1.520   .     S
C540   H824    1.110   .     S
C541   H826    1.111   .     S
C541   H825    1.110   .     S
C541   H827    1.110   .     S
C542   H829    1.113   .     S
C542   O936    1.416   .     S
C542   C543    1.521   .     S
C542   H828    1.110   .     S
C543   H832    1.110   .     S
C543   H833    1.110   .     S
C543   H831    1.110   .     S
C544   H835    1.115   .     S
C544   C545    1.521   .     S
C544   H834    1.112   .     S
C544   O937    1.413   .     S
C545   H838    1.110   .     S
C545   H1820   1.110   1_545 S
C545   H1821   1.111   1_545 S
C546   O938    1.417   .     S
C546   H839    1.113   .     S
C546   H840    1.110   .     S
C546   C1531   1.523   .     S
C547   H844    1.110   .     S
C547   H842    1.110   .     S
C547   H843    1.109   .     S
C547   C1530   1.523   1_545 S
C548   H846    1.110   .     S
C548   C550    1.520   .     S
C548   O939    1.416   .     S
C548   H845    1.112   .     S
C549   H810    1.084   .     S
C549   C609    1.403   .     A
C550   H847    1.110   .     S
C550   H848    1.110   .     S
C550   H849    1.110   .     S
C551   C552    1.521   .     S
C551   H850    1.110   .     S
C551   O941    1.416   .     S
C551   H851    1.114   .     S
C552   H853    1.110   .     S
C552   H855    1.111   .     S
C552   H854    1.110   .     S
C553   H856    1.110   .     S
C553   O942    1.416   .     S
C553   C554    1.521   .     S
C553   H857    1.118   .     S
C554   H860    1.111   .     S
C554   H858    1.110   .     S
C554   H859    1.110   .     S
C555   O943    1.415   .     S
C555   H862    1.110   .     S
C555   C556    1.520   .     S
C555   H861    1.115   .     S
C556   H864    1.110   .     S
C556   H865    1.110   .     S
C556   H866    1.110   .     S
C557   H867    1.117   .     S
C557   H868    1.109   .     S
C557   O944    1.414   .     S
C558   H869    1.110   .     S
C558   H871    1.111   .     S
C558   H870    1.109   .     S
C558   C65     1.519   1_655 S
C559   O945    1.412   .     S
C559   H873    1.114   .     S
C559   H872    1.114   .     S
C559   C69     1.521   1_655 S
C560   H811    1.084   .     S
C560   C118    1.403   1_655 S
C561   H875    1.111   .     S
C561   H877    1.111   .     S
C561   H876    1.110   .     S
C562   H879    1.116   .     S
C562   C563    1.521   .     S
C562   O946    1.416   .     S
C562   H878    1.110   .     S
C563   H882    1.110   .     S
C563   H881    1.110   .     S
C563   H880    1.110   .     S
C564   C565    1.520   .     S
C564   H884    1.110   .     S
C564   O947    1.415   .     S
C564   H883    1.115   .     S
C565   H696    1.110   .     S
C565   H697    1.110   .     S
C565   H695    1.110   .     S
C566   H699    1.110   .     S
C566   O948    1.416   .     S
C566   H698    1.118   .     S
C566   C75     1.519   1_655 S
C567   H702    1.109   .     S
C567   H700    1.111   .     S
C567   H701    1.110   .     S
C568   H704    1.114   .     S
C568   H703    1.114   .     S
C568   O949    1.412   .     S
C569   H706    1.111   .     S
C569   H708    1.111   .     S
C569   H707    1.110   .     S
C569   C76     1.521   1_655 S
C570   H709    1.110   .     S
C570   H710    1.113   .     S
C570   C572    1.521   .     S
C570   O950    1.420   .     S
C571   C631    1.462   .     S
C572   H713    1.110   .     S
C572   H711    1.111   .     S
C572   H712    1.110   .     S
C573   H714    1.113   .     S
C573   C574    1.522   .     S
C573   H715    1.110   .     S
C573   O952    1.417   .     S
C574   H718    1.110   .     S
C574   H717    1.111   .     S
C574   H719    1.109   .     S
C575   O953    1.416   .     S
C575   C576    1.521   .     S
C575   H721    1.110   .     S
C575   H720    1.113   .     S
C576   H722    1.110   .     S
C576   H724    1.110   .     S
C576   H723    1.110   .     S
C577   H725    1.110   .     S
C577   O954    1.416   .     S
C577   C578    1.521   .     S
C577   H726    1.113   .     S
C578   H728    1.110   .     S
C578   H730    1.110   .     S
C578   H729    1.110   .     S
C579   H731    1.112   .     S
C579   C580    1.521   .     S
C579   O955    1.414   .     S
C579   H732    1.115   .     S
C580   H735    1.110   .     S
C580   H734    1.111   .     S
C580   H733    1.110   .     S
C581   H737    1.110   .     S
C581   C583    1.522   .     S
C581   O956    1.417   .     S
C581   H736    1.113   .     S
C582   C632    1.462   .     S
C582   C604    1.403   .     A
C582   C157    1.403   1_655 S
C583   H741    1.110   .     S
C583   H740    1.109   .     S
C583   H739    1.111   .     S
C584   H742    1.112   .     S
C584   O957    1.415   .     S
C584   C585    1.520   .     S
C584   H743    1.110   .     S
C585   H746    1.111   .     S
C585   H745    1.110   .     S
C585   H744    1.110   .     S
C586   H747    1.110   .     S
C586   C587    1.521   .     S
C586   O958    1.416   .     S
C586   H748    1.113   .     S
C587   H752    1.110   .     S
C587   H750    1.110   .     S
C587   H751    1.110   .     S
C588   H754    1.117   .     S
C588   H753    1.110   .     S
C588   O959    1.417   .     S
C588   C589    1.521   .     S
C589   H757    1.110   .     S
C589   H755    1.110   .     S
C589   H756    1.110   .     S
C590   O960    1.416   .     S
C590   C591    1.521   .     S
C590   H758    1.117   .     S
C590   H759    1.110   .     S
C591   H762    1.110   .     S
C591   H763    1.110   .     S
C591   H761    1.110   .     S
C592   C594    1.519   .     S
C592   H764    1.118   .     S
C592   H765    1.109   .     S
C592   O961    1.414   .     S
C593   C629    1.462   .     S
C593   C660    1.403   .     A
C593   C1600   1.403   1_545 S
C594   H766    1.110   .     S
C594   H767    1.109   .     S
C594   H768    1.111   .     S
C595   O963    1.412   .     S
C595   H770    1.114   .     S
C595   C596    1.521   .     S
C595   H769    1.114   .     S
C596   H772    1.111   .     S
C596   H773    1.110   .     S
C596   H774    1.111   .     S
C597   O964    1.417   .     S
C597   H775    1.110   .     S
C597   C598    1.521   .     S
C597   H776    1.117   .     S
C598   H779    1.110   .     S
C598   H777    1.110   .     S
C598   H778    1.110   .     S
C599   C600    1.520   .     S
C599   O965    1.415   .     S
C599   H780    1.115   .     S
C599   H781    1.110   .     S
C600   H783    1.110   .     S
C600   H785    1.110   .     S
C600   H784    1.110   .     S
C601   H787    1.109   .     S
C601   O966    1.414   .     S
C601   C602    1.519   .     S
C601   H786    1.117   .     S
C602   H790    1.111   .     S
C602   H788    1.110   .     S
C602   H789    1.109   .     S
C603   H792    1.109   .     S
C603   H791    1.116   .     S
C603   O967    1.415   .     S
C603   C606    1.523   .     S
C604   H782    1.084   .     S
C605   C627    1.403   .     A
C605   C630    1.462   .     S
C605   C1655   1.403   1_545 S
C606   H794    1.111   .     S
C606   H796    1.107   .     S
C606   H795    1.111   .     S
C607   C635    1.462   .     S
C607   C1666   1.403   .     S
C608   C636    1.462   .     S
C608   C1478   1.403   1_545 S
C609   C633    1.462   .     S
C610   C634    1.462   .     S
C611   C690    1.402   .     A
C611   C617    1.395   .     A
C611   H693    1.084   .     S
C612   C691    1.402   .     A
C612   H797    1.084   .     S
C612   C615    1.395   .     A
C613   H808    1.084   .     S
C613   C619    1.395   .     A
C613   C692    1.402   .     A
C614   H819    1.084   .     S
C614   C618    1.394   .     A
C615   H830    1.084   .     S
C616   H793    1.084   .     S
C616   C1577   1.403   .     S
C617   H841    1.084   .     S
C618   H852    1.084   .     S
C619   H863    1.084   .     S
C620   H874    1.084   .     S
C620   C625    1.395   1_556 S
C621   H694    1.084   .     S
C621   C624    1.395   1_554 S
C622   H705    1.084   .     S
C622   C628    1.394   1_556 S
C623   H716    1.084   .     S
C623   C626    1.394   1_554 S
C624   H727    1.084   .     S
C624   C621    1.395   1_556 S
C625   H738    1.084   .     S
C625   C620    1.395   1_554 S
C626   H749    1.084   .     S
C626   C623    1.394   1_556 S
C627   H798    1.084   .     S
C628   H760    1.084   .     S
C628   C622    1.394   1_554 S
C629   O968    1.281   .     A
C629   O1913   1.281   1_545 S
C630   O940    1.280   .     A
C630   O1870   1.281   1_545 S
C631   O951    1.281   .     A
C632   O962    1.280   .     A
C632   O396    1.280   1_655 S
C633   O889    1.281   .     S
C633   O893    1.281   .     S
C634   O894    1.281   .     A
C634   O890    1.281   .     A
C635   O1875   1.281   .     A
C635   O1879   1.280   .     A
C636   O892    1.281   .     S
C636   O897    1.280   .     S
C637   O926    1.278   .     A
C637   O898    1.282   .     A
C638   H799    1.084   .     S
C638   C690    1.394   .     A
C638   C79     1.403   1_655 S
C639   O927    1.278   .     A
C639   O899    1.281   .     A
C640   O924    1.278   .     A
C640   O900    1.280   .     A
C641   O925    1.282   .     A
C641   O901    1.280   .     A
C642   O931    1.278   .     A
C642   O902    1.282   .     A
C643   O932    1.279   .     A
C643   O903    1.281   .     A
C644   O904    1.280   .     A
C644   O928    1.278   .     A
C645   O905    1.276   .     A
C645   O930    1.290   .     A
C646   O906    1.278   .     A
C646   O917    1.280   .     A
C647   O908    1.282   .     A
C647   O919    1.280   .     A
C648   O915    1.281   .     A
C648   O909    1.278   .     A
C649   H800    1.084   .     S
C649   C691    1.394   .     A
C650   O910    1.278   .     A
C650   O916    1.280   .     A
C651   O922    1.285   .     A
C651   O911    1.276   .     A
C652   O912    1.282   .     A
C652   O923    1.279   .     A
C653   O920    1.281   .     A
C653   O913    1.278   .     A
C654   O921    1.281   .     A
C654   O914    1.279   .     A
C655   O933    1.386   .     S
C655   C672    1.397   .     A
C656   O934    1.387   .     S
C656   C670    1.402   .     A
C657   C669    1.397   .     A
C657   O935    1.387   .     S
C658   O936    1.387   .     S
C658   C668    1.396   .     A
C659   C667    1.397   .     A
C659   O937    1.386   .     S
C660   H801    1.084   .     S
C660   C692    1.394   .     A
C661   C666    1.403   .     A
C661   O938    1.387   .     S
C662   C665    1.397   .     A
C662   O939    1.387   .     S
C663   C664    1.396   .     A
C663   O941    1.387   .     S
C664   O942    1.386   .     S
C665   O943    1.387   .     S
C666   O944    1.387   .     S
C667   O945    1.385   .     S
C668   O946    1.386   .     S
C669   O947    1.387   .     S
C670   O948    1.386   .     S
C671   H802    1.084   .     S
C671   C1589   1.403   .     S
C672   O949    1.385   .     S
C673   O950    1.384   .     S
C673   C689    1.398   .     A
C674   O952    1.387   .     S
C674   C688    1.403   .     A
C675   C687    1.397   .     A
C675   O953    1.387   .     S
C676   O954    1.387   .     S
C676   C686    1.396   .     A
C677   O955    1.386   .     S
C677   C685    1.396   .     A
C678   O956    1.387   .     S
C678   C684    1.403   .     A
C679   C683    1.397   .     A
C679   O957    1.386   .     S
C680   O958    1.387   .     S
C680   C681    1.396   .     A
C681   O959    1.386   .     S
C682   H803    1.084   .     S
C682   C1591   1.403   1_545 S
C683   O960    1.386   .     S
C684   O961    1.387   .     S
C685   O963    1.385   .     S
C686   O964    1.386   .     S
C687   O965    1.386   .     S
C688   O966    1.387   .     S
C689   O967    1.393   .     S
C690   C34     1.411   1_655 S
H814   C1520   1.110   1_545 S
H815   C1520   1.111   1_545 S
H836   C1529   1.110   .     S
H837   C1529   1.111   .     S
O885   Zn972   1.947   .     S
O885   Zn980   1.947   .     S
O885   Zn969   1.946   .     S
O885   Zn1960  1.947   1_545 S
O886   Zn971   1.949   .     S
O886   C1614   1.281   .     S
O887   Zn974   1.949   .     S
O887   C139    1.280   1_655 S
O888   Zn973   1.949   .     S
O889   Zn983   1.949   .     S
O890   Zn982   1.949   .     S
O891   C1619   1.281   1_545 A
O891   Zn977   1.950   .     S
O892   Zn969   1.950   .     S
O893   Zn979   1.949   .     S
O894   Zn978   1.949   .     S
O895   C1619   1.280   1_545 A
O895   Zn981   1.949   .     S
O896   Zn975   1.947   .     S
O896   Zn977   1.946   .     S
O896   Zn981   1.947   .     S
O896   Zn1955  1.947   1_545 S
O897   Zn980   1.949   .     S
O898   Zn972   1.930   .     S
O899   Zn971   1.930   .     S
O900   Zn974   1.939   .     S
O901   Zn973   1.939   .     S
O902   Zn976   1.930   .     S
O903   Zn975   1.930   .     S
O904   Zn970   1.939   .     S
O905   Zn984   1.939   .     S
O906   Zn971   1.939   .     S
O907   Zn978   1.947   .     S
O907   Zn982   1.947   .     S
O907   Zn970   1.946   .     S
O908   Zn972   1.939   .     S
O909   Zn984   1.931   .     S
O910   Zn970   1.931   .     S
O911   Zn975   1.939   .     S
O912   Zn976   1.939   .     S
O913   Zn973   1.930   .     S
O914   Zn974   1.930   .     S
O915   Zn487   1.930   1_655 S
O916   Zn978   1.930   .     S
O917   Zn1965  1.939   .     S
O918   Zn973   1.947   .     S
O918   Zn979   1.947   .     S
O918   Zn983   1.947   .     S
O919   Zn980   1.939   .     S
O920   Zn983   1.930   .     S
O921   Zn490   1.930   1_655 S
O922   Zn977   1.939   .     S
O923   Zn1953  1.939   .     S
O924   Zn486   1.939   1_655 S
O925   Zn979   1.939   .     S
O926   Zn969   1.931   .     S
O927   Zn1961  1.931   .     S
O928   Zn982   1.939   .     S
O929   Zn976   1.949   .     S
O929   C1613   1.281   .     S
O930   Zn491   1.939   1_655 S
O931   Zn1964  1.930   .     S
O932   Zn981   1.930   .     S
O940   Zn975   1.949   .     S
O951   Zn970   1.950   .     S
O962   Zn984   1.950   .     S
O968   Zn972   1.949   .     S
Zn969  O1907   1.939   1_545 S
Zn971  O1880   1.947   .     S
Zn974  O415    1.947   1_655 S
Zn976  O1869   1.947   .     S
Zn977  O1911   1.931   1_545 S
Zn980  O1915   1.930   1_545 S
Zn981  O1901   1.939   1_545 S
Zn984  O426    1.946   1_655 S
C985   C1063   1.403   .     A
C985   H1263   1.084   .     S
C985   C988    1.394   .     A
C986   C998    1.394   .     A
C986   H1296   1.084   .     S
C986   C116    1.403   1_565 S
C987   C1163   1.394   .     A
C987   C1106   1.402   .     A
C987   C38     1.411   1_565 S
C988   C1018   1.411   .     A
C988   C1107   1.402   .     A
C989   C1512   1.411   .     A
C989   C1096   1.394   .     A
C989   C1109   1.402   .     A
C990   C1110   1.402   .     A
C990   C1108   1.394   .     A
C990   C37     1.411   1_565 S
C991   C1111   1.402   .     A
C991   C1119   1.394   .     A
C991   C1022   1.411   .     A
C992   C1019   1.394   .     A
C992   C1112   1.402   .     A
C992   C39     1.411   1_565 S
C993   C1030   1.394   .     A
C993   C1024   1.411   .     A
C993   C1113   1.402   .     A
C994   C1025   1.411   .     A
C994   C1114   1.402   .     A
C994   C1041   1.394   .     A
C995   C1052   1.394   .     A
C995   C1115   1.402   .     A
C995   C1518   1.411   .     S
C996   C1116   1.402   .     A
C996   C1023   1.411   .     A
C996   C1174   1.394   .     A
C997   C999    1.394   .     A
C997   H1297   1.084   .     S
C997   C1593   1.403   .     S
C998   C1117   1.402   .     A
C998   C40     1.411   1_565 S
C999   C1118   1.402   .     A
C999   C1517   1.411   .     S
C1000  C1120   1.402   .     A
C1000  C1008   1.394   .     A
C1000  C1026   1.411   .     A
C1001  C1166   1.413   .     A
C1001  C1136   1.455   .     S
C1001  C1164   1.407   .     A
C1002  C1165   1.418   .     A
C1002  C1162   1.410   .     A
C1002  C1137   1.471   .     S
C1003  C1161   1.408   .     A
C1003  C1168   1.410   .     A
C1003  C1129   1.451   .     S
C1004  C1160   1.408   .     A
C1004  C1167   1.410   .     A
C1004  C1131   1.450   .     S
C1005  C1170   1.413   .     A
C1005  C1159   1.407   .     A
C1005  C1132   1.455   .     S
C1006  C1133   1.461   .     S
C1006  C1158   1.411   .     A
C1006  C1169   1.409   .     A
C1007  C1172   1.410   .     A
C1007  C1134   1.451   .     S
C1007  C1157   1.409   .     A
C1008  H1298   1.084   .     S
C1008  C1102   1.403   .     A
C1009  C1171   1.410   .     A
C1009  C1156   1.408   .     A
C1009  C1135   1.451   .     S
C1010  C1175   1.408   .     A
C1010  C1155   1.410   .     A
C1010  C1145   1.450   .     S
C1011  C1146   1.450   .     S
C1011  C1154   1.410   .     A
C1011  C1173   1.408   .     A
C1012  C1153   1.413   .     A
C1012  C1138   1.455   .     S
C1012  C1177   1.407   .     A
C1013  C1139   1.461   .     S
C1013  C1176   1.411   .     A
C1013  C1151   1.409   .     A
C1014  C1140   1.451   .     S
C1014  C1150   1.410   .     A
C1014  C1179   1.408   .     A
C1015  C1149   1.410   .     A
C1015  C1142   1.450   .     S
C1015  C1178   1.408   .     A
C1016  C1181   1.412   .     A
C1016  C1148   1.415   .     A
C1016  C1143   1.461   .     S
C1017  C1147   1.408   .     A
C1017  C1180   1.411   .     A
C1017  C1144   1.461   .     S
C1018  C1020   1.403   .     S
C1018  C1674   1.411   1_455 S
C1019  C1099   1.403   .     A
C1019  H1299   1.084   .     S
C1020  C1481   1.411   1_455 A
C1020  C1183   1.411   .     S
C1021  C1184   1.411   .     A
C1021  C1022   1.402   .     A
C1023  C1024   1.403   1_556 S
C1024  C1023   1.403   1_554 S
C1025  C1491   1.411   1_455 S
C1025  C1026   1.402   1_556 S
C1026  C1487   1.411   1_455 S
C1026  C1025   1.402   1_554 S
C1027  H1305   1.115   .     S
C1027  C1028   1.521   .     S
C1027  O1425   1.413   .     S
C1027  H1304   1.112   .     S
C1028  H1308   1.110   .     S
C1028  H322    1.110   1_565 S
C1028  H323    1.111   1_565 S
C1029  O1426   1.418   .     S
C1029  H1309   1.113   .     S
C1029  H1310   1.111   .     S
C1030  H1301   1.084   .     S
C1030  C1100   1.403   .     A
C1031  H1313   1.110   .     S
C1031  H1312   1.110   .     S
C1031  H1314   1.110   .     S
C1031  C45     1.523   1_565 S
C1032  O1427   1.416   .     S
C1032  H1315   1.112   .     S
C1032  C1033   1.520   .     S
C1032  H1316   1.110   .     S
C1033  H1318   1.111   .     S
C1033  H1317   1.110   .     S
C1033  H1319   1.110   .     S
C1034  H1321   1.113   .     S
C1034  O1428   1.416   .     S
C1034  C1035   1.521   .     S
C1034  H1320   1.110   .     S
C1035  H1324   1.110   .     S
C1035  H1325   1.110   .     S
C1035  H1323   1.110   .     S
C1036  H1327   1.115   .     S
C1036  C1037   1.521   .     S
C1036  H1326   1.112   .     S
C1036  O1429   1.413   .     S
C1037  H1330   1.110   .     S
C1038  O1430   1.417   .     S
C1038  H1331   1.113   .     S
C1038  H1332   1.110   .     S
C1038  C55     1.523   1_565 S
C1039  H1336   1.110   .     S
C1039  H1334   1.110   .     S
C1039  H1335   1.109   .     S
C1040  H1338   1.110   .     S
C1040  C1042   1.520   .     S
C1040  O1431   1.416   .     S
C1040  H1337   1.112   .     S
C1041  H1302   1.084   .     S
C1041  C1101   1.403   .     A
C1042  H1339   1.110   .     S
C1042  H1340   1.110   .     S
C1042  H1341   1.110   .     S
C1043  C1044   1.521   .     S
C1043  H1342   1.110   .     S
C1043  O1433   1.416   .     S
C1043  H1343   1.114   .     S
C1044  H1345   1.110   .     S
C1044  H1347   1.111   .     S
C1044  H1346   1.110   .     S
C1045  H1348   1.110   .     S
C1045  O1434   1.416   .     S
C1045  C1046   1.521   .     S
C1045  H1349   1.118   .     S
C1046  H1352   1.111   .     S
C1046  H1350   1.110   .     S
C1046  H1351   1.110   .     S
C1047  O1435   1.415   .     S
C1047  H1354   1.110   .     S
C1047  C1048   1.520   .     S
C1047  H1353   1.115   .     S
C1048  H1356   1.110   .     S
C1048  H1357   1.110   .     S
C1048  H1358   1.110   .     S
C1049  H1359   1.117   .     S
C1049  H1360   1.109   .     S
C1049  O1436   1.414   .     S
C1049  C1542   1.519   1_455 S
C1050  H1361   1.110   .     S
C1050  H1363   1.111   .     S
C1050  H1362   1.109   .     S
C1050  C1541   1.519   .     S
C1051  O1437   1.412   .     S
C1051  H1365   1.114   .     S
C1051  H1364   1.114   .     S
C1051  C1545   1.521   .     S
C1052  H1303   1.084   .     S
C1052  C1594   1.403   .     S
C1053  H1367   1.111   .     S
C1053  H1369   1.111   .     S
C1053  H1368   1.110   .     S
C1053  C1543   1.521   1_455 S
C1054  H1371   1.116   .     S
C1054  C1055   1.521   .     S
C1054  O1438   1.416   .     S
C1054  H1370   1.110   .     S
C1055  H1374   1.110   .     S
C1055  H1373   1.110   .     S
C1055  H1372   1.110   .     S
C1056  C1057   1.520   .     S
C1056  H1376   1.110   .     S
C1056  O1439   1.415   .     S
C1056  H1375   1.115   .     S
C1057  H1188   1.110   .     S
C1057  H1189   1.110   .     S
C1057  H1187   1.110   .     S
C1058  H1191   1.110   .     S
C1058  O1440   1.416   .     S
C1058  H1190   1.118   .     S
C1058  C1551   1.519   .     S
C1059  H1194   1.109   .     S
C1059  H1192   1.111   .     S
C1059  H1193   1.110   .     S
C1059  C1550   1.519   1_455 S
C1060  H1196   1.114   .     S
C1060  H1195   1.114   .     S
C1060  O1441   1.412   .     S
C1060  C1553   1.521   1_455 S
C1061  H1198   1.111   .     S
C1061  H1200   1.111   .     S
C1061  H1199   1.110   .     S
C1061  C1552   1.521   .     S
C1062  H1201   1.110   .     S
C1062  H1202   1.113   .     S
C1062  C1064   1.521   .     S
C1062  O1442   1.420   .     S
C1063  C1123   1.462   .     S
C1063  C1622   1.403   1_455 S
C1064  H1205   1.110   .     S
C1064  H1203   1.111   .     S
C1064  H1204   1.110   .     S
C1065  H1206   1.113   .     S
C1065  C1066   1.522   .     S
C1065  H1207   1.110   .     S
C1065  O1444   1.417   .     S
C1066  H1210   1.110   .     S
C1066  H1209   1.111   .     S
C1066  H1211   1.109   .     S
C1067  O1445   1.416   .     S
C1067  C1068   1.521   .     S
C1067  H1213   1.110   .     S
C1067  H1212   1.113   .     S
C1068  H1214   1.110   .     S
C1068  H1216   1.110   .     S
C1068  H1215   1.110   .     S
C1069  H1217   1.110   .     S
C1069  O1446   1.416   .     S
C1069  C1070   1.521   .     S
C1069  H1218   1.113   .     S
C1070  H1220   1.110   .     S
C1070  H1222   1.110   .     S
C1070  H1221   1.110   .     S
C1071  H1223   1.112   .     S
C1071  C1072   1.521   .     S
C1071  O1447   1.414   .     S
C1071  H1224   1.115   .     S
C1072  H1227   1.110   .     S
C1072  H1226   1.111   .     S
C1072  H1225   1.110   .     S
C1073  H1229   1.110   .     S
C1073  C1075   1.522   .     S
C1073  O1448   1.417   .     S
C1073  H1228   1.113   .     S
C1074  C1124   1.462   .     S
C1074  C1096   1.403   .     A
C1074  C1633   1.403   .     S
C1075  H1233   1.110   .     S
C1075  H1232   1.109   .     S
C1075  H1231   1.111   .     S
C1076  H1234   1.112   .     S
C1076  O1449   1.415   .     S
C1076  C1077   1.520   .     S
C1076  H1235   1.110   .     S
C1077  H1238   1.111   .     S
C1077  H1237   1.110   .     S
C1077  H1236   1.110   .     S
C1078  H1239   1.110   .     S
C1078  C1079   1.521   .     S
C1078  O1450   1.416   .     S
C1078  H1240   1.113   .     S
C1079  H1244   1.110   .     S
C1079  H1242   1.110   .     S
C1079  H1243   1.110   .     S
C1080  H1246   1.117   .     S
C1080  H1245   1.110   .     S
C1080  O1451   1.417   .     S
C1080  C1081   1.521   .     S
C1081  H1249   1.110   .     S
C1081  H1247   1.110   .     S
C1081  H1248   1.110   .     S
C1082  O1452   1.416   .     S
C1082  C1083   1.521   .     S
C1082  H1250   1.117   .     S
C1082  H1251   1.110   .     S
C1083  H1254   1.110   .     S
C1083  H1255   1.110   .     S
C1083  H1253   1.110   .     S
C1084  C1086   1.519   .     S
C1084  H1256   1.118   .     S
C1084  H1257   1.109   .     S
C1084  O1453   1.414   .     S
C1085  C1121   1.462   .     S
C1085  C1152   1.403   .     A
C1086  H1258   1.110   .     S
C1086  H1259   1.109   .     S
C1086  H1260   1.111   .     S
C1087  O1455   1.412   .     S
C1087  H1262   1.114   .     S
C1087  C1088   1.521   .     S
C1087  H1261   1.114   .     S
C1088  H1264   1.111   .     S
C1088  H1265   1.110   .     S
C1088  H1266   1.111   .     S
C1089  O1456   1.417   .     S
C1089  H1267   1.110   .     S
C1089  C1090   1.521   .     S
C1089  H1268   1.117   .     S
C1090  H1271   1.110   .     S
C1090  H1269   1.110   .     S
C1090  H1270   1.110   .     S
C1091  C1092   1.520   .     S
C1091  O1457   1.415   .     S
C1091  H1272   1.115   .     S
C1091  H1273   1.110   .     S
C1092  H1275   1.110   .     S
C1092  H1277   1.110   .     S
C1092  H1276   1.110   .     S
C1093  H1279   1.109   .     S
C1093  O1458   1.414   .     S
C1093  C1094   1.519   .     S
C1093  H1278   1.117   .     S
C1094  H1282   1.111   .     S
C1094  H1280   1.110   .     S
C1094  H1281   1.109   .     S
C1095  H1284   1.109   .     S
C1095  H1283   1.116   .     S
C1095  O1459   1.415   .     S
C1095  C1098   1.523   .     S
C1096  H1274   1.084   .     S
C1097  C1119   1.403   .     A
C1097  C1122   1.462   .     S
C1098  H1286   1.111   .     S
C1098  H1288   1.107   .     S
C1098  H1287   1.111   .     S
C1099  C1127   1.462   .     S
C1099  C190    1.403   1_565 S
C1100  C1128   1.462   .     S
C1101  C1125   1.462   .     S
C1101  C1489   1.403   1_455 S
C1102  C1544   1.403   1_455 S
C1102  C1126   1.462   .     S
C1103  C1182   1.402   .     A
C1103  C1109   1.395   .     A
C1103  H1185   1.084   .     S
C1104  C1183   1.402   .     A
C1104  H1289   1.084   .     S
C1104  C1107   1.395   .     A
C1105  H1300   1.084   .     S
C1105  C1111   1.395   .     A
C1105  C1184   1.402   .     A
C1106  H1311   1.084   .     S
C1106  C1110   1.394   .     A
C1107  H1322   1.084   .     S
C1108  H1285   1.084   .     S
C1108  C101    1.403   1_565 S
C1109  H1333   1.084   .     S
C1110  H1344   1.084   .     S
C1111  H1355   1.084   .     S
C1112  H1366   1.084   .     S
C1112  C1117   1.395   1_556 S
C1113  H1186   1.084   .     S
C1113  C1116   1.395   1_554 S
C1114  H1197   1.084   .     S
C1114  C1120   1.394   1_556 S
C1115  H1208   1.084   .     S
C1115  C1118   1.394   1_554 S
C1116  H1219   1.084   .     S
C1116  C1113   1.395   1_556 S
C1117  H1230   1.084   .     S
C1117  C1112   1.395   1_554 S
C1118  H1241   1.084   .     S
C1118  C1115   1.394   1_556 S
C1119  H1290   1.084   .     S
C1120  H1252   1.084   .     S
C1120  C1114   1.394   1_554 S
C1121  O1460   1.281   .     A
C1122  O1432   1.280   .     A
C1123  O1443   1.281   .     A
C1123  O1871   1.280   1_455 S
C1124  O1454   1.280   .     A
C1124  O1872   1.280   .     S
C1125  O1381   1.281   .     S
C1125  O1385   1.281   .     S
C1126  O1386   1.281   .     A
C1126  O1382   1.281   .     A
C1127  O399    1.281   1_565 A
C1127  O403    1.280   1_565 A
C1128  O1384   1.281   .     S
C1128  O1389   1.280   .     S
C1129  O1418   1.278   .     A
C1129  O1390   1.282   .     A
C1130  H1291   1.084   .     S
C1130  C1182   1.394   .     A
C1130  C1555   1.403   .     S
C1131  O1419   1.278   .     A
C1131  O1391   1.281   .     A
C1132  O1416   1.278   .     A
C1132  O1392   1.280   .     A
C1133  O1417   1.282   .     A
C1133  O1393   1.280   .     A
C1134  O1423   1.278   .     A
C1134  O1394   1.282   .     A
C1135  O1424   1.279   .     A
C1135  O1395   1.281   .     A
C1136  O1396   1.280   .     A
C1136  O1420   1.278   .     A
C1137  O1397   1.276   .     A
C1137  O1422   1.290   .     A
C1138  O1398   1.278   .     A
C1138  O1409   1.280   .     A
C1139  O1400   1.282   .     A
C1139  O1411   1.280   .     A
C1140  O1407   1.281   .     A
C1140  O1401   1.278   .     A
C1141  H1292   1.084   .     S
C1141  C1183   1.394   .     A
C1141  C1566   1.403   1_455 S
C1142  O1402   1.278   .     A
C1142  O1408   1.280   .     A
C1143  O1414   1.285   .     A
C1143  O1403   1.276   .     A
C1144  O1404   1.282   .     A
C1144  O1415   1.279   .     A
C1145  O1412   1.281   .     A
C1145  O1405   1.278   .     A
C1146  O1413   1.281   .     A
C1146  O1406   1.279   .     A
C1147  O1425   1.386   .     S
C1147  C1164   1.397   .     A
C1148  O1426   1.387   .     S
C1148  C1162   1.402   .     A
C1149  C1161   1.397   .     A
C1149  O1427   1.387   .     S
C1150  O1428   1.387   .     S
C1150  C1160   1.396   .     A
C1151  C1159   1.397   .     A
C1151  O1429   1.386   .     S
C1152  H1293   1.084   .     S
C1152  C1184   1.394   .     A
C1153  C1158   1.403   .     A
C1153  O1430   1.387   .     S
C1154  C1157   1.397   .     A
C1154  O1431   1.387   .     S
C1155  C1156   1.396   .     A
C1155  O1433   1.387   .     S
C1156  O1434   1.386   .     S
C1157  O1435   1.387   .     S
C1158  O1436   1.387   .     S
C1159  O1437   1.385   .     S
C1160  O1438   1.386   .     S
C1161  O1439   1.387   .     S
C1162  O1440   1.386   .     S
C1163  H1294   1.084   .     S
C1163  C113    1.403   1_565 S
C1164  O1441   1.385   .     S
C1165  O1442   1.384   .     S
C1165  C1181   1.398   .     A
C1166  O1444   1.387   .     S
C1166  C1180   1.403   .     A
C1167  C1179   1.397   .     A
C1167  O1445   1.387   .     S
C1168  O1446   1.387   .     S
C1168  C1178   1.396   .     A
C1169  O1447   1.386   .     S
C1169  C1177   1.396   .     A
C1170  O1448   1.387   .     S
C1170  C1176   1.403   .     A
C1171  C1175   1.397   .     A
C1171  O1449   1.386   .     S
C1172  O1450   1.387   .     S
C1172  C1173   1.396   .     A
C1173  O1451   1.386   .     S
C1174  H1295   1.084   .     S
C1175  O1452   1.386   .     S
C1176  O1453   1.387   .     S
C1177  O1455   1.385   .     S
C1178  O1456   1.386   .     S
C1179  O1457   1.386   .     S
C1180  O1458   1.387   .     S
C1181  O1459   1.393   .     S
C1182  C1510   1.411   .     S
H1328  C53     1.110   1_565 S
H1329  C53     1.111   1_565 S
O1377  Zn1464  1.947   .     S
O1377  Zn1472  1.947   .     S
O1377  Zn1461  1.946   .     S
O1378  Zn1463  1.949   .     S
O1378  C138    1.281   1_565 S
O1379  Zn1466  1.949   .     S
O1379  C1615   1.280   .     S
O1380  Zn1465  1.949   .     S
O1380  C1616   1.280   1_455 S
O1381  Zn1475  1.949   .     S
O1382  Zn1474  1.949   .     S
O1383  Zn1469  1.950   .     S
O1384  Zn1461  1.950   .     S
O1385  Zn1471  1.949   .     S
O1386  Zn1470  1.949   .     S
O1387  Zn1473  1.949   .     S
O1388  Zn1467  1.947   .     S
O1388  Zn1469  1.946   .     S
O1388  Zn1473  1.947   .     S
O1389  Zn1472  1.949   .     S
O1390  Zn1464  1.930   .     S
O1391  Zn1463  1.930   .     S
O1392  Zn1466  1.939   .     S
O1393  Zn1465  1.939   .     S
O1394  Zn1468  1.930   .     S
O1395  Zn1467  1.930   .     S
O1396  Zn1462  1.939   .     S
O1397  Zn1476  1.939   .     S
O1398  Zn1463  1.939   .     S
O1399  Zn1470  1.947   .     S
O1399  Zn1474  1.947   .     S
O1399  Zn1958  1.947   1_455 S
O1399  Zn1462  1.946   .     S
O1400  Zn1464  1.939   .     S
O1401  Zn1476  1.931   .     S
O1402  Zn1462  1.931   .     S
O1403  Zn1467  1.939   .     S
O1404  Zn1468  1.939   .     S
O1405  Zn1465  1.930   .     S
O1406  Zn1466  1.930   .     S
O1407  Zn1963  1.930   .     S
O1408  Zn1470  1.930   .     S
O1409  Zn489   1.939   1_565 S
O1410  Zn1465  1.947   .     S
O1410  Zn1471  1.947   .     S
O1410  Zn1475  1.947   .     S
O1410  Zn1968  1.946   1_455 S
O1411  Zn1472  1.939   .     S
O1412  Zn1475  1.930   .     S
O1413  Zn1966  1.930   .     S
O1414  Zn1469  1.939   .     S
O1415  Zn477   1.939   1_565 S
O1416  Zn1962  1.939   .     S
O1417  Zn1471  1.939   .     S
O1418  Zn1461  1.931   .     S
O1419  Zn485   1.931   1_565 S
O1420  Zn1474  1.939   .     S
O1421  Zn1468  1.949   .     S
O1421  C137    1.281   1_565 S
O1422  Zn1967  1.939   .     S
O1423  Zn488   1.930   1_565 S
O1424  Zn1473  1.930   .     S
O1432  Zn1467  1.949   .     S
O1443  Zn1462  1.950   .     S
O1454  Zn1476  1.950   .     S
O1460  Zn1464  1.949   .     S
Zn1463 O404    1.947   1_565 S
Zn1466 O1891   1.947   .     S
Zn1468 O393    1.947   1_565 S
Zn1470 O1908   1.939   1_455 S
Zn1471 O1899   1.930   1_455 S
Zn1474 O1905   1.930   1_455 S
Zn1475 O1914   1.939   1_455 S
Zn1476 O1902   1.946   .     S
C1477  C1555   1.403   .     A
C1477  H1755   1.084   .     S
C1477  C1480   1.394   .     A
C1478  C1490   1.394   .     A
C1478  H1788   1.084   .     S
C1478  C608    1.403   1_565 S
C1479  C1655   1.394   .     A
C1479  C1598   1.402   .     A
C1479  C530    1.411   1_565 S
C1480  C1510   1.411   .     A
C1480  C1599   1.402   .     A
C1481  C1020   1.411   1_655 A
C1481  C1588   1.394   .     A
C1481  C1601   1.402   .     A
C1482  C1602   1.402   .     A
C1482  C1600   1.394   .     A
C1482  C529    1.411   1_565 S
C1483  C1603   1.402   .     A
C1483  C1611   1.394   .     A
C1483  C1514   1.411   .     A
C1484  C1511   1.394   .     A
C1484  C1604   1.402   .     A
C1484  C531    1.411   1_565 S
C1485  C1522   1.394   .     A
C1485  C1516   1.411   .     A
C1485  C1605   1.402   .     A
C1486  C1517   1.411   .     A
C1486  C1606   1.402   .     A
C1486  C1533   1.394   .     A
C1487  C1544   1.394   .     A
C1487  C1607   1.402   .     A
C1487  C1026   1.411   1_655 S
C1488  C1608   1.402   .     A
C1488  C1515   1.411   .     A
C1488  C1666   1.394   .     A
C1489  C1491   1.394   .     A
C1489  H1789   1.084   .     S
C1489  C1101   1.403   1_655 S
C1490  C1609   1.402   .     A
C1490  C532    1.411   1_565 S
C1491  C1610   1.402   .     A
C1491  C1025   1.411   1_655 S
C1492  C1612   1.402   .     A
C1492  C1500   1.394   .     A
C1492  C1518   1.411   .     A
C1493  C1658   1.413   .     A
C1493  C1628   1.455   .     S
C1493  C1656   1.407   .     A
C1494  C1657   1.418   .     A
C1494  C1654   1.410   .     A
C1494  C1629   1.471   .     S
C1495  C1653   1.408   .     A
C1495  C1660   1.410   .     A
C1495  C1621   1.451   .     S
C1496  C1652   1.408   .     A
C1496  C1659   1.410   .     A
C1496  C1623   1.450   .     S
C1497  C1662   1.413   .     A
C1497  C1651   1.407   .     A
C1497  C1624   1.455   .     S
C1498  C1625   1.461   .     S
C1498  C1650   1.411   .     A
C1498  C1661   1.409   .     A
C1499  C1664   1.410   .     A
C1499  C1626   1.451   .     S
C1499  C1649   1.409   .     A
C1500  H1790   1.084   .     S
C1500  C1594   1.403   .     A
C1501  C1663   1.410   .     A
C1501  C1648   1.408   .     A
C1501  C1627   1.451   .     S
C1502  C1667   1.408   .     A
C1502  C1647   1.410   .     A
C1502  C1637   1.450   .     S
C1503  C1638   1.450   .     S
C1503  C1646   1.410   .     A
C1503  C1665   1.408   .     A
C1504  C1645   1.413   .     A
C1504  C1630   1.455   .     S
C1504  C1669   1.407   .     A
C1505  C1631   1.461   .     S
C1505  C1668   1.411   .     A
C1505  C1643   1.409   .     A
C1506  C1632   1.451   .     S
C1506  C1642   1.410   .     A
C1506  C1671   1.408   .     A
C1507  C1641   1.410   .     A
C1507  C1634   1.450   .     S
C1507  C1670   1.408   .     A
C1508  C1673   1.412   .     A
C1508  C1640   1.415   .     A
C1508  C1635   1.461   .     S
C1509  C1639   1.408   .     A
C1509  C1672   1.411   .     A
C1509  C1636   1.461   .     S
C1510  C1512   1.403   .     S
C1511  C1591   1.403   .     A
C1511  H1791   1.084   .     S
C1512  C1675   1.411   .     S
C1513  C1676   1.411   .     A
C1513  C1514   1.402   .     A
C1515  C1516   1.403   1_556 S
C1516  C1515   1.403   1_554 S
C1517  C1518   1.402   1_556 S
C1518  C1517   1.402   1_554 S
C1519  H1797   1.115   .     S
C1519  C1520   1.521   .     S
C1519  O1917   1.413   .     S
C1519  H1796   1.112   .     S
C1520  H1800   1.110   .     S
C1520  H814    1.110   1_565 S
C1520  H815    1.111   1_565 S
C1521  O1918   1.418   .     S
C1521  H1801   1.113   .     S
C1521  H1802   1.111   .     S
C1522  H1793   1.084   .     S
C1522  C1592   1.403   .     A
C1523  H1805   1.110   .     S
C1523  H1804   1.110   .     S
C1523  H1806   1.110   .     S
C1523  C537    1.523   1_565 S
C1524  O1919   1.416   .     S
C1524  H1807   1.112   .     S
C1524  C1525   1.520   .     S
C1524  H1808   1.110   .     S
C1525  H1810   1.111   .     S
C1525  H1809   1.110   .     S
C1525  H1811   1.110   .     S
C1526  H1813   1.113   .     S
C1526  O1920   1.416   .     S
C1526  C1527   1.521   .     S
C1526  H1812   1.110   .     S
C1527  H1816   1.110   .     S
C1527  H1817   1.110   .     S
C1527  H1815   1.110   .     S
C1528  H1819   1.115   .     S
C1528  C1529   1.521   .     S
C1528  H1818   1.112   .     S
C1528  O1921   1.413   .     S
C1529  H1822   1.110   .     S
C1530  O1922   1.417   .     S
C1530  H1823   1.113   .     S
C1530  H1824   1.110   .     S
C1530  C547    1.523   1_565 S
C1531  H1828   1.110   .     S
C1531  H1826   1.110   .     S
C1531  H1827   1.109   .     S
C1532  H1830   1.110   .     S
C1532  C1534   1.520   .     S
C1532  O1923   1.416   .     S
C1532  H1829   1.112   .     S
C1533  H1794   1.084   .     S
C1533  C1593   1.403   .     A
C1534  H1831   1.110   .     S
C1534  H1832   1.110   .     S
C1534  H1833   1.110   .     S
C1535  C1536   1.521   .     S
C1535  H1834   1.110   .     S
C1535  O1925   1.416   .     S
C1535  H1835   1.114   .     S
C1536  H1837   1.110   .     S
C1536  H1839   1.111   .     S
C1536  H1838   1.110   .     S
C1537  H1840   1.110   .     S
C1537  O1926   1.416   .     S
C1537  C1538   1.521   .     S
C1537  H1841   1.118   .     S
C1538  H1844   1.111   .     S
C1538  H1842   1.110   .     S
C1538  H1843   1.110   .     S
C1539  O1927   1.415   .     S
C1539  H1846   1.110   .     S
C1539  C1540   1.520   .     S
C1539  H1845   1.115   .     S
C1540  H1848   1.110   .     S
C1540  H1849   1.110   .     S
C1540  H1850   1.110   .     S
C1541  H1851   1.117   .     S
C1541  H1852   1.109   .     S
C1541  O1928   1.414   .     S
C1542  H1853   1.110   .     S
C1542  H1855   1.111   .     S
C1542  H1854   1.109   .     S
C1542  C1049   1.519   1_655 S
C1543  O1929   1.412   .     S
C1543  H1857   1.114   .     S
C1543  H1856   1.114   .     S
C1543  C1053   1.521   1_655 S
C1544  H1795   1.084   .     S
C1544  C1102   1.403   1_655 S
C1545  H1859   1.111   .     S
C1545  H1861   1.111   .     S
C1545  H1860   1.110   .     S
C1546  H1863   1.116   .     S
C1546  C1547   1.521   .     S
C1546  O1930   1.416   .     S
C1546  H1862   1.110   .     S
C1547  H1866   1.110   .     S
C1547  H1865   1.110   .     S
C1547  H1864   1.110   .     S
C1548  C1549   1.520   .     S
C1548  H1868   1.110   .     S
C1548  O1931   1.415   .     S
C1548  H1867   1.115   .     S
C1549  H1680   1.110   .     S
C1549  H1681   1.110   .     S
C1549  H1679   1.110   .     S
C1550  H1683   1.110   .     S
C1550  O1932   1.416   .     S
C1550  H1682   1.118   .     S
C1550  C1059   1.519   1_655 S
C1551  H1686   1.109   .     S
C1551  H1684   1.111   .     S
C1551  H1685   1.110   .     S
C1552  H1688   1.114   .     S
C1552  H1687   1.114   .     S
C1552  O1933   1.412   .     S
C1553  H1690   1.111   .     S
C1553  H1692   1.111   .     S
C1553  H1691   1.110   .     S
C1553  C1060   1.521   1_655 S
C1554  H1693   1.110   .     S
C1554  H1694   1.113   .     S
C1554  C1556   1.521   .     S
C1554  O1934   1.420   .     S
C1555  C1615   1.462   .     S
C1556  H1697   1.110   .     S
C1556  H1695   1.111   .     S
C1556  H1696   1.110   .     S
C1557  H1698   1.113   .     S
C1557  C1558   1.522   .     S
C1557  H1699   1.110   .     S
C1557  O1936   1.417   .     S
C1558  H1702   1.110   .     S
C1558  H1701   1.111   .     S
C1558  H1703   1.109   .     S
C1559  O1937   1.416   .     S
C1559  C1560   1.521   .     S
C1559  H1705   1.110   .     S
C1559  H1704   1.113   .     S
C1560  H1706   1.110   .     S
C1560  H1708   1.110   .     S
C1560  H1707   1.110   .     S
C1561  H1709   1.110   .     S
C1561  O1938   1.416   .     S
C1561  C1562   1.521   .     S
C1561  H1710   1.113   .     S
C1562  H1712   1.110   .     S
C1562  H1714   1.110   .     S
C1562  H1713   1.110   .     S
C1563  H1715   1.112   .     S
C1563  C1564   1.521   .     S
C1563  O1939   1.414   .     S
C1563  H1716   1.115   .     S
C1564  H1719   1.110   .     S
C1564  H1718   1.111   .     S
C1564  H1717   1.110   .     S
C1565  H1721   1.110   .     S
C1565  C1567   1.522   .     S
C1565  O1940   1.417   .     S
C1565  H1720   1.113   .     S
C1566  C1616   1.462   .     S
C1566  C1588   1.403   .     A
C1566  C1141   1.403   1_655 S
C1567  H1725   1.110   .     S
C1567  H1724   1.109   .     S
C1567  H1723   1.111   .     S
C1568  H1726   1.112   .     S
C1568  O1941   1.415   .     S
C1568  C1569   1.520   .     S
C1568  H1727   1.110   .     S
C1569  H1730   1.111   .     S
C1569  H1729   1.110   .     S
C1569  H1728   1.110   .     S
C1570  H1731   1.110   .     S
C1570  C1571   1.521   .     S
C1570  O1942   1.416   .     S
C1570  H1732   1.113   .     S
C1571  H1736   1.110   .     S
C1571  H1734   1.110   .     S
C1571  H1735   1.110   .     S
C1572  H1738   1.117   .     S
C1572  H1737   1.110   .     S
C1572  O1943   1.417   .     S
C1572  C1573   1.521   .     S
C1573  H1741   1.110   .     S
C1573  H1739   1.110   .     S
C1573  H1740   1.110   .     S
C1574  O1944   1.416   .     S
C1574  C1575   1.521   .     S
C1574  H1742   1.117   .     S
C1574  H1743   1.110   .     S
C1575  H1746   1.110   .     S
C1575  H1747   1.110   .     S
C1575  H1745   1.110   .     S
C1576  C1578   1.519   .     S
C1576  H1748   1.118   .     S
C1576  H1749   1.109   .     S
C1576  O1945   1.414   .     S
C1577  C1613   1.462   .     S
C1577  C1644   1.403   .     A
C1578  H1750   1.110   .     S
C1578  H1751   1.109   .     S
C1578  H1752   1.111   .     S
C1579  O1947   1.412   .     S
C1579  H1754   1.114   .     S
C1579  C1580   1.521   .     S
C1579  H1753   1.114   .     S
C1580  H1756   1.111   .     S
C1580  H1757   1.110   .     S
C1580  H1758   1.111   .     S
C1581  O1948   1.417   .     S
C1581  H1759   1.110   .     S
C1581  C1582   1.521   .     S
C1581  H1760   1.117   .     S
C1582  H1763   1.110   .     S
C1582  H1761   1.110   .     S
C1582  H1762   1.110   .     S
C1583  C1584   1.520   .     S
C1583  O1949   1.415   .     S
C1583  H1764   1.115   .     S
C1583  H1765   1.110   .     S
C1584  H1767   1.110   .     S
C1584  H1769   1.110   .     S
C1584  H1768   1.110   .     S
C1585  H1771   1.109   .     S
C1585  O1950   1.414   .     S
C1585  C1586   1.519   .     S
C1585  H1770   1.117   .     S
C1586  H1774   1.111   .     S
C1586  H1772   1.110   .     S
C1586  H1773   1.109   .     S
C1587  H1776   1.109   .     S
C1587  H1775   1.116   .     S
C1587  O1951   1.415   .     S
C1587  C1590   1.523   .     S
C1588  H1766   1.084   .     S
C1589  C1611   1.403   .     A
C1589  C1614   1.462   .     S
C1590  H1778   1.111   .     S
C1590  H1780   1.107   .     S
C1590  H1779   1.111   .     S
C1591  C1619   1.462   .     S
C1591  C682    1.403   1_565 S
C1592  C1620   1.462   .     S
C1593  C1617   1.462   .     S
C1594  C1618   1.462   .     S
C1595  C1674   1.402   .     A
C1595  C1601   1.395   .     A
C1595  H1677   1.084   .     S
C1596  C1675   1.402   .     A
C1596  H1781   1.084   .     S
C1596  C1599   1.395   .     A
C1597  H1792   1.084   .     S
C1597  C1603   1.395   .     A
C1597  C1676   1.402   .     A
C1598  H1803   1.084   .     S
C1598  C1602   1.394   .     A
C1599  H1814   1.084   .     S
C1600  H1777   1.084   .     S
C1600  C593    1.403   1_565 S
C1601  H1825   1.084   .     S
C1602  H1836   1.084   .     S
C1603  H1847   1.084   .     S
C1604  H1858   1.084   .     S
C1604  C1609   1.395   1_556 S
C1605  H1678   1.084   .     S
C1605  C1608   1.395   1_554 S
C1606  H1689   1.084   .     S
C1606  C1612   1.394   1_556 S
C1607  H1700   1.084   .     S
C1607  C1610   1.394   1_554 S
C1608  H1711   1.084   .     S
C1608  C1605   1.395   1_556 S
C1609  H1722   1.084   .     S
C1609  C1604   1.395   1_554 S
C1610  H1733   1.084   .     S
C1610  C1607   1.394   1_556 S
C1611  H1782   1.084   .     S
C1612  H1744   1.084   .     S
C1612  C1606   1.394   1_554 S
C1613  O1952   1.281   .     A
C1614  O1924   1.280   .     A
C1615  O1935   1.281   .     A
C1616  O1946   1.280   .     A
C1616  O1380   1.280   1_655 S
C1617  O1873   1.281   .     S
C1617  O1877   1.281   .     S
C1618  O1878   1.281   .     A
C1618  O1874   1.281   .     A
C1619  O891    1.281   1_565 A
C1619  O895    1.280   1_565 A
C1620  O1876   1.281   .     S
C1620  O1881   1.280   .     S
C1621  O1910   1.278   .     A
C1621  O1882   1.282   .     A
C1622  H1783   1.084   .     S
C1622  C1674   1.394   .     A
C1622  C1063   1.403   1_655 S
C1623  O1911   1.278   .     A
C1623  O1883   1.281   .     A
C1624  O1908   1.278   .     A
C1624  O1884   1.280   .     A
C1625  O1909   1.282   .     A
C1625  O1885   1.280   .     A
C1626  O1915   1.278   .     A
C1626  O1886   1.282   .     A
C1627  O1916   1.279   .     A
C1627  O1887   1.281   .     A
C1628  O1888   1.280   .     A
C1628  O1912   1.278   .     A
C1629  O1889   1.276   .     A
C1629  O1914   1.290   .     A
C1630  O1890   1.278   .     A
C1630  O1901   1.280   .     A
C1631  O1892   1.282   .     A
C1631  O1903   1.280   .     A
C1632  O1899   1.281   .     A
C1632  O1893   1.278   .     A
C1633  H1784   1.084   .     S
C1633  C1675   1.394   .     A
C1634  O1894   1.278   .     A
C1634  O1900   1.280   .     A
C1635  O1906   1.285   .     A
C1635  O1895   1.276   .     A
C1636  O1896   1.282   .     A
C1636  O1907   1.279   .     A
C1637  O1904   1.281   .     A
C1637  O1897   1.278   .     A
C1638  O1905   1.281   .     A
C1638  O1898   1.279   .     A
C1639  O1917   1.386   .     S
C1639  C1656   1.397   .     A
C1640  O1918   1.387   .     S
C1640  C1654   1.402   .     A
C1641  C1653   1.397   .     A
C1641  O1919   1.387   .     S
C1642  O1920   1.387   .     S
C1642  C1652   1.396   .     A
C1643  C1651   1.397   .     A
C1643  O1921   1.386   .     S
C1644  H1785   1.084   .     S
C1644  C1676   1.394   .     A
C1645  C1650   1.403   .     A
C1645  O1922   1.387   .     S
C1646  C1649   1.397   .     A
C1646  O1923   1.387   .     S
C1647  C1648   1.396   .     A
C1647  O1925   1.387   .     S
C1648  O1926   1.386   .     S
C1649  O1927   1.387   .     S
C1650  O1928   1.387   .     S
C1651  O1929   1.385   .     S
C1652  O1930   1.386   .     S
C1653  O1931   1.387   .     S
C1654  O1932   1.386   .     S
C1655  H1786   1.084   .     S
C1655  C605    1.403   1_565 S
C1656  O1933   1.385   .     S
C1657  O1934   1.384   .     S
C1657  C1673   1.398   .     A
C1658  O1936   1.387   .     S
C1658  C1672   1.403   .     A
C1659  C1671   1.397   .     A
C1659  O1937   1.387   .     S
C1660  O1938   1.387   .     S
C1660  C1670   1.396   .     A
C1661  O1939   1.386   .     S
C1661  C1669   1.396   .     A
C1662  O1940   1.387   .     S
C1662  C1668   1.403   .     A
C1663  C1667   1.397   .     A
C1663  O1941   1.386   .     S
C1664  O1942   1.387   .     S
C1664  C1665   1.396   .     A
C1665  O1943   1.386   .     S
C1666  H1787   1.084   .     S
C1667  O1944   1.386   .     S
C1668  O1945   1.387   .     S
C1669  O1947   1.385   .     S
C1670  O1948   1.386   .     S
C1671  O1949   1.386   .     S
C1672  O1950   1.387   .     S
C1673  O1951   1.393   .     S
C1674  C1018   1.411   1_655 S
H1820  C545    1.110   1_565 S
H1821  C545    1.111   1_565 S
O1869  Zn1956  1.947   .     S
O1869  Zn1964  1.947   .     S
O1869  Zn1953  1.946   .     S
O1870  Zn1955  1.949   .     S
O1870  C630    1.281   1_565 S
O1871  Zn1958  1.949   .     S
O1871  C1123   1.280   1_655 S
O1872  Zn1957  1.949   .     S
O1873  Zn1967  1.949   .     S
O1874  Zn1966  1.949   .     S
O1875  Zn1961  1.950   .     S
O1876  Zn1953  1.950   .     S
O1877  Zn1963  1.949   .     S
O1878  Zn1962  1.949   .     S
O1879  Zn1965  1.949   .     S
O1880  Zn1959  1.947   .     S
O1880  Zn1961  1.946   .     S
O1880  Zn1965  1.947   .     S
O1881  Zn1964  1.949   .     S
O1882  Zn1956  1.930   .     S
O1883  Zn1955  1.930   .     S
O1884  Zn1958  1.939   .     S
O1885  Zn1957  1.939   .     S
O1886  Zn1960  1.930   .     S
O1887  Zn1959  1.930   .     S
O1888  Zn1954  1.939   .     S
O1889  Zn1968  1.939   .     S
O1890  Zn1955  1.939   .     S
O1891  Zn1962  1.947   .     S
O1891  Zn1966  1.947   .     S
O1891  Zn1954  1.946   .     S
O1892  Zn1956  1.939   .     S
O1893  Zn1968  1.931   .     S
O1894  Zn1954  1.931   .     S
O1895  Zn1959  1.939   .     S
O1896  Zn1960  1.939   .     S
O1897  Zn1957  1.930   .     S
O1898  Zn1958  1.930   .     S
O1899  Zn1471  1.930   1_655 S
O1900  Zn1962  1.930   .     S
O1901  Zn981   1.939   1_565 S
O1902  Zn1957  1.947   .     S
O1902  Zn1963  1.947   .     S
O1902  Zn1967  1.947   .     S
O1903  Zn1964  1.939   .     S
O1904  Zn1967  1.930   .     S
O1905  Zn1474  1.930   1_655 S
O1906  Zn1961  1.939   .     S
O1907  Zn969   1.939   1_565 S
O1908  Zn1470  1.939   1_655 S
O1909  Zn1963  1.939   .     S
O1910  Zn1953  1.931   .     S
O1911  Zn977   1.931   1_565 S
O1912  Zn1966  1.939   .     S
O1913  Zn1960  1.949   .     S
O1913  C629    1.281   1_565 S
O1914  Zn1475  1.939   1_655 S
O1915  Zn980   1.930   1_565 S
O1916  Zn1965  1.930   .     S
O1924  Zn1959  1.949   .     S
O1935  Zn1954  1.950   .     S
O1946  Zn1968  1.950   .     S
O1952  Zn1956  1.949   .     S
Zn1955 O896    1.947   1_565 S
Zn1958 O1399   1.947   1_655 S
Zn1960 O885    1.947   1_565 S
Zn1968 O1410   1.946   1_655 S
