data_str_m2_o1_o10_pcu_sym.27
_audit_creation_date              2020-01-03
_audit_creation_method            'Materials Studio'
_symmetry_space_group_name_H-M    'P1'
_symmetry_Int_Tables_number       1
_symmetry_cell_setting            triclinic
loop_
_symmetry_equiv_pos_as_xyz
  x,y,z
_cell_length_a                    26.2064
_cell_length_b                    32.5035
_cell_length_c                    28.5719
_cell_angle_alpha                 90.0107
_cell_angle_beta                  97.9353
_cell_angle_gamma                 90.1512
loop_
_atom_site_label
_atom_site_type_symbol
_atom_site_fract_x
_atom_site_fract_y
_atom_site_fract_z
_atom_site_U_iso_or_equiv
_atom_site_adp_type
_atom_site_occupancy
C1     C     0.16663   0.08736   0.16665   0.00000  Uiso   1.00
C2     C     0.16640   0.02129   0.20916   0.00000  Uiso   1.00
C3     C     0.16671   0.29059   0.16668   0.00000  Uiso   1.00
C4     C     0.16662   0.04274   0.16665   0.00000  Uiso   1.00
C5     C     0.13345   0.14206   0.02058   0.00000  Uiso   1.00
C6     C     0.19988   0.19128   0.31276   0.00000  Uiso   1.00
C7     C     0.13346   0.14207   0.30431   0.00000  Uiso   1.00
C8     C     0.19987   0.19126   0.02902   0.00000  Uiso   1.00
C9     C     0.16670   0.24597   0.16669   0.00000  Uiso   1.00
C10    C     0.06792   0.16666   0.15457   0.00000  Uiso   1.00
C11    C     0.26542   0.16668   0.17876   0.00000  Uiso   1.00
C12    C     0.01264   0.16669   0.14792   0.00000  Uiso   1.00
C13    C     0.32069   0.16665   0.18542   0.00000  Uiso   1.00
C14    C     0.16688   0.02127   0.12416   0.00000  Uiso   1.00
C15    C     0.16645   0.31206   0.20918   0.00000  Uiso   1.00
C16    C     0.16693   0.31204   0.12417   0.00000  Uiso   1.00
Cu17   Cu    0.16667   0.16667   0.21355   0.00000  Uiso   1.00
Cu18   Cu    0.16667   0.16666   0.11978   0.00000  Uiso   1.00
H19    H     0.16705   0.03727   0.09092   0.00000  Uiso   1.00
H20    H     0.22643   0.21102   0.05107   0.00000  Uiso   1.00
H21    H     0.16628   0.29607   0.24241   0.00000  Uiso   1.00
H22    H     0.10690   0.12229   0.03588   0.00000  Uiso   1.00
H23    H     0.22644   0.21105   0.29745   0.00000  Uiso   1.00
H24    H     0.32600   0.16675   0.11194   0.00000  Uiso   1.00
H25    H     0.00734   0.16658   0.22140   0.00000  Uiso   1.00
H26    H     0.16716   0.29602   0.09095   0.00000  Uiso   1.00
H27    H     0.16618   0.03731   0.24238   0.00000  Uiso   1.00
H28    H     0.10690   0.12232   0.28226   0.00000  Uiso   1.00
N29    N     0.16668   0.16668   0.28403   0.00000  Uiso   1.00
N30    N     0.16665   0.16666   0.04931   0.00000  Uiso   1.00
O31    O     0.16666   0.10655   0.20625   0.00000  Uiso   1.00
O32    O     0.16667   0.22678   0.12709   0.00000  Uiso   1.00
O33    O     0.16666   0.10654   0.12706   0.00000  Uiso   1.00
O34    O     0.16667   0.22679   0.20628   0.00000  Uiso   1.00
O35    O     0.09161   0.16667   0.19712   0.00000  Uiso   1.00
O36    O     0.24172   0.16666   0.13621   0.00000  Uiso   1.00
O37    O     0.09161   0.16666   0.11793   0.00000  Uiso   1.00
O38    O     0.24172   0.16667   0.21540   0.00000  Uiso   1.00
C39    C     0.49996   0.08736   0.16665   0.00000  Uiso   1.00
C40    C     0.49973   0.02129   0.20916   0.00000  Uiso   1.00
C41    C     0.50004   0.29059   0.16668   0.00000  Uiso   1.00
C42    C     0.49996   0.04274   0.16665   0.00000  Uiso   1.00
C43    C     0.46679   0.14206   0.02058   0.00000  Uiso   1.00
C44    C     0.53321   0.19128   0.31276   0.00000  Uiso   1.00
C45    C     0.46680   0.14207   0.30431   0.00000  Uiso   1.00
C46    C     0.53320   0.19126   0.02902   0.00000  Uiso   1.00
C47    C     0.50004   0.24597   0.16669   0.00000  Uiso   1.00
C48    C     0.40125   0.16666   0.15457   0.00000  Uiso   1.00
C49    C     0.59875   0.16668   0.17876   0.00000  Uiso   1.00
C50    C     0.34597   0.16669   0.14792   0.00000  Uiso   1.00
C51    C     0.65403   0.16665   0.18542   0.00000  Uiso   1.00
C52    C     0.50021   0.02127   0.12416   0.00000  Uiso   1.00
C53    C     0.49979   0.31206   0.20918   0.00000  Uiso   1.00
C54    C     0.50027   0.31204   0.12417   0.00000  Uiso   1.00
Cu55   Cu    0.50000   0.16667   0.21355   0.00000  Uiso   1.00
Cu56   Cu    0.50000   0.16666   0.11978   0.00000  Uiso   1.00
H57    H     0.50038   0.03727   0.09092   0.00000  Uiso   1.00
H58    H     0.55976   0.21102   0.05107   0.00000  Uiso   1.00
H59    H     0.49962   0.29607   0.24241   0.00000  Uiso   1.00
H60    H     0.44023   0.12229   0.03588   0.00000  Uiso   1.00
H61    H     0.55977   0.21105   0.29745   0.00000  Uiso   1.00
H62    H     0.65933   0.16675   0.11194   0.00000  Uiso   1.00
H63    H     0.34067   0.16658   0.22140   0.00000  Uiso   1.00
H64    H     0.50049   0.29602   0.09095   0.00000  Uiso   1.00
H65    H     0.49951   0.03731   0.24238   0.00000  Uiso   1.00
H66    H     0.44024   0.12232   0.28226   0.00000  Uiso   1.00
N67    N     0.50001   0.16668   0.28403   0.00000  Uiso   1.00
N68    N     0.49999   0.16666   0.04931   0.00000  Uiso   1.00
O69    O     0.50000   0.10655   0.20625   0.00000  Uiso   1.00
O70    O     0.50000   0.22678   0.12709   0.00000  Uiso   1.00
O71    O     0.50000   0.10654   0.12706   0.00000  Uiso   1.00
O72    O     0.50000   0.22679   0.20628   0.00000  Uiso   1.00
O73    O     0.42495   0.16667   0.19712   0.00000  Uiso   1.00
O74    O     0.57505   0.16666   0.13621   0.00000  Uiso   1.00
O75    O     0.42494   0.16666   0.11793   0.00000  Uiso   1.00
O76    O     0.57506   0.16667   0.21540   0.00000  Uiso   1.00
C77    C     0.83330   0.08736   0.16665   0.00000  Uiso   1.00
C78    C     0.83307   0.02129   0.20916   0.00000  Uiso   1.00
C79    C     0.83337   0.29059   0.16668   0.00000  Uiso   1.00
C80    C     0.83329   0.04274   0.16665   0.00000  Uiso   1.00
C81    C     0.80012   0.14206   0.02058   0.00000  Uiso   1.00
C82    C     0.86655   0.19128   0.31276   0.00000  Uiso   1.00
C83    C     0.80013   0.14207   0.30431   0.00000  Uiso   1.00
C84    C     0.86654   0.19126   0.02902   0.00000  Uiso   1.00
C85    C     0.83337   0.24597   0.16669   0.00000  Uiso   1.00
C86    C     0.73458   0.16666   0.15457   0.00000  Uiso   1.00
C87    C     0.93208   0.16668   0.17876   0.00000  Uiso   1.00
C88    C     0.67931   0.16669   0.14792   0.00000  Uiso   1.00
C89    C     0.98736   0.16665   0.18542   0.00000  Uiso   1.00
C90    C     0.83355   0.02127   0.12416   0.00000  Uiso   1.00
C91    C     0.83312   0.31206   0.20918   0.00000  Uiso   1.00
C92    C     0.83360   0.31204   0.12417   0.00000  Uiso   1.00
Cu93   Cu    0.83333   0.16667   0.21355   0.00000  Uiso   1.00
Cu94   Cu    0.83333   0.16666   0.11978   0.00000  Uiso   1.00
H95    H     0.83372   0.03727   0.09092   0.00000  Uiso   1.00
H96    H     0.89310   0.21102   0.05107   0.00000  Uiso   1.00
H97    H     0.83295   0.29607   0.24241   0.00000  Uiso   1.00
H98    H     0.77356   0.12229   0.03588   0.00000  Uiso   1.00
H99    H     0.89310   0.21105   0.29745   0.00000  Uiso   1.00
H100   H     0.99266   0.16675   0.11194   0.00000  Uiso   1.00
H101   H     0.67400   0.16658   0.22140   0.00000  Uiso   1.00
H102   H     0.83382   0.29602   0.09095   0.00000  Uiso   1.00
H103   H     0.83284   0.03731   0.24238   0.00000  Uiso   1.00
H104   H     0.77357   0.12232   0.28226   0.00000  Uiso   1.00
N105   N     0.83335   0.16668   0.28403   0.00000  Uiso   1.00
N106   N     0.83332   0.16666   0.04931   0.00000  Uiso   1.00
O107   O     0.83333   0.10655   0.20625   0.00000  Uiso   1.00
O108   O     0.83334   0.22678   0.12709   0.00000  Uiso   1.00
O109   O     0.83333   0.10654   0.12706   0.00000  Uiso   1.00
O110   O     0.83334   0.22679   0.20628   0.00000  Uiso   1.00
O111   O     0.75828   0.16667   0.19712   0.00000  Uiso   1.00
O112   O     0.90839   0.16666   0.13621   0.00000  Uiso   1.00
O113   O     0.75828   0.16666   0.11793   0.00000  Uiso   1.00
O114   O     0.90839   0.16667   0.21540   0.00000  Uiso   1.00
C115   C     0.16663   0.42069   0.16665   0.00000  Uiso   1.00
C116   C     0.16640   0.35463   0.20916   0.00000  Uiso   1.00
C117   C     0.16671   0.62393   0.16668   0.00000  Uiso   1.00
C118   C     0.16662   0.37607   0.16665   0.00000  Uiso   1.00
C119   C     0.13345   0.47539   0.02058   0.00000  Uiso   1.00
C120   C     0.19988   0.52461   0.31276   0.00000  Uiso   1.00
C121   C     0.13346   0.47540   0.30431   0.00000  Uiso   1.00
C122   C     0.19987   0.52460   0.02902   0.00000  Uiso   1.00
C123   C     0.16670   0.57931   0.16669   0.00000  Uiso   1.00
C124   C     0.06792   0.49999   0.15457   0.00000  Uiso   1.00
C125   C     0.26542   0.50001   0.17876   0.00000  Uiso   1.00
C126   C     0.01264   0.50002   0.14792   0.00000  Uiso   1.00
C127   C     0.32069   0.49998   0.18542   0.00000  Uiso   1.00
C128   C     0.16688   0.35460   0.12416   0.00000  Uiso   1.00
C129   C     0.16645   0.64539   0.20918   0.00000  Uiso   1.00
C130   C     0.16693   0.64537   0.12417   0.00000  Uiso   1.00
Cu131  Cu    0.16667   0.50001   0.21355   0.00000  Uiso   1.00
Cu132  Cu    0.16667   0.49999   0.11978   0.00000  Uiso   1.00
H133   H     0.16705   0.37060   0.09092   0.00000  Uiso   1.00
H134   H     0.22643   0.54435   0.05107   0.00000  Uiso   1.00
H135   H     0.16628   0.62940   0.24241   0.00000  Uiso   1.00
H136   H     0.10690   0.45562   0.03588   0.00000  Uiso   1.00
H137   H     0.22644   0.54438   0.29745   0.00000  Uiso   1.00
H138   H     0.32600   0.50008   0.11194   0.00000  Uiso   1.00
H139   H     0.00734   0.49992   0.22140   0.00000  Uiso   1.00
H140   H     0.16716   0.62936   0.09095   0.00000  Uiso   1.00
H141   H     0.16618   0.37064   0.24238   0.00000  Uiso   1.00
H142   H     0.10690   0.45565   0.28226   0.00000  Uiso   1.00
N143   N     0.16668   0.50001   0.28403   0.00000  Uiso   1.00
N144   N     0.16665   0.49999   0.04931   0.00000  Uiso   1.00
O145   O     0.16666   0.43989   0.20625   0.00000  Uiso   1.00
O146   O     0.16667   0.56011   0.12709   0.00000  Uiso   1.00
O147   O     0.16666   0.43988   0.12706   0.00000  Uiso   1.00
O148   O     0.16667   0.56012   0.20628   0.00000  Uiso   1.00
O149   O     0.09161   0.50000   0.19712   0.00000  Uiso   1.00
O150   O     0.24172   0.50000   0.13621   0.00000  Uiso   1.00
O151   O     0.09161   0.49999   0.11793   0.00000  Uiso   1.00
O152   O     0.24172   0.50001   0.21540   0.00000  Uiso   1.00
C153   C     0.49996   0.42069   0.16665   0.00000  Uiso   1.00
C154   C     0.49973   0.35463   0.20916   0.00000  Uiso   1.00
C155   C     0.50004   0.62393   0.16668   0.00000  Uiso   1.00
C156   C     0.49996   0.37607   0.16665   0.00000  Uiso   1.00
C157   C     0.46679   0.47539   0.02058   0.00000  Uiso   1.00
C158   C     0.53321   0.52461   0.31276   0.00000  Uiso   1.00
C159   C     0.46680   0.47540   0.30431   0.00000  Uiso   1.00
C160   C     0.53320   0.52460   0.02902   0.00000  Uiso   1.00
C161   C     0.50004   0.57931   0.16669   0.00000  Uiso   1.00
C162   C     0.40125   0.49999   0.15457   0.00000  Uiso   1.00
C163   C     0.59875   0.50001   0.17876   0.00000  Uiso   1.00
C164   C     0.34597   0.50002   0.14792   0.00000  Uiso   1.00
C165   C     0.65403   0.49998   0.18542   0.00000  Uiso   1.00
C166   C     0.50021   0.35460   0.12416   0.00000  Uiso   1.00
C167   C     0.49979   0.64539   0.20918   0.00000  Uiso   1.00
C168   C     0.50027   0.64537   0.12417   0.00000  Uiso   1.00
Cu169  Cu    0.50000   0.50001   0.21355   0.00000  Uiso   1.00
Cu170  Cu    0.50000   0.49999   0.11978   0.00000  Uiso   1.00
H171   H     0.50038   0.37060   0.09092   0.00000  Uiso   1.00
H172   H     0.55976   0.54435   0.05107   0.00000  Uiso   1.00
H173   H     0.49962   0.62940   0.24241   0.00000  Uiso   1.00
H174   H     0.44023   0.45562   0.03588   0.00000  Uiso   1.00
H175   H     0.55977   0.54438   0.29745   0.00000  Uiso   1.00
H176   H     0.65933   0.50008   0.11194   0.00000  Uiso   1.00
H177   H     0.34067   0.49992   0.22140   0.00000  Uiso   1.00
H178   H     0.50049   0.62936   0.09095   0.00000  Uiso   1.00
H179   H     0.49951   0.37064   0.24238   0.00000  Uiso   1.00
H180   H     0.44024   0.45565   0.28226   0.00000  Uiso   1.00
N181   N     0.50001   0.50001   0.28403   0.00000  Uiso   1.00
N182   N     0.49999   0.49999   0.04931   0.00000  Uiso   1.00
O183   O     0.50000   0.43989   0.20625   0.00000  Uiso   1.00
O184   O     0.50000   0.56011   0.12709   0.00000  Uiso   1.00
O185   O     0.50000   0.43988   0.12706   0.00000  Uiso   1.00
O186   O     0.50000   0.56012   0.20628   0.00000  Uiso   1.00
O187   O     0.42495   0.50000   0.19712   0.00000  Uiso   1.00
O188   O     0.57505   0.50000   0.13621   0.00000  Uiso   1.00
O189   O     0.42494   0.49999   0.11793   0.00000  Uiso   1.00
O190   O     0.57506   0.50001   0.21540   0.00000  Uiso   1.00
C191   C     0.83330   0.42069   0.16665   0.00000  Uiso   1.00
C192   C     0.83307   0.35463   0.20916   0.00000  Uiso   1.00
C193   C     0.83337   0.62393   0.16668   0.00000  Uiso   1.00
C194   C     0.83329   0.37607   0.16665   0.00000  Uiso   1.00
C195   C     0.80012   0.47539   0.02058   0.00000  Uiso   1.00
C196   C     0.86655   0.52461   0.31276   0.00000  Uiso   1.00
C197   C     0.80013   0.47540   0.30431   0.00000  Uiso   1.00
C198   C     0.86654   0.52460   0.02902   0.00000  Uiso   1.00
C199   C     0.83337   0.57931   0.16669   0.00000  Uiso   1.00
C200   C     0.73458   0.49999   0.15457   0.00000  Uiso   1.00
C201   C     0.93208   0.50001   0.17876   0.00000  Uiso   1.00
C202   C     0.67931   0.50002   0.14792   0.00000  Uiso   1.00
C203   C     0.98736   0.49998   0.18542   0.00000  Uiso   1.00
C204   C     0.83355   0.35460   0.12416   0.00000  Uiso   1.00
C205   C     0.83312   0.64539   0.20918   0.00000  Uiso   1.00
C206   C     0.83360   0.64537   0.12417   0.00000  Uiso   1.00
Cu207  Cu    0.83333   0.50001   0.21355   0.00000  Uiso   1.00
Cu208  Cu    0.83333   0.49999   0.11978   0.00000  Uiso   1.00
H209   H     0.83372   0.37060   0.09092   0.00000  Uiso   1.00
H210   H     0.89310   0.54435   0.05107   0.00000  Uiso   1.00
H211   H     0.83295   0.62940   0.24241   0.00000  Uiso   1.00
H212   H     0.77356   0.45562   0.03588   0.00000  Uiso   1.00
H213   H     0.89310   0.54438   0.29745   0.00000  Uiso   1.00
H214   H     0.99266   0.50008   0.11194   0.00000  Uiso   1.00
H215   H     0.67400   0.49992   0.22140   0.00000  Uiso   1.00
H216   H     0.83382   0.62936   0.09095   0.00000  Uiso   1.00
H217   H     0.83284   0.37064   0.24238   0.00000  Uiso   1.00
H218   H     0.77357   0.45565   0.28226   0.00000  Uiso   1.00
N219   N     0.83335   0.50001   0.28403   0.00000  Uiso   1.00
N220   N     0.83332   0.49999   0.04931   0.00000  Uiso   1.00
O221   O     0.83333   0.43989   0.20625   0.00000  Uiso   1.00
O222   O     0.83334   0.56011   0.12709   0.00000  Uiso   1.00
O223   O     0.83333   0.43988   0.12706   0.00000  Uiso   1.00
O224   O     0.83334   0.56012   0.20628   0.00000  Uiso   1.00
O225   O     0.75828   0.50000   0.19712   0.00000  Uiso   1.00
O226   O     0.90839   0.50000   0.13621   0.00000  Uiso   1.00
O227   O     0.75828   0.49999   0.11793   0.00000  Uiso   1.00
O228   O     0.90839   0.50001   0.21540   0.00000  Uiso   1.00
C229   C     0.16663   0.75403   0.16665   0.00000  Uiso   1.00
C230   C     0.16640   0.68796   0.20916   0.00000  Uiso   1.00
C231   C     0.16671   0.95726   0.16668   0.00000  Uiso   1.00
C232   C     0.16662   0.70941   0.16665   0.00000  Uiso   1.00
C233   C     0.13345   0.80872   0.02058   0.00000  Uiso   1.00
C234   C     0.19988   0.85794   0.31276   0.00000  Uiso   1.00
C235   C     0.13346   0.80873   0.30431   0.00000  Uiso   1.00
C236   C     0.19987   0.85793   0.02902   0.00000  Uiso   1.00
C237   C     0.16670   0.91264   0.16669   0.00000  Uiso   1.00
C238   C     0.06792   0.83332   0.15457   0.00000  Uiso   1.00
C239   C     0.26542   0.83334   0.17876   0.00000  Uiso   1.00
C240   C     0.01264   0.83335   0.14792   0.00000  Uiso   1.00
C241   C     0.32069   0.83331   0.18542   0.00000  Uiso   1.00
C242   C     0.16688   0.68794   0.12416   0.00000  Uiso   1.00
C243   C     0.16645   0.97873   0.20918   0.00000  Uiso   1.00
C244   C     0.16693   0.97871   0.12417   0.00000  Uiso   1.00
Cu245  Cu    0.16667   0.83334   0.21355   0.00000  Uiso   1.00
Cu246  Cu    0.16667   0.83333   0.11978   0.00000  Uiso   1.00
H247   H     0.16705   0.70393   0.09092   0.00000  Uiso   1.00
H248   H     0.22643   0.87768   0.05107   0.00000  Uiso   1.00
H249   H     0.16628   0.96273   0.24241   0.00000  Uiso   1.00
H250   H     0.10690   0.78895   0.03588   0.00000  Uiso   1.00
H251   H     0.22644   0.87771   0.29745   0.00000  Uiso   1.00
H252   H     0.32600   0.83342   0.11194   0.00000  Uiso   1.00
H253   H     0.00734   0.83325   0.22140   0.00000  Uiso   1.00
H254   H     0.16716   0.96269   0.09095   0.00000  Uiso   1.00
H255   H     0.16618   0.70398   0.24238   0.00000  Uiso   1.00
H256   H     0.10690   0.78898   0.28226   0.00000  Uiso   1.00
N257   N     0.16668   0.83334   0.28403   0.00000  Uiso   1.00
N258   N     0.16665   0.83332   0.04931   0.00000  Uiso   1.00
O259   O     0.16666   0.77322   0.20625   0.00000  Uiso   1.00
O260   O     0.16667   0.89345   0.12709   0.00000  Uiso   1.00
O261   O     0.16666   0.77321   0.12706   0.00000  Uiso   1.00
O262   O     0.16667   0.89346   0.20628   0.00000  Uiso   1.00
O263   O     0.09161   0.83334   0.19712   0.00000  Uiso   1.00
O264   O     0.24172   0.83333   0.13621   0.00000  Uiso   1.00
O265   O     0.09161   0.83333   0.11793   0.00000  Uiso   1.00
O266   O     0.24172   0.83334   0.21540   0.00000  Uiso   1.00
C267   C     0.49996   0.75403   0.16665   0.00000  Uiso   1.00
C268   C     0.49973   0.68796   0.20916   0.00000  Uiso   1.00
C269   C     0.50004   0.95726   0.16668   0.00000  Uiso   1.00
C270   C     0.49996   0.70941   0.16665   0.00000  Uiso   1.00
C271   C     0.46679   0.80872   0.02058   0.00000  Uiso   1.00
C272   C     0.53321   0.85794   0.31276   0.00000  Uiso   1.00
C273   C     0.46680   0.80873   0.30431   0.00000  Uiso   1.00
C274   C     0.53320   0.85793   0.02902   0.00000  Uiso   1.00
C275   C     0.50004   0.91264   0.16669   0.00000  Uiso   1.00
C276   C     0.40125   0.83332   0.15457   0.00000  Uiso   1.00
C277   C     0.59875   0.83334   0.17876   0.00000  Uiso   1.00
C278   C     0.34597   0.83335   0.14792   0.00000  Uiso   1.00
C279   C     0.65403   0.83331   0.18542   0.00000  Uiso   1.00
C280   C     0.50021   0.68794   0.12416   0.00000  Uiso   1.00
C281   C     0.49979   0.97873   0.20918   0.00000  Uiso   1.00
C282   C     0.50027   0.97871   0.12417   0.00000  Uiso   1.00
Cu283  Cu    0.50000   0.83334   0.21355   0.00000  Uiso   1.00
Cu284  Cu    0.50000   0.83333   0.11978   0.00000  Uiso   1.00
H285   H     0.50038   0.70393   0.09092   0.00000  Uiso   1.00
H286   H     0.55976   0.87768   0.05107   0.00000  Uiso   1.00
H287   H     0.49962   0.96273   0.24241   0.00000  Uiso   1.00
H288   H     0.44023   0.78895   0.03588   0.00000  Uiso   1.00
H289   H     0.55977   0.87771   0.29745   0.00000  Uiso   1.00
H290   H     0.65933   0.83342   0.11194   0.00000  Uiso   1.00
H291   H     0.34067   0.83325   0.22140   0.00000  Uiso   1.00
H292   H     0.50049   0.96269   0.09095   0.00000  Uiso   1.00
H293   H     0.49951   0.70398   0.24238   0.00000  Uiso   1.00
H294   H     0.44024   0.78898   0.28226   0.00000  Uiso   1.00
N295   N     0.50001   0.83334   0.28403   0.00000  Uiso   1.00
N296   N     0.49999   0.83332   0.04931   0.00000  Uiso   1.00
O297   O     0.50000   0.77322   0.20625   0.00000  Uiso   1.00
O298   O     0.50000   0.89345   0.12709   0.00000  Uiso   1.00
O299   O     0.50000   0.77321   0.12706   0.00000  Uiso   1.00
O300   O     0.50000   0.89346   0.20628   0.00000  Uiso   1.00
O301   O     0.42495   0.83334   0.19712   0.00000  Uiso   1.00
O302   O     0.57505   0.83333   0.13621   0.00000  Uiso   1.00
O303   O     0.42494   0.83333   0.11793   0.00000  Uiso   1.00
O304   O     0.57506   0.83334   0.21540   0.00000  Uiso   1.00
C305   C     0.83330   0.75403   0.16665   0.00000  Uiso   1.00
C306   C     0.83307   0.68796   0.20916   0.00000  Uiso   1.00
C307   C     0.83337   0.95726   0.16668   0.00000  Uiso   1.00
C308   C     0.83329   0.70941   0.16665   0.00000  Uiso   1.00
C309   C     0.80012   0.80872   0.02058   0.00000  Uiso   1.00
C310   C     0.86655   0.85794   0.31276   0.00000  Uiso   1.00
C311   C     0.80013   0.80873   0.30431   0.00000  Uiso   1.00
C312   C     0.86654   0.85793   0.02902   0.00000  Uiso   1.00
C313   C     0.83337   0.91264   0.16669   0.00000  Uiso   1.00
C314   C     0.73458   0.83332   0.15457   0.00000  Uiso   1.00
C315   C     0.93208   0.83334   0.17876   0.00000  Uiso   1.00
C316   C     0.67931   0.83335   0.14792   0.00000  Uiso   1.00
C317   C     0.98736   0.83331   0.18542   0.00000  Uiso   1.00
C318   C     0.83355   0.68794   0.12416   0.00000  Uiso   1.00
C319   C     0.83312   0.97873   0.20918   0.00000  Uiso   1.00
C320   C     0.83360   0.97871   0.12417   0.00000  Uiso   1.00
Cu321  Cu    0.83333   0.83334   0.21355   0.00000  Uiso   1.00
Cu322  Cu    0.83333   0.83333   0.11978   0.00000  Uiso   1.00
H323   H     0.83372   0.70393   0.09092   0.00000  Uiso   1.00
H324   H     0.89310   0.87768   0.05107   0.00000  Uiso   1.00
H325   H     0.83295   0.96273   0.24241   0.00000  Uiso   1.00
H326   H     0.77356   0.78895   0.03588   0.00000  Uiso   1.00
H327   H     0.89310   0.87771   0.29745   0.00000  Uiso   1.00
H328   H     0.99266   0.83342   0.11194   0.00000  Uiso   1.00
H329   H     0.67400   0.83325   0.22140   0.00000  Uiso   1.00
H330   H     0.83382   0.96269   0.09095   0.00000  Uiso   1.00
H331   H     0.83284   0.70398   0.24238   0.00000  Uiso   1.00
H332   H     0.77357   0.78898   0.28226   0.00000  Uiso   1.00
N333   N     0.83335   0.83334   0.28403   0.00000  Uiso   1.00
N334   N     0.83332   0.83332   0.04931   0.00000  Uiso   1.00
O335   O     0.83333   0.77322   0.20625   0.00000  Uiso   1.00
O336   O     0.83334   0.89345   0.12709   0.00000  Uiso   1.00
O337   O     0.83333   0.77321   0.12706   0.00000  Uiso   1.00
O338   O     0.83334   0.89346   0.20628   0.00000  Uiso   1.00
O339   O     0.75828   0.83334   0.19712   0.00000  Uiso   1.00
O340   O     0.90839   0.83333   0.13621   0.00000  Uiso   1.00
O341   O     0.75828   0.83333   0.11793   0.00000  Uiso   1.00
O342   O     0.90839   0.83334   0.21540   0.00000  Uiso   1.00
C343   C     0.16663   0.08736   0.49998   0.00000  Uiso   1.00
C344   C     0.16640   0.02129   0.54249   0.00000  Uiso   1.00
C345   C     0.16671   0.29059   0.50001   0.00000  Uiso   1.00
C346   C     0.16662   0.04274   0.49999   0.00000  Uiso   1.00
C347   C     0.13345   0.14206   0.35391   0.00000  Uiso   1.00
C348   C     0.19988   0.19128   0.64609   0.00000  Uiso   1.00
C349   C     0.13346   0.14207   0.63765   0.00000  Uiso   1.00
C350   C     0.19987   0.19126   0.36235   0.00000  Uiso   1.00
C351   C     0.16670   0.24597   0.50002   0.00000  Uiso   1.00
C352   C     0.06792   0.16666   0.48791   0.00000  Uiso   1.00
C353   C     0.26542   0.16668   0.51209   0.00000  Uiso   1.00
C354   C     0.01264   0.16669   0.48125   0.00000  Uiso   1.00
C355   C     0.32069   0.16665   0.51875   0.00000  Uiso   1.00
C356   C     0.16688   0.02127   0.45749   0.00000  Uiso   1.00
C357   C     0.16645   0.31206   0.54251   0.00000  Uiso   1.00
C358   C     0.16693   0.31204   0.45751   0.00000  Uiso   1.00
Cu359  Cu    0.16667   0.16667   0.54689   0.00000  Uiso   1.00
Cu360  Cu    0.16667   0.16666   0.45311   0.00000  Uiso   1.00
H361   H     0.16705   0.03727   0.42426   0.00000  Uiso   1.00
H362   H     0.22643   0.21102   0.38441   0.00000  Uiso   1.00
H363   H     0.16628   0.29607   0.57574   0.00000  Uiso   1.00
H364   H     0.10690   0.12229   0.36921   0.00000  Uiso   1.00
H365   H     0.22644   0.21105   0.63079   0.00000  Uiso   1.00
H366   H     0.32600   0.16675   0.44527   0.00000  Uiso   1.00
H367   H     0.00734   0.16658   0.55473   0.00000  Uiso   1.00
H368   H     0.16716   0.29602   0.42428   0.00000  Uiso   1.00
H369   H     0.16618   0.03731   0.57572   0.00000  Uiso   1.00
H370   H     0.10690   0.12232   0.61559   0.00000  Uiso   1.00
N371   N     0.16668   0.16668   0.61736   0.00000  Uiso   1.00
N372   N     0.16665   0.16666   0.38264   0.00000  Uiso   1.00
O373   O     0.16666   0.10655   0.53958   0.00000  Uiso   1.00
O374   O     0.16667   0.22678   0.46042   0.00000  Uiso   1.00
O375   O     0.16666   0.10654   0.46039   0.00000  Uiso   1.00
O376   O     0.16667   0.22679   0.53961   0.00000  Uiso   1.00
O377   O     0.09161   0.16667   0.53046   0.00000  Uiso   1.00
O378   O     0.24172   0.16666   0.46954   0.00000  Uiso   1.00
O379   O     0.09161   0.16666   0.45127   0.00000  Uiso   1.00
O380   O     0.24172   0.16667   0.54873   0.00000  Uiso   1.00
C381   C     0.49996   0.08736   0.49998   0.00000  Uiso   1.00
C382   C     0.49973   0.02129   0.54249   0.00000  Uiso   1.00
C383   C     0.50004   0.29059   0.50001   0.00000  Uiso   1.00
C384   C     0.49996   0.04274   0.49999   0.00000  Uiso   1.00
C385   C     0.46679   0.14206   0.35391   0.00000  Uiso   1.00
C386   C     0.53321   0.19128   0.64609   0.00000  Uiso   1.00
C387   C     0.46680   0.14207   0.63765   0.00000  Uiso   1.00
C388   C     0.53320   0.19126   0.36235   0.00000  Uiso   1.00
C389   C     0.50004   0.24597   0.50002   0.00000  Uiso   1.00
C390   C     0.40125   0.16666   0.48791   0.00000  Uiso   1.00
C391   C     0.59875   0.16668   0.51209   0.00000  Uiso   1.00
C392   C     0.34597   0.16669   0.48125   0.00000  Uiso   1.00
C393   C     0.65403   0.16665   0.51875   0.00000  Uiso   1.00
C394   C     0.50021   0.02127   0.45749   0.00000  Uiso   1.00
C395   C     0.49979   0.31206   0.54251   0.00000  Uiso   1.00
C396   C     0.50027   0.31204   0.45751   0.00000  Uiso   1.00
Cu397  Cu    0.50000   0.16667   0.54689   0.00000  Uiso   1.00
Cu398  Cu    0.50000   0.16666   0.45311   0.00000  Uiso   1.00
H399   H     0.50038   0.03727   0.42426   0.00000  Uiso   1.00
H400   H     0.55976   0.21102   0.38441   0.00000  Uiso   1.00
H401   H     0.49962   0.29607   0.57574   0.00000  Uiso   1.00
H402   H     0.44023   0.12229   0.36921   0.00000  Uiso   1.00
H403   H     0.55977   0.21105   0.63079   0.00000  Uiso   1.00
H404   H     0.65933   0.16675   0.44527   0.00000  Uiso   1.00
H405   H     0.34067   0.16658   0.55473   0.00000  Uiso   1.00
H406   H     0.50049   0.29602   0.42428   0.00000  Uiso   1.00
H407   H     0.49951   0.03731   0.57572   0.00000  Uiso   1.00
H408   H     0.44024   0.12232   0.61559   0.00000  Uiso   1.00
N409   N     0.50001   0.16668   0.61736   0.00000  Uiso   1.00
N410   N     0.49999   0.16666   0.38264   0.00000  Uiso   1.00
O411   O     0.50000   0.10655   0.53958   0.00000  Uiso   1.00
O412   O     0.50000   0.22678   0.46042   0.00000  Uiso   1.00
O413   O     0.50000   0.10654   0.46039   0.00000  Uiso   1.00
O414   O     0.50000   0.22679   0.53961   0.00000  Uiso   1.00
O415   O     0.42495   0.16667   0.53046   0.00000  Uiso   1.00
O416   O     0.57505   0.16666   0.46954   0.00000  Uiso   1.00
O417   O     0.42494   0.16666   0.45127   0.00000  Uiso   1.00
O418   O     0.57506   0.16667   0.54873   0.00000  Uiso   1.00
C419   C     0.83330   0.08736   0.49998   0.00000  Uiso   1.00
C420   C     0.83307   0.02129   0.54249   0.00000  Uiso   1.00
C421   C     0.83337   0.29059   0.50001   0.00000  Uiso   1.00
C422   C     0.83329   0.04274   0.49999   0.00000  Uiso   1.00
C423   C     0.80012   0.14206   0.35391   0.00000  Uiso   1.00
C424   C     0.86655   0.19128   0.64609   0.00000  Uiso   1.00
C425   C     0.80013   0.14207   0.63765   0.00000  Uiso   1.00
C426   C     0.86654   0.19126   0.36235   0.00000  Uiso   1.00
C427   C     0.83337   0.24597   0.50002   0.00000  Uiso   1.00
C428   C     0.73458   0.16666   0.48791   0.00000  Uiso   1.00
C429   C     0.93208   0.16668   0.51209   0.00000  Uiso   1.00
C430   C     0.67931   0.16669   0.48125   0.00000  Uiso   1.00
C431   C     0.98736   0.16665   0.51875   0.00000  Uiso   1.00
C432   C     0.83355   0.02127   0.45749   0.00000  Uiso   1.00
C433   C     0.83312   0.31206   0.54251   0.00000  Uiso   1.00
C434   C     0.83360   0.31204   0.45751   0.00000  Uiso   1.00
Cu435  Cu    0.83333   0.16667   0.54689   0.00000  Uiso   1.00
Cu436  Cu    0.83333   0.16666   0.45311   0.00000  Uiso   1.00
H437   H     0.83372   0.03727   0.42426   0.00000  Uiso   1.00
H438   H     0.89310   0.21102   0.38441   0.00000  Uiso   1.00
H439   H     0.83295   0.29607   0.57574   0.00000  Uiso   1.00
H440   H     0.77356   0.12229   0.36921   0.00000  Uiso   1.00
H441   H     0.89310   0.21105   0.63079   0.00000  Uiso   1.00
H442   H     0.99266   0.16675   0.44527   0.00000  Uiso   1.00
H443   H     0.67400   0.16658   0.55473   0.00000  Uiso   1.00
H444   H     0.83382   0.29602   0.42428   0.00000  Uiso   1.00
H445   H     0.83284   0.03731   0.57572   0.00000  Uiso   1.00
H446   H     0.77357   0.12232   0.61559   0.00000  Uiso   1.00
N447   N     0.83335   0.16668   0.61736   0.00000  Uiso   1.00
N448   N     0.83332   0.16666   0.38264   0.00000  Uiso   1.00
O449   O     0.83333   0.10655   0.53958   0.00000  Uiso   1.00
O450   O     0.83334   0.22678   0.46042   0.00000  Uiso   1.00
O451   O     0.83333   0.10654   0.46039   0.00000  Uiso   1.00
O452   O     0.83334   0.22679   0.53961   0.00000  Uiso   1.00
O453   O     0.75828   0.16667   0.53046   0.00000  Uiso   1.00
O454   O     0.90839   0.16666   0.46954   0.00000  Uiso   1.00
O455   O     0.75828   0.16666   0.45127   0.00000  Uiso   1.00
O456   O     0.90839   0.16667   0.54873   0.00000  Uiso   1.00
C457   C     0.16663   0.42069   0.49998   0.00000  Uiso   1.00
C458   C     0.16640   0.35463   0.54249   0.00000  Uiso   1.00
C459   C     0.16671   0.62393   0.50001   0.00000  Uiso   1.00
C460   C     0.16662   0.37607   0.49999   0.00000  Uiso   1.00
C461   C     0.13345   0.47539   0.35391   0.00000  Uiso   1.00
C462   C     0.19988   0.52461   0.64609   0.00000  Uiso   1.00
C463   C     0.13346   0.47540   0.63765   0.00000  Uiso   1.00
C464   C     0.19987   0.52460   0.36235   0.00000  Uiso   1.00
C465   C     0.16670   0.57931   0.50002   0.00000  Uiso   1.00
C466   C     0.06792   0.49999   0.48791   0.00000  Uiso   1.00
C467   C     0.26542   0.50001   0.51209   0.00000  Uiso   1.00
C468   C     0.01264   0.50002   0.48125   0.00000  Uiso   1.00
C469   C     0.32069   0.49998   0.51875   0.00000  Uiso   1.00
C470   C     0.16688   0.35460   0.45749   0.00000  Uiso   1.00
C471   C     0.16645   0.64539   0.54251   0.00000  Uiso   1.00
C472   C     0.16693   0.64537   0.45751   0.00000  Uiso   1.00
Cu473  Cu    0.16667   0.50001   0.54689   0.00000  Uiso   1.00
Cu474  Cu    0.16667   0.49999   0.45311   0.00000  Uiso   1.00
H475   H     0.16705   0.37060   0.42426   0.00000  Uiso   1.00
H476   H     0.22643   0.54435   0.38441   0.00000  Uiso   1.00
H477   H     0.16628   0.62940   0.57574   0.00000  Uiso   1.00
H478   H     0.10690   0.45562   0.36921   0.00000  Uiso   1.00
H479   H     0.22644   0.54438   0.63079   0.00000  Uiso   1.00
H480   H     0.32600   0.50008   0.44527   0.00000  Uiso   1.00
H481   H     0.00734   0.49992   0.55473   0.00000  Uiso   1.00
H482   H     0.16716   0.62936   0.42428   0.00000  Uiso   1.00
H483   H     0.16618   0.37064   0.57572   0.00000  Uiso   1.00
H484   H     0.10690   0.45565   0.61559   0.00000  Uiso   1.00
N485   N     0.16668   0.50001   0.61736   0.00000  Uiso   1.00
N486   N     0.16665   0.49999   0.38264   0.00000  Uiso   1.00
O487   O     0.16666   0.43989   0.53958   0.00000  Uiso   1.00
O488   O     0.16667   0.56011   0.46042   0.00000  Uiso   1.00
O489   O     0.16666   0.43988   0.46039   0.00000  Uiso   1.00
O490   O     0.16667   0.56012   0.53961   0.00000  Uiso   1.00
O491   O     0.09161   0.50000   0.53046   0.00000  Uiso   1.00
O492   O     0.24172   0.50000   0.46954   0.00000  Uiso   1.00
O493   O     0.09161   0.49999   0.45127   0.00000  Uiso   1.00
O494   O     0.24172   0.50001   0.54873   0.00000  Uiso   1.00
C495   C     0.49996   0.42069   0.49998   0.00000  Uiso   1.00
C496   C     0.49973   0.35463   0.54249   0.00000  Uiso   1.00
C497   C     0.50004   0.62393   0.50001   0.00000  Uiso   1.00
C498   C     0.49996   0.37607   0.49999   0.00000  Uiso   1.00
C499   C     0.46679   0.47539   0.35391   0.00000  Uiso   1.00
C500   C     0.53321   0.52461   0.64609   0.00000  Uiso   1.00
C501   C     0.46680   0.47540   0.63765   0.00000  Uiso   1.00
C502   C     0.53320   0.52460   0.36235   0.00000  Uiso   1.00
C503   C     0.50004   0.57931   0.50002   0.00000  Uiso   1.00
C504   C     0.40125   0.49999   0.48791   0.00000  Uiso   1.00
C505   C     0.59875   0.50001   0.51209   0.00000  Uiso   1.00
C506   C     0.34597   0.50002   0.48125   0.00000  Uiso   1.00
C507   C     0.65403   0.49998   0.51875   0.00000  Uiso   1.00
C508   C     0.50021   0.35460   0.45749   0.00000  Uiso   1.00
C509   C     0.49979   0.64539   0.54251   0.00000  Uiso   1.00
C510   C     0.50027   0.64537   0.45751   0.00000  Uiso   1.00
Cu511  Cu    0.50000   0.50001   0.54689   0.00000  Uiso   1.00
Cu512  Cu    0.50000   0.49999   0.45311   0.00000  Uiso   1.00
H513   H     0.50038   0.37060   0.42426   0.00000  Uiso   1.00
H514   H     0.55976   0.54435   0.38441   0.00000  Uiso   1.00
H515   H     0.49962   0.62940   0.57574   0.00000  Uiso   1.00
H516   H     0.44023   0.45562   0.36921   0.00000  Uiso   1.00
H517   H     0.55977   0.54438   0.63079   0.00000  Uiso   1.00
H518   H     0.65933   0.50008   0.44527   0.00000  Uiso   1.00
H519   H     0.34067   0.49992   0.55473   0.00000  Uiso   1.00
H520   H     0.50049   0.62936   0.42428   0.00000  Uiso   1.00
H521   H     0.49951   0.37064   0.57572   0.00000  Uiso   1.00
H522   H     0.44024   0.45565   0.61559   0.00000  Uiso   1.00
N523   N     0.50001   0.50001   0.61736   0.00000  Uiso   1.00
N524   N     0.49999   0.49999   0.38264   0.00000  Uiso   1.00
O525   O     0.50000   0.43989   0.53958   0.00000  Uiso   1.00
O526   O     0.50000   0.56011   0.46042   0.00000  Uiso   1.00
O527   O     0.50000   0.43988   0.46039   0.00000  Uiso   1.00
O528   O     0.50000   0.56012   0.53961   0.00000  Uiso   1.00
O529   O     0.42495   0.50000   0.53046   0.00000  Uiso   1.00
O530   O     0.57505   0.50000   0.46954   0.00000  Uiso   1.00
O531   O     0.42494   0.49999   0.45127   0.00000  Uiso   1.00
O532   O     0.57506   0.50001   0.54873   0.00000  Uiso   1.00
C533   C     0.83330   0.42069   0.49998   0.00000  Uiso   1.00
C534   C     0.83307   0.35463   0.54249   0.00000  Uiso   1.00
C535   C     0.83337   0.62393   0.50001   0.00000  Uiso   1.00
C536   C     0.83329   0.37607   0.49999   0.00000  Uiso   1.00
C537   C     0.80012   0.47539   0.35391   0.00000  Uiso   1.00
C538   C     0.86655   0.52461   0.64609   0.00000  Uiso   1.00
C539   C     0.80013   0.47540   0.63765   0.00000  Uiso   1.00
C540   C     0.86654   0.52460   0.36235   0.00000  Uiso   1.00
C541   C     0.83337   0.57931   0.50002   0.00000  Uiso   1.00
C542   C     0.73458   0.49999   0.48791   0.00000  Uiso   1.00
C543   C     0.93208   0.50001   0.51209   0.00000  Uiso   1.00
C544   C     0.67931   0.50002   0.48125   0.00000  Uiso   1.00
C545   C     0.98736   0.49998   0.51875   0.00000  Uiso   1.00
C546   C     0.83355   0.35460   0.45749   0.00000  Uiso   1.00
C547   C     0.83312   0.64539   0.54251   0.00000  Uiso   1.00
C548   C     0.83360   0.64537   0.45751   0.00000  Uiso   1.00
Cu549  Cu    0.83333   0.50001   0.54689   0.00000  Uiso   1.00
Cu550  Cu    0.83333   0.49999   0.45311   0.00000  Uiso   1.00
H551   H     0.83372   0.37060   0.42426   0.00000  Uiso   1.00
H552   H     0.89310   0.54435   0.38441   0.00000  Uiso   1.00
H553   H     0.83295   0.62940   0.57574   0.00000  Uiso   1.00
H554   H     0.77356   0.45562   0.36921   0.00000  Uiso   1.00
H555   H     0.89310   0.54438   0.63079   0.00000  Uiso   1.00
H556   H     0.99266   0.50008   0.44527   0.00000  Uiso   1.00
H557   H     0.67400   0.49992   0.55473   0.00000  Uiso   1.00
H558   H     0.83382   0.62936   0.42428   0.00000  Uiso   1.00
H559   H     0.83284   0.37064   0.57572   0.00000  Uiso   1.00
H560   H     0.77357   0.45565   0.61559   0.00000  Uiso   1.00
N561   N     0.83335   0.50001   0.61736   0.00000  Uiso   1.00
N562   N     0.83332   0.49999   0.38264   0.00000  Uiso   1.00
O563   O     0.83333   0.43989   0.53958   0.00000  Uiso   1.00
O564   O     0.83334   0.56011   0.46042   0.00000  Uiso   1.00
O565   O     0.83333   0.43988   0.46039   0.00000  Uiso   1.00
O566   O     0.83334   0.56012   0.53961   0.00000  Uiso   1.00
O567   O     0.75828   0.50000   0.53046   0.00000  Uiso   1.00
O568   O     0.90839   0.50000   0.46954   0.00000  Uiso   1.00
O569   O     0.75828   0.49999   0.45127   0.00000  Uiso   1.00
O570   O     0.90839   0.50001   0.54873   0.00000  Uiso   1.00
C571   C     0.16663   0.75403   0.49998   0.00000  Uiso   1.00
C572   C     0.16640   0.68796   0.54249   0.00000  Uiso   1.00
C573   C     0.16671   0.95726   0.50001   0.00000  Uiso   1.00
C574   C     0.16662   0.70941   0.49999   0.00000  Uiso   1.00
C575   C     0.13345   0.80872   0.35391   0.00000  Uiso   1.00
C576   C     0.19988   0.85794   0.64609   0.00000  Uiso   1.00
C577   C     0.13346   0.80873   0.63765   0.00000  Uiso   1.00
C578   C     0.19987   0.85793   0.36235   0.00000  Uiso   1.00
C579   C     0.16670   0.91264   0.50002   0.00000  Uiso   1.00
C580   C     0.06792   0.83332   0.48791   0.00000  Uiso   1.00
C581   C     0.26542   0.83334   0.51209   0.00000  Uiso   1.00
C582   C     0.01264   0.83335   0.48125   0.00000  Uiso   1.00
C583   C     0.32069   0.83331   0.51875   0.00000  Uiso   1.00
C584   C     0.16688   0.68794   0.45749   0.00000  Uiso   1.00
C585   C     0.16645   0.97873   0.54251   0.00000  Uiso   1.00
C586   C     0.16693   0.97871   0.45751   0.00000  Uiso   1.00
Cu587  Cu    0.16667   0.83334   0.54689   0.00000  Uiso   1.00
Cu588  Cu    0.16667   0.83333   0.45311   0.00000  Uiso   1.00
H589   H     0.16705   0.70393   0.42426   0.00000  Uiso   1.00
H590   H     0.22643   0.87768   0.38441   0.00000  Uiso   1.00
H591   H     0.16628   0.96273   0.57574   0.00000  Uiso   1.00
H592   H     0.10690   0.78895   0.36921   0.00000  Uiso   1.00
H593   H     0.22644   0.87771   0.63079   0.00000  Uiso   1.00
H594   H     0.32600   0.83342   0.44527   0.00000  Uiso   1.00
H595   H     0.00734   0.83325   0.55473   0.00000  Uiso   1.00
H596   H     0.16716   0.96269   0.42428   0.00000  Uiso   1.00
H597   H     0.16618   0.70398   0.57572   0.00000  Uiso   1.00
H598   H     0.10690   0.78898   0.61559   0.00000  Uiso   1.00
N599   N     0.16668   0.83334   0.61736   0.00000  Uiso   1.00
N600   N     0.16665   0.83332   0.38264   0.00000  Uiso   1.00
O601   O     0.16666   0.77322   0.53958   0.00000  Uiso   1.00
O602   O     0.16667   0.89345   0.46042   0.00000  Uiso   1.00
O603   O     0.16666   0.77321   0.46039   0.00000  Uiso   1.00
O604   O     0.16667   0.89346   0.53961   0.00000  Uiso   1.00
O605   O     0.09161   0.83334   0.53046   0.00000  Uiso   1.00
O606   O     0.24172   0.83333   0.46954   0.00000  Uiso   1.00
O607   O     0.09161   0.83333   0.45127   0.00000  Uiso   1.00
O608   O     0.24172   0.83334   0.54873   0.00000  Uiso   1.00
C609   C     0.49996   0.75403   0.49998   0.00000  Uiso   1.00
C610   C     0.49973   0.68796   0.54249   0.00000  Uiso   1.00
C611   C     0.50004   0.95726   0.50001   0.00000  Uiso   1.00
C612   C     0.49996   0.70941   0.49999   0.00000  Uiso   1.00
C613   C     0.46679   0.80872   0.35391   0.00000  Uiso   1.00
C614   C     0.53321   0.85794   0.64609   0.00000  Uiso   1.00
C615   C     0.46680   0.80873   0.63765   0.00000  Uiso   1.00
C616   C     0.53320   0.85793   0.36235   0.00000  Uiso   1.00
C617   C     0.50004   0.91264   0.50002   0.00000  Uiso   1.00
C618   C     0.40125   0.83332   0.48791   0.00000  Uiso   1.00
C619   C     0.59875   0.83334   0.51209   0.00000  Uiso   1.00
C620   C     0.34597   0.83335   0.48125   0.00000  Uiso   1.00
C621   C     0.65403   0.83331   0.51875   0.00000  Uiso   1.00
C622   C     0.50021   0.68794   0.45749   0.00000  Uiso   1.00
C623   C     0.49979   0.97873   0.54251   0.00000  Uiso   1.00
C624   C     0.50027   0.97871   0.45751   0.00000  Uiso   1.00
Cu625  Cu    0.50000   0.83334   0.54689   0.00000  Uiso   1.00
Cu626  Cu    0.50000   0.83333   0.45311   0.00000  Uiso   1.00
H627   H     0.50038   0.70393   0.42426   0.00000  Uiso   1.00
H628   H     0.55976   0.87768   0.38441   0.00000  Uiso   1.00
H629   H     0.49962   0.96273   0.57574   0.00000  Uiso   1.00
H630   H     0.44023   0.78895   0.36921   0.00000  Uiso   1.00
H631   H     0.55977   0.87771   0.63079   0.00000  Uiso   1.00
H632   H     0.65933   0.83342   0.44527   0.00000  Uiso   1.00
H633   H     0.34067   0.83325   0.55473   0.00000  Uiso   1.00
H634   H     0.50049   0.96269   0.42428   0.00000  Uiso   1.00
H635   H     0.49951   0.70398   0.57572   0.00000  Uiso   1.00
H636   H     0.44024   0.78898   0.61559   0.00000  Uiso   1.00
N637   N     0.50001   0.83334   0.61736   0.00000  Uiso   1.00
N638   N     0.49999   0.83332   0.38264   0.00000  Uiso   1.00
O639   O     0.50000   0.77322   0.53958   0.00000  Uiso   1.00
O640   O     0.50000   0.89345   0.46042   0.00000  Uiso   1.00
O641   O     0.50000   0.77321   0.46039   0.00000  Uiso   1.00
O642   O     0.50000   0.89346   0.53961   0.00000  Uiso   1.00
O643   O     0.42495   0.83334   0.53046   0.00000  Uiso   1.00
O644   O     0.57505   0.83333   0.46954   0.00000  Uiso   1.00
O645   O     0.42494   0.83333   0.45127   0.00000  Uiso   1.00
O646   O     0.57506   0.83334   0.54873   0.00000  Uiso   1.00
C647   C     0.83330   0.75403   0.49998   0.00000  Uiso   1.00
C648   C     0.83307   0.68796   0.54249   0.00000  Uiso   1.00
C649   C     0.83337   0.95726   0.50001   0.00000  Uiso   1.00
C650   C     0.83329   0.70941   0.49999   0.00000  Uiso   1.00
C651   C     0.80012   0.80872   0.35391   0.00000  Uiso   1.00
C652   C     0.86655   0.85794   0.64609   0.00000  Uiso   1.00
C653   C     0.80013   0.80873   0.63765   0.00000  Uiso   1.00
C654   C     0.86654   0.85793   0.36235   0.00000  Uiso   1.00
C655   C     0.83337   0.91264   0.50002   0.00000  Uiso   1.00
C656   C     0.73458   0.83332   0.48791   0.00000  Uiso   1.00
C657   C     0.93208   0.83334   0.51209   0.00000  Uiso   1.00
C658   C     0.67931   0.83335   0.48125   0.00000  Uiso   1.00
C659   C     0.98736   0.83331   0.51875   0.00000  Uiso   1.00
C660   C     0.83355   0.68794   0.45749   0.00000  Uiso   1.00
C661   C     0.83312   0.97873   0.54251   0.00000  Uiso   1.00
C662   C     0.83360   0.97871   0.45751   0.00000  Uiso   1.00
Cu663  Cu    0.83333   0.83334   0.54689   0.00000  Uiso   1.00
Cu664  Cu    0.83333   0.83333   0.45311   0.00000  Uiso   1.00
H665   H     0.83372   0.70393   0.42426   0.00000  Uiso   1.00
H666   H     0.89310   0.87768   0.38441   0.00000  Uiso   1.00
H667   H     0.83295   0.96273   0.57574   0.00000  Uiso   1.00
H668   H     0.77356   0.78895   0.36921   0.00000  Uiso   1.00
H669   H     0.89310   0.87771   0.63079   0.00000  Uiso   1.00
H670   H     0.99266   0.83342   0.44527   0.00000  Uiso   1.00
H671   H     0.67400   0.83325   0.55473   0.00000  Uiso   1.00
H672   H     0.83382   0.96269   0.42428   0.00000  Uiso   1.00
H673   H     0.83284   0.70398   0.57572   0.00000  Uiso   1.00
H674   H     0.77357   0.78898   0.61559   0.00000  Uiso   1.00
N675   N     0.83335   0.83334   0.61736   0.00000  Uiso   1.00
N676   N     0.83332   0.83332   0.38264   0.00000  Uiso   1.00
O677   O     0.83333   0.77322   0.53958   0.00000  Uiso   1.00
O678   O     0.83334   0.89345   0.46042   0.00000  Uiso   1.00
O679   O     0.83333   0.77321   0.46039   0.00000  Uiso   1.00
O680   O     0.83334   0.89346   0.53961   0.00000  Uiso   1.00
O681   O     0.75828   0.83334   0.53046   0.00000  Uiso   1.00
O682   O     0.90839   0.83333   0.46954   0.00000  Uiso   1.00
O683   O     0.75828   0.83333   0.45127   0.00000  Uiso   1.00
O684   O     0.90839   0.83334   0.54873   0.00000  Uiso   1.00
C685   C     0.16663   0.08736   0.83331   0.00000  Uiso   1.00
C686   C     0.16640   0.02129   0.87583   0.00000  Uiso   1.00
C687   C     0.16671   0.29059   0.83335   0.00000  Uiso   1.00
C688   C     0.16662   0.04274   0.83332   0.00000  Uiso   1.00
C689   C     0.13345   0.14206   0.68724   0.00000  Uiso   1.00
C690   C     0.19988   0.19128   0.97942   0.00000  Uiso   1.00
C691   C     0.13346   0.14207   0.97098   0.00000  Uiso   1.00
C692   C     0.19987   0.19126   0.69569   0.00000  Uiso   1.00
C693   C     0.16670   0.24597   0.83335   0.00000  Uiso   1.00
C694   C     0.06792   0.16666   0.82124   0.00000  Uiso   1.00
C695   C     0.26542   0.16668   0.84543   0.00000  Uiso   1.00
C696   C     0.01264   0.16669   0.81458   0.00000  Uiso   1.00
C697   C     0.32069   0.16665   0.85208   0.00000  Uiso   1.00
C698   C     0.16688   0.02127   0.79083   0.00000  Uiso   1.00
C699   C     0.16645   0.31206   0.87584   0.00000  Uiso   1.00
C700   C     0.16693   0.31204   0.79084   0.00000  Uiso   1.00
Cu701  Cu    0.16667   0.16667   0.88022   0.00000  Uiso   1.00
Cu702  Cu    0.16667   0.16666   0.78645   0.00000  Uiso   1.00
H703   H     0.16705   0.03727   0.75759   0.00000  Uiso   1.00
H704   H     0.22643   0.21102   0.71774   0.00000  Uiso   1.00
H705   H     0.16628   0.29607   0.90908   0.00000  Uiso   1.00
H706   H     0.10690   0.12229   0.70255   0.00000  Uiso   1.00
H707   H     0.22644   0.21105   0.96412   0.00000  Uiso   1.00
H708   H     0.32600   0.16675   0.77860   0.00000  Uiso   1.00
H709   H     0.00734   0.16658   0.88806   0.00000  Uiso   1.00
H710   H     0.16716   0.29602   0.75762   0.00000  Uiso   1.00
H711   H     0.16618   0.03731   0.90905   0.00000  Uiso   1.00
H712   H     0.10690   0.12232   0.94893   0.00000  Uiso   1.00
N713   N     0.16668   0.16668   0.95069   0.00000  Uiso   1.00
N714   N     0.16665   0.16666   0.71597   0.00000  Uiso   1.00
O715   O     0.16666   0.10655   0.87291   0.00000  Uiso   1.00
O716   O     0.16667   0.22678   0.79375   0.00000  Uiso   1.00
O717   O     0.16666   0.10654   0.79372   0.00000  Uiso   1.00
O718   O     0.16667   0.22679   0.87294   0.00000  Uiso   1.00
O719   O     0.09161   0.16667   0.86379   0.00000  Uiso   1.00
O720   O     0.24172   0.16666   0.80288   0.00000  Uiso   1.00
O721   O     0.09161   0.16666   0.78460   0.00000  Uiso   1.00
O722   O     0.24172   0.16667   0.88207   0.00000  Uiso   1.00
C723   C     0.49996   0.08736   0.83331   0.00000  Uiso   1.00
C724   C     0.49973   0.02129   0.87583   0.00000  Uiso   1.00
C725   C     0.50004   0.29059   0.83335   0.00000  Uiso   1.00
C726   C     0.49996   0.04274   0.83332   0.00000  Uiso   1.00
C727   C     0.46679   0.14206   0.68724   0.00000  Uiso   1.00
C728   C     0.53321   0.19128   0.97942   0.00000  Uiso   1.00
C729   C     0.46680   0.14207   0.97098   0.00000  Uiso   1.00
C730   C     0.53320   0.19126   0.69569   0.00000  Uiso   1.00
C731   C     0.50004   0.24597   0.83335   0.00000  Uiso   1.00
C732   C     0.40125   0.16666   0.82124   0.00000  Uiso   1.00
C733   C     0.59875   0.16668   0.84543   0.00000  Uiso   1.00
C734   C     0.34597   0.16669   0.81458   0.00000  Uiso   1.00
C735   C     0.65403   0.16665   0.85208   0.00000  Uiso   1.00
C736   C     0.50021   0.02127   0.79083   0.00000  Uiso   1.00
C737   C     0.49979   0.31206   0.87584   0.00000  Uiso   1.00
C738   C     0.50027   0.31204   0.79084   0.00000  Uiso   1.00
Cu739  Cu    0.50000   0.16667   0.88022   0.00000  Uiso   1.00
Cu740  Cu    0.50000   0.16666   0.78645   0.00000  Uiso   1.00
H741   H     0.50038   0.03727   0.75759   0.00000  Uiso   1.00
H742   H     0.55976   0.21102   0.71774   0.00000  Uiso   1.00
H743   H     0.49962   0.29607   0.90908   0.00000  Uiso   1.00
H744   H     0.44023   0.12229   0.70255   0.00000  Uiso   1.00
H745   H     0.55977   0.21105   0.96412   0.00000  Uiso   1.00
H746   H     0.65933   0.16675   0.77860   0.00000  Uiso   1.00
H747   H     0.34067   0.16658   0.88806   0.00000  Uiso   1.00
H748   H     0.50049   0.29602   0.75762   0.00000  Uiso   1.00
H749   H     0.49951   0.03731   0.90905   0.00000  Uiso   1.00
H750   H     0.44024   0.12232   0.94893   0.00000  Uiso   1.00
N751   N     0.50001   0.16668   0.95069   0.00000  Uiso   1.00
N752   N     0.49999   0.16666   0.71597   0.00000  Uiso   1.00
O753   O     0.50000   0.10655   0.87291   0.00000  Uiso   1.00
O754   O     0.50000   0.22678   0.79375   0.00000  Uiso   1.00
O755   O     0.50000   0.10654   0.79372   0.00000  Uiso   1.00
O756   O     0.50000   0.22679   0.87294   0.00000  Uiso   1.00
O757   O     0.42495   0.16667   0.86379   0.00000  Uiso   1.00
O758   O     0.57505   0.16666   0.80288   0.00000  Uiso   1.00
O759   O     0.42494   0.16666   0.78460   0.00000  Uiso   1.00
O760   O     0.57506   0.16667   0.88207   0.00000  Uiso   1.00
C761   C     0.83330   0.08736   0.83331   0.00000  Uiso   1.00
C762   C     0.83307   0.02129   0.87583   0.00000  Uiso   1.00
C763   C     0.83337   0.29059   0.83335   0.00000  Uiso   1.00
C764   C     0.83329   0.04274   0.83332   0.00000  Uiso   1.00
C765   C     0.80012   0.14206   0.68724   0.00000  Uiso   1.00
C766   C     0.86655   0.19128   0.97942   0.00000  Uiso   1.00
C767   C     0.80013   0.14207   0.97098   0.00000  Uiso   1.00
C768   C     0.86654   0.19126   0.69569   0.00000  Uiso   1.00
C769   C     0.83337   0.24597   0.83335   0.00000  Uiso   1.00
C770   C     0.73458   0.16666   0.82124   0.00000  Uiso   1.00
C771   C     0.93208   0.16668   0.84543   0.00000  Uiso   1.00
C772   C     0.67931   0.16669   0.81458   0.00000  Uiso   1.00
C773   C     0.98736   0.16665   0.85208   0.00000  Uiso   1.00
C774   C     0.83355   0.02127   0.79083   0.00000  Uiso   1.00
C775   C     0.83312   0.31206   0.87584   0.00000  Uiso   1.00
C776   C     0.83360   0.31204   0.79084   0.00000  Uiso   1.00
Cu777  Cu    0.83333   0.16667   0.88022   0.00000  Uiso   1.00
Cu778  Cu    0.83333   0.16666   0.78645   0.00000  Uiso   1.00
H779   H     0.83372   0.03727   0.75759   0.00000  Uiso   1.00
H780   H     0.89310   0.21102   0.71774   0.00000  Uiso   1.00
H781   H     0.83295   0.29607   0.90908   0.00000  Uiso   1.00
H782   H     0.77356   0.12229   0.70255   0.00000  Uiso   1.00
H783   H     0.89310   0.21105   0.96412   0.00000  Uiso   1.00
H784   H     0.99266   0.16675   0.77860   0.00000  Uiso   1.00
H785   H     0.67400   0.16658   0.88806   0.00000  Uiso   1.00
H786   H     0.83382   0.29602   0.75762   0.00000  Uiso   1.00
H787   H     0.83284   0.03731   0.90905   0.00000  Uiso   1.00
H788   H     0.77357   0.12232   0.94893   0.00000  Uiso   1.00
N789   N     0.83335   0.16668   0.95069   0.00000  Uiso   1.00
N790   N     0.83332   0.16666   0.71597   0.00000  Uiso   1.00
O791   O     0.83333   0.10655   0.87291   0.00000  Uiso   1.00
O792   O     0.83334   0.22678   0.79375   0.00000  Uiso   1.00
O793   O     0.83333   0.10654   0.79372   0.00000  Uiso   1.00
O794   O     0.83334   0.22679   0.87294   0.00000  Uiso   1.00
O795   O     0.75828   0.16667   0.86379   0.00000  Uiso   1.00
O796   O     0.90839   0.16666   0.80288   0.00000  Uiso   1.00
O797   O     0.75828   0.16666   0.78460   0.00000  Uiso   1.00
O798   O     0.90839   0.16667   0.88207   0.00000  Uiso   1.00
C799   C     0.16663   0.42069   0.83331   0.00000  Uiso   1.00
C800   C     0.16640   0.35463   0.87583   0.00000  Uiso   1.00
C801   C     0.16671   0.62393   0.83335   0.00000  Uiso   1.00
C802   C     0.16662   0.37607   0.83332   0.00000  Uiso   1.00
C803   C     0.13345   0.47539   0.68724   0.00000  Uiso   1.00
C804   C     0.19988   0.52461   0.97942   0.00000  Uiso   1.00
C805   C     0.13346   0.47540   0.97098   0.00000  Uiso   1.00
C806   C     0.19987   0.52460   0.69569   0.00000  Uiso   1.00
C807   C     0.16670   0.57931   0.83335   0.00000  Uiso   1.00
C808   C     0.06792   0.49999   0.82124   0.00000  Uiso   1.00
C809   C     0.26542   0.50001   0.84543   0.00000  Uiso   1.00
C810   C     0.01264   0.50002   0.81458   0.00000  Uiso   1.00
C811   C     0.32069   0.49998   0.85208   0.00000  Uiso   1.00
C812   C     0.16688   0.35460   0.79083   0.00000  Uiso   1.00
C813   C     0.16645   0.64539   0.87584   0.00000  Uiso   1.00
C814   C     0.16693   0.64537   0.79084   0.00000  Uiso   1.00
Cu815  Cu    0.16667   0.50001   0.88022   0.00000  Uiso   1.00
Cu816  Cu    0.16667   0.49999   0.78645   0.00000  Uiso   1.00
H817   H     0.16705   0.37060   0.75759   0.00000  Uiso   1.00
H818   H     0.22643   0.54435   0.71774   0.00000  Uiso   1.00
H819   H     0.16628   0.62940   0.90908   0.00000  Uiso   1.00
H820   H     0.10690   0.45562   0.70255   0.00000  Uiso   1.00
H821   H     0.22644   0.54438   0.96412   0.00000  Uiso   1.00
H822   H     0.32600   0.50008   0.77860   0.00000  Uiso   1.00
H823   H     0.00734   0.49992   0.88806   0.00000  Uiso   1.00
H824   H     0.16716   0.62936   0.75762   0.00000  Uiso   1.00
H825   H     0.16618   0.37064   0.90905   0.00000  Uiso   1.00
H826   H     0.10690   0.45565   0.94893   0.00000  Uiso   1.00
N827   N     0.16668   0.50001   0.95069   0.00000  Uiso   1.00
N828   N     0.16665   0.49999   0.71597   0.00000  Uiso   1.00
O829   O     0.16666   0.43989   0.87291   0.00000  Uiso   1.00
O830   O     0.16667   0.56011   0.79375   0.00000  Uiso   1.00
O831   O     0.16666   0.43988   0.79372   0.00000  Uiso   1.00
O832   O     0.16667   0.56012   0.87294   0.00000  Uiso   1.00
O833   O     0.09161   0.50000   0.86379   0.00000  Uiso   1.00
O834   O     0.24172   0.50000   0.80288   0.00000  Uiso   1.00
O835   O     0.09161   0.49999   0.78460   0.00000  Uiso   1.00
O836   O     0.24172   0.50001   0.88207   0.00000  Uiso   1.00
C837   C     0.49996   0.42069   0.83331   0.00000  Uiso   1.00
C838   C     0.49973   0.35463   0.87583   0.00000  Uiso   1.00
C839   C     0.50004   0.62393   0.83335   0.00000  Uiso   1.00
C840   C     0.49996   0.37607   0.83332   0.00000  Uiso   1.00
C841   C     0.46679   0.47539   0.68724   0.00000  Uiso   1.00
C842   C     0.53321   0.52461   0.97942   0.00000  Uiso   1.00
C843   C     0.46680   0.47540   0.97098   0.00000  Uiso   1.00
C844   C     0.53320   0.52460   0.69569   0.00000  Uiso   1.00
C845   C     0.50004   0.57931   0.83335   0.00000  Uiso   1.00
C846   C     0.40125   0.49999   0.82124   0.00000  Uiso   1.00
C847   C     0.59875   0.50001   0.84543   0.00000  Uiso   1.00
C848   C     0.34597   0.50002   0.81458   0.00000  Uiso   1.00
C849   C     0.65403   0.49998   0.85208   0.00000  Uiso   1.00
C850   C     0.50021   0.35460   0.79083   0.00000  Uiso   1.00
C851   C     0.49979   0.64539   0.87584   0.00000  Uiso   1.00
C852   C     0.50027   0.64537   0.79084   0.00000  Uiso   1.00
Cu853  Cu    0.50000   0.50001   0.88022   0.00000  Uiso   1.00
Cu854  Cu    0.50000   0.49999   0.78645   0.00000  Uiso   1.00
H855   H     0.50038   0.37060   0.75759   0.00000  Uiso   1.00
H856   H     0.55976   0.54435   0.71774   0.00000  Uiso   1.00
H857   H     0.49962   0.62940   0.90908   0.00000  Uiso   1.00
H858   H     0.44023   0.45562   0.70255   0.00000  Uiso   1.00
H859   H     0.55977   0.54438   0.96412   0.00000  Uiso   1.00
H860   H     0.65933   0.50008   0.77860   0.00000  Uiso   1.00
H861   H     0.34067   0.49992   0.88806   0.00000  Uiso   1.00
H862   H     0.50049   0.62936   0.75762   0.00000  Uiso   1.00
H863   H     0.49951   0.37064   0.90905   0.00000  Uiso   1.00
H864   H     0.44024   0.45565   0.94893   0.00000  Uiso   1.00
N865   N     0.50001   0.50001   0.95069   0.00000  Uiso   1.00
N866   N     0.49999   0.49999   0.71597   0.00000  Uiso   1.00
O867   O     0.50000   0.43989   0.87291   0.00000  Uiso   1.00
O868   O     0.50000   0.56011   0.79375   0.00000  Uiso   1.00
O869   O     0.50000   0.43988   0.79372   0.00000  Uiso   1.00
O870   O     0.50000   0.56012   0.87294   0.00000  Uiso   1.00
O871   O     0.42495   0.50000   0.86379   0.00000  Uiso   1.00
O872   O     0.57505   0.50000   0.80288   0.00000  Uiso   1.00
O873   O     0.42494   0.49999   0.78460   0.00000  Uiso   1.00
O874   O     0.57506   0.50001   0.88207   0.00000  Uiso   1.00
C875   C     0.83330   0.42069   0.83331   0.00000  Uiso   1.00
C876   C     0.83307   0.35463   0.87583   0.00000  Uiso   1.00
C877   C     0.83337   0.62393   0.83335   0.00000  Uiso   1.00
C878   C     0.83329   0.37607   0.83332   0.00000  Uiso   1.00
C879   C     0.80012   0.47539   0.68724   0.00000  Uiso   1.00
C880   C     0.86655   0.52461   0.97942   0.00000  Uiso   1.00
C881   C     0.80013   0.47540   0.97098   0.00000  Uiso   1.00
C882   C     0.86654   0.52460   0.69569   0.00000  Uiso   1.00
C883   C     0.83337   0.57931   0.83335   0.00000  Uiso   1.00
C884   C     0.73458   0.49999   0.82124   0.00000  Uiso   1.00
C885   C     0.93208   0.50001   0.84543   0.00000  Uiso   1.00
C886   C     0.67931   0.50002   0.81458   0.00000  Uiso   1.00
C887   C     0.98736   0.49998   0.85208   0.00000  Uiso   1.00
C888   C     0.83355   0.35460   0.79083   0.00000  Uiso   1.00
C889   C     0.83312   0.64539   0.87584   0.00000  Uiso   1.00
C890   C     0.83360   0.64537   0.79084   0.00000  Uiso   1.00
Cu891  Cu    0.83333   0.50001   0.88022   0.00000  Uiso   1.00
Cu892  Cu    0.83333   0.49999   0.78645   0.00000  Uiso   1.00
H893   H     0.83372   0.37060   0.75759   0.00000  Uiso   1.00
H894   H     0.89310   0.54435   0.71774   0.00000  Uiso   1.00
H895   H     0.83295   0.62940   0.90908   0.00000  Uiso   1.00
H896   H     0.77356   0.45562   0.70255   0.00000  Uiso   1.00
H897   H     0.89310   0.54438   0.96412   0.00000  Uiso   1.00
H898   H     0.99266   0.50008   0.77860   0.00000  Uiso   1.00
H899   H     0.67400   0.49992   0.88806   0.00000  Uiso   1.00
H900   H     0.83382   0.62936   0.75762   0.00000  Uiso   1.00
H901   H     0.83284   0.37064   0.90905   0.00000  Uiso   1.00
H902   H     0.77357   0.45565   0.94893   0.00000  Uiso   1.00
N903   N     0.83335   0.50001   0.95069   0.00000  Uiso   1.00
N904   N     0.83332   0.49999   0.71597   0.00000  Uiso   1.00
O905   O     0.83333   0.43989   0.87291   0.00000  Uiso   1.00
O906   O     0.83334   0.56011   0.79375   0.00000  Uiso   1.00
O907   O     0.83333   0.43988   0.79372   0.00000  Uiso   1.00
O908   O     0.83334   0.56012   0.87294   0.00000  Uiso   1.00
O909   O     0.75828   0.50000   0.86379   0.00000  Uiso   1.00
O910   O     0.90839   0.50000   0.80288   0.00000  Uiso   1.00
O911   O     0.75828   0.49999   0.78460   0.00000  Uiso   1.00
O912   O     0.90839   0.50001   0.88207   0.00000  Uiso   1.00
C913   C     0.16663   0.75403   0.83331   0.00000  Uiso   1.00
C914   C     0.16640   0.68796   0.87583   0.00000  Uiso   1.00
C915   C     0.16671   0.95726   0.83335   0.00000  Uiso   1.00
C916   C     0.16662   0.70941   0.83332   0.00000  Uiso   1.00
C917   C     0.13345   0.80872   0.68724   0.00000  Uiso   1.00
C918   C     0.19988   0.85794   0.97942   0.00000  Uiso   1.00
C919   C     0.13346   0.80873   0.97098   0.00000  Uiso   1.00
C920   C     0.19987   0.85793   0.69569   0.00000  Uiso   1.00
C921   C     0.16670   0.91264   0.83335   0.00000  Uiso   1.00
C922   C     0.06792   0.83332   0.82124   0.00000  Uiso   1.00
C923   C     0.26542   0.83334   0.84543   0.00000  Uiso   1.00
C924   C     0.01264   0.83335   0.81458   0.00000  Uiso   1.00
C925   C     0.32069   0.83331   0.85208   0.00000  Uiso   1.00
C926   C     0.16688   0.68794   0.79083   0.00000  Uiso   1.00
C927   C     0.16645   0.97873   0.87584   0.00000  Uiso   1.00
C928   C     0.16693   0.97871   0.79084   0.00000  Uiso   1.00
Cu929  Cu    0.16667   0.83334   0.88022   0.00000  Uiso   1.00
Cu930  Cu    0.16667   0.83333   0.78645   0.00000  Uiso   1.00
H931   H     0.16705   0.70393   0.75759   0.00000  Uiso   1.00
H932   H     0.22643   0.87768   0.71774   0.00000  Uiso   1.00
H933   H     0.16628   0.96273   0.90908   0.00000  Uiso   1.00
H934   H     0.10690   0.78895   0.70255   0.00000  Uiso   1.00
H935   H     0.22644   0.87771   0.96412   0.00000  Uiso   1.00
H936   H     0.32600   0.83342   0.77860   0.00000  Uiso   1.00
H937   H     0.00734   0.83325   0.88806   0.00000  Uiso   1.00
H938   H     0.16716   0.96269   0.75762   0.00000  Uiso   1.00
H939   H     0.16618   0.70398   0.90905   0.00000  Uiso   1.00
H940   H     0.10690   0.78898   0.94893   0.00000  Uiso   1.00
N941   N     0.16668   0.83334   0.95069   0.00000  Uiso   1.00
N942   N     0.16665   0.83332   0.71597   0.00000  Uiso   1.00
O943   O     0.16666   0.77322   0.87291   0.00000  Uiso   1.00
O944   O     0.16667   0.89345   0.79375   0.00000  Uiso   1.00
O945   O     0.16666   0.77321   0.79372   0.00000  Uiso   1.00
O946   O     0.16667   0.89346   0.87294   0.00000  Uiso   1.00
O947   O     0.09161   0.83334   0.86379   0.00000  Uiso   1.00
O948   O     0.24172   0.83333   0.80288   0.00000  Uiso   1.00
O949   O     0.09161   0.83333   0.78460   0.00000  Uiso   1.00
O950   O     0.24172   0.83334   0.88207   0.00000  Uiso   1.00
C951   C     0.49996   0.75403   0.83331   0.00000  Uiso   1.00
C952   C     0.49973   0.68796   0.87583   0.00000  Uiso   1.00
C953   C     0.50004   0.95726   0.83335   0.00000  Uiso   1.00
C954   C     0.49996   0.70941   0.83332   0.00000  Uiso   1.00
C955   C     0.46679   0.80872   0.68724   0.00000  Uiso   1.00
C956   C     0.53321   0.85794   0.97942   0.00000  Uiso   1.00
C957   C     0.46680   0.80873   0.97098   0.00000  Uiso   1.00
C958   C     0.53320   0.85793   0.69569   0.00000  Uiso   1.00
C959   C     0.50004   0.91264   0.83335   0.00000  Uiso   1.00
C960   C     0.40125   0.83332   0.82124   0.00000  Uiso   1.00
C961   C     0.59875   0.83334   0.84543   0.00000  Uiso   1.00
C962   C     0.34597   0.83335   0.81458   0.00000  Uiso   1.00
C963   C     0.65403   0.83331   0.85208   0.00000  Uiso   1.00
C964   C     0.50021   0.68794   0.79083   0.00000  Uiso   1.00
C965   C     0.49979   0.97873   0.87584   0.00000  Uiso   1.00
C966   C     0.50027   0.97871   0.79084   0.00000  Uiso   1.00
Cu967  Cu    0.50000   0.83334   0.88022   0.00000  Uiso   1.00
Cu968  Cu    0.50000   0.83333   0.78645   0.00000  Uiso   1.00
H969   H     0.50038   0.70393   0.75759   0.00000  Uiso   1.00
H970   H     0.55976   0.87768   0.71774   0.00000  Uiso   1.00
H971   H     0.49962   0.96273   0.90908   0.00000  Uiso   1.00
H972   H     0.44023   0.78895   0.70255   0.00000  Uiso   1.00
H973   H     0.55977   0.87771   0.96412   0.00000  Uiso   1.00
H974   H     0.65933   0.83342   0.77860   0.00000  Uiso   1.00
H975   H     0.34067   0.83325   0.88806   0.00000  Uiso   1.00
H976   H     0.50049   0.96269   0.75762   0.00000  Uiso   1.00
H977   H     0.49951   0.70398   0.90905   0.00000  Uiso   1.00
H978   H     0.44024   0.78898   0.94893   0.00000  Uiso   1.00
N979   N     0.50001   0.83334   0.95069   0.00000  Uiso   1.00
N980   N     0.49999   0.83332   0.71597   0.00000  Uiso   1.00
O981   O     0.50000   0.77322   0.87291   0.00000  Uiso   1.00
O982   O     0.50000   0.89345   0.79375   0.00000  Uiso   1.00
O983   O     0.50000   0.77321   0.79372   0.00000  Uiso   1.00
O984   O     0.50000   0.89346   0.87294   0.00000  Uiso   1.00
O985   O     0.42495   0.83334   0.86379   0.00000  Uiso   1.00
O986   O     0.57505   0.83333   0.80288   0.00000  Uiso   1.00
O987   O     0.42494   0.83333   0.78460   0.00000  Uiso   1.00
O988   O     0.57506   0.83334   0.88207   0.00000  Uiso   1.00
C989   C     0.83330   0.75403   0.83331   0.00000  Uiso   1.00
C990   C     0.83307   0.68796   0.87583   0.00000  Uiso   1.00
C991   C     0.83337   0.95726   0.83335   0.00000  Uiso   1.00
C992   C     0.83329   0.70941   0.83332   0.00000  Uiso   1.00
C993   C     0.80012   0.80872   0.68724   0.00000  Uiso   1.00
C994   C     0.86655   0.85794   0.97942   0.00000  Uiso   1.00
C995   C     0.80013   0.80873   0.97098   0.00000  Uiso   1.00
C996   C     0.86654   0.85793   0.69569   0.00000  Uiso   1.00
C997   C     0.83337   0.91264   0.83335   0.00000  Uiso   1.00
C998   C     0.73458   0.83332   0.82124   0.00000  Uiso   1.00
C999   C     0.93208   0.83334   0.84543   0.00000  Uiso   1.00
C1000  C     0.67931   0.83335   0.81458   0.00000  Uiso   1.00
C1001  C     0.98736   0.83331   0.85208   0.00000  Uiso   1.00
C1002  C     0.83355   0.68794   0.79083   0.00000  Uiso   1.00
C1003  C     0.83312   0.97873   0.87584   0.00000  Uiso   1.00
C1004  C     0.83360   0.97871   0.79084   0.00000  Uiso   1.00
Cu1005 Cu    0.83333   0.83334   0.88022   0.00000  Uiso   1.00
Cu1006 Cu    0.83333   0.83333   0.78645   0.00000  Uiso   1.00
H1007  H     0.83372   0.70393   0.75759   0.00000  Uiso   1.00
H1008  H     0.89310   0.87768   0.71774   0.00000  Uiso   1.00
H1009  H     0.83295   0.96273   0.90908   0.00000  Uiso   1.00
H1010  H     0.77356   0.78895   0.70255   0.00000  Uiso   1.00
H1011  H     0.89310   0.87771   0.96412   0.00000  Uiso   1.00
H1012  H     0.99266   0.83342   0.77860   0.00000  Uiso   1.00
H1013  H     0.67400   0.83325   0.88806   0.00000  Uiso   1.00
H1014  H     0.83382   0.96269   0.75762   0.00000  Uiso   1.00
H1015  H     0.83284   0.70398   0.90905   0.00000  Uiso   1.00
H1016  H     0.77357   0.78898   0.94893   0.00000  Uiso   1.00
N1017  N     0.83335   0.83334   0.95069   0.00000  Uiso   1.00
N1018  N     0.83332   0.83332   0.71597   0.00000  Uiso   1.00
O1019  O     0.83333   0.77322   0.87291   0.00000  Uiso   1.00
O1020  O     0.83334   0.89345   0.79375   0.00000  Uiso   1.00
O1021  O     0.83333   0.77321   0.79372   0.00000  Uiso   1.00
O1022  O     0.83334   0.89346   0.87294   0.00000  Uiso   1.00
O1023  O     0.75828   0.83334   0.86379   0.00000  Uiso   1.00
O1024  O     0.90839   0.83333   0.80288   0.00000  Uiso   1.00
O1025  O     0.75828   0.83333   0.78460   0.00000  Uiso   1.00
O1026  O     0.90839   0.83334   0.88207   0.00000  Uiso   1.00
loop_
_geom_bond_atom_site_label_1
_geom_bond_atom_site_label_2
_geom_bond_distance
_geom_bond_site_symmetry_2
_ccdc_geom_bond_type
C1     C4      1.450   .     S
C1     O33     1.292   .     A
C1     O31     1.292   .     A
C2     C4      1.401   .     A
C2     H27     1.083   .     S
C2     C243    1.384   1_545 S
C3     C9      1.450   .     S
C3     C15     1.401   .     A
C3     C16     1.401   .     A
C4     C14     1.401   .     A
C5     H22     1.082   .     S
C5     N30     1.367   .     A
C5     C691    1.417   1_554 S
C6     H23     1.082   .     S
C6     N29     1.367   .     A
C6     C350    1.417   .     S
C7     N29     1.367   .     A
C7     H28     1.082   .     S
C7     C347    1.417   .     S
C8     N30     1.367   .     A
C8     H20     1.082   .     S
C8     C690    1.417   1_554 S
C9     O34     1.292   .     A
C9     O32     1.292   .     A
C10    C12     1.435   .     S
C10    O37     1.289   .     A
C10    O35     1.287   .     A
C11    O38     1.289   .     A
C11    C13     1.435   .     S
C11    O36     1.287   .     A
C12    C89     1.335   1_455 S
C12    H100    1.087   1_455 S
C13    C50     1.335   .     S
C13    H63     1.087   .     S
C14    H19     1.083   .     S
C14    C244    1.384   1_545 S
C15    H21     1.083   .     S
C15    C116    1.384   .     S
C16    H26     1.083   .     S
C16    C128    1.384   .     S
Cu17   N29     2.014   .     S
Cu17   Cu18    2.679   .     S
Cu17   O38     1.960   .     S
Cu17   O31     1.965   .     S
Cu17   O34     1.965   .     S
Cu17   O35     1.958   .     S
Cu18   N30     2.014   .     S
Cu18   O37     1.960   .     S
Cu18   O32     1.965   .     S
Cu18   O33     1.965   .     S
Cu18   O36     1.958   .     S
H24    C50     1.087   .     S
H25    C89     1.087   1_455 S
C39    C42     1.450   .     S
C39    O71     1.292   .     A
C39    O69     1.292   .     A
C40    C42     1.401   .     A
C40    H65     1.083   .     S
C40    C281    1.384   1_545 S
C41    C47     1.450   .     S
C41    C53     1.401   .     A
C41    C54     1.401   .     A
C42    C52     1.401   .     A
C43    H60     1.082   .     S
C43    N68     1.367   .     A
C43    C729    1.417   1_554 S
C44    H61     1.082   .     S
C44    N67     1.367   .     A
C44    C388    1.417   .     S
C45    N67     1.367   .     A
C45    H66     1.082   .     S
C45    C385    1.417   .     S
C46    N68     1.367   .     A
C46    H58     1.082   .     S
C46    C728    1.417   1_554 S
C47    O72     1.292   .     A
C47    O70     1.292   .     A
C48    C50     1.435   .     S
C48    O75     1.289   .     A
C48    O73     1.287   .     A
C49    O76     1.289   .     A
C49    C51     1.435   .     S
C49    O74     1.287   .     A
C51    C88     1.335   .     S
C51    H101    1.087   .     S
C52    H57     1.083   .     S
C52    C282    1.384   1_545 S
C53    H59     1.083   .     S
C53    C154    1.384   .     S
C54    H64     1.083   .     S
C54    C166    1.384   .     S
Cu55   N67     2.014   .     S
Cu55   Cu56    2.679   .     S
Cu55   O76     1.960   .     S
Cu55   O69     1.965   .     S
Cu55   O72     1.965   .     S
Cu55   O73     1.958   .     S
Cu56   N68     2.014   .     S
Cu56   O75     1.960   .     S
Cu56   O70     1.965   .     S
Cu56   O71     1.965   .     S
Cu56   O74     1.958   .     S
H62    C88     1.087   .     S
C77    C80     1.450   .     S
C77    O109    1.292   .     A
C77    O107    1.292   .     A
C78    C80     1.401   .     A
C78    H103    1.083   .     S
C78    C319    1.384   1_545 S
C79    C85     1.450   .     S
C79    C91     1.401   .     A
C79    C92     1.401   .     A
C80    C90     1.401   .     A
C81    H98     1.082   .     S
C81    N106    1.367   .     A
C81    C767    1.417   1_554 S
C82    H99     1.082   .     S
C82    N105    1.367   .     A
C82    C426    1.417   .     S
C83    N105    1.367   .     A
C83    H104    1.082   .     S
C83    C423    1.417   .     S
C84    N106    1.367   .     A
C84    H96     1.082   .     S
C84    C766    1.417   1_554 S
C85    O110    1.292   .     A
C85    O108    1.292   .     A
C86    C88     1.435   .     S
C86    O113    1.289   .     A
C86    O111    1.287   .     A
C87    O114    1.289   .     A
C87    C89     1.435   .     S
C87    O112    1.287   .     A
C89    C12     1.335   1_655 S
C89    H25     1.087   1_655 S
C90    H95     1.083   .     S
C90    C320    1.384   1_545 S
C91    H97     1.083   .     S
C91    C192    1.384   .     S
C92    H102    1.083   .     S
C92    C204    1.384   .     S
Cu93   N105    2.014   .     S
Cu93   Cu94    2.679   .     S
Cu93   O114    1.960   .     S
Cu93   O107    1.965   .     S
Cu93   O110    1.965   .     S
Cu93   O111    1.958   .     S
Cu94   N106    2.014   .     S
Cu94   O113    1.960   .     S
Cu94   O108    1.965   .     S
Cu94   O109    1.965   .     S
Cu94   O112    1.958   .     S
H100   C12     1.087   1_655 S
C115   C118    1.450   .     S
C115   O147    1.292   .     A
C115   O145    1.292   .     A
C116   C118    1.401   .     A
C116   H141    1.083   .     S
C117   C123    1.450   .     S
C117   C129    1.401   .     A
C117   C130    1.401   .     A
C118   C128    1.401   .     A
C119   H136    1.082   .     S
C119   N144    1.367   .     A
C119   C805    1.417   1_554 S
C120   H137    1.082   .     S
C120   N143    1.367   .     A
C120   C464    1.417   .     S
C121   N143    1.367   .     A
C121   H142    1.082   .     S
C121   C461    1.417   .     S
C122   N144    1.367   .     A
C122   H134    1.082   .     S
C122   C804    1.417   1_554 S
C123   O148    1.292   .     A
C123   O146    1.292   .     A
C124   C126    1.435   .     S
C124   O151    1.289   .     A
C124   O149    1.287   .     A
C125   O152    1.289   .     A
C125   C127    1.435   .     S
C125   O150    1.287   .     A
C126   C203    1.335   1_455 S
C126   H214    1.087   1_455 S
C127   C164    1.335   .     S
C127   H177    1.087   .     S
C128   H133    1.083   .     S
C129   H135    1.083   .     S
C129   C230    1.384   .     S
C130   H140    1.083   .     S
C130   C242    1.384   .     S
Cu131  N143    2.014   .     S
Cu131  Cu132   2.679   .     S
Cu131  O152    1.960   .     S
Cu131  O145    1.965   .     S
Cu131  O148    1.965   .     S
Cu131  O149    1.958   .     S
Cu132  N144    2.014   .     S
Cu132  O151    1.960   .     S
Cu132  O146    1.965   .     S
Cu132  O147    1.965   .     S
Cu132  O150    1.958   .     S
H138   C164    1.087   .     S
H139   C203    1.087   1_455 S
C153   C156    1.450   .     S
C153   O185    1.292   .     A
C153   O183    1.292   .     A
C154   C156    1.401   .     A
C154   H179    1.083   .     S
C155   C161    1.450   .     S
C155   C167    1.401   .     A
C155   C168    1.401   .     A
C156   C166    1.401   .     A
C157   H174    1.082   .     S
C157   N182    1.367   .     A
C157   C843    1.417   1_554 S
C158   H175    1.082   .     S
C158   N181    1.367   .     A
C158   C502    1.417   .     S
C159   N181    1.367   .     A
C159   H180    1.082   .     S
C159   C499    1.417   .     S
C160   N182    1.367   .     A
C160   H172    1.082   .     S
C160   C842    1.417   1_554 S
C161   O186    1.292   .     A
C161   O184    1.292   .     A
C162   C164    1.435   .     S
C162   O189    1.289   .     A
C162   O187    1.287   .     A
C163   O190    1.289   .     A
C163   C165    1.435   .     S
C163   O188    1.287   .     A
C165   C202    1.335   .     S
C165   H215    1.087   .     S
C166   H171    1.083   .     S
C167   H173    1.083   .     S
C167   C268    1.384   .     S
C168   H178    1.083   .     S
C168   C280    1.384   .     S
Cu169  N181    2.014   .     S
Cu169  Cu170   2.679   .     S
Cu169  O190    1.960   .     S
Cu169  O183    1.965   .     S
Cu169  O186    1.965   .     S
Cu169  O187    1.958   .     S
Cu170  N182    2.014   .     S
Cu170  O189    1.960   .     S
Cu170  O184    1.965   .     S
Cu170  O185    1.965   .     S
Cu170  O188    1.958   .     S
H176   C202    1.087   .     S
C191   C194    1.450   .     S
C191   O223    1.292   .     A
C191   O221    1.292   .     A
C192   C194    1.401   .     A
C192   H217    1.083   .     S
C193   C199    1.450   .     S
C193   C205    1.401   .     A
C193   C206    1.401   .     A
C194   C204    1.401   .     A
C195   H212    1.082   .     S
C195   N220    1.367   .     A
C195   C881    1.417   1_554 S
C196   H213    1.082   .     S
C196   N219    1.367   .     A
C196   C540    1.417   .     S
C197   N219    1.367   .     A
C197   H218    1.082   .     S
C197   C537    1.417   .     S
C198   N220    1.367   .     A
C198   H210    1.082   .     S
C198   C880    1.417   1_554 S
C199   O224    1.292   .     A
C199   O222    1.292   .     A
C200   C202    1.435   .     S
C200   O227    1.289   .     A
C200   O225    1.287   .     A
C201   O228    1.289   .     A
C201   C203    1.435   .     S
C201   O226    1.287   .     A
C203   C126    1.335   1_655 S
C203   H139    1.087   1_655 S
C204   H209    1.083   .     S
C205   H211    1.083   .     S
C205   C306    1.384   .     S
C206   H216    1.083   .     S
C206   C318    1.384   .     S
Cu207  N219    2.014   .     S
Cu207  Cu208   2.679   .     S
Cu207  O228    1.960   .     S
Cu207  O221    1.965   .     S
Cu207  O224    1.965   .     S
Cu207  O225    1.958   .     S
Cu208  N220    2.014   .     S
Cu208  O227    1.960   .     S
Cu208  O222    1.965   .     S
Cu208  O223    1.965   .     S
Cu208  O226    1.958   .     S
H214   C126    1.087   1_655 S
C229   C232    1.450   .     S
C229   O261    1.292   .     A
C229   O259    1.292   .     A
C230   C232    1.401   .     A
C230   H255    1.083   .     S
C231   C237    1.450   .     S
C231   C243    1.401   .     A
C231   C244    1.401   .     A
C232   C242    1.401   .     A
C233   H250    1.082   .     S
C233   N258    1.367   .     A
C233   C919    1.417   1_554 S
C234   H251    1.082   .     S
C234   N257    1.367   .     A
C234   C578    1.417   .     S
C235   N257    1.367   .     A
C235   H256    1.082   .     S
C235   C575    1.417   .     S
C236   N258    1.367   .     A
C236   H248    1.082   .     S
C236   C918    1.417   1_554 S
C237   O262    1.292   .     A
C237   O260    1.292   .     A
C238   C240    1.435   .     S
C238   O265    1.289   .     A
C238   O263    1.287   .     A
C239   O266    1.289   .     A
C239   C241    1.435   .     S
C239   O264    1.287   .     A
C240   C317    1.335   1_455 S
C240   H328    1.087   1_455 S
C241   C278    1.335   .     S
C241   H291    1.087   .     S
C242   H247    1.083   .     S
C243   H249    1.083   .     S
C243   C2      1.384   1_565 S
C244   H254    1.083   .     S
C244   C14     1.384   1_565 S
Cu245  N257    2.014   .     S
Cu245  Cu246   2.679   .     S
Cu245  O266    1.960   .     S
Cu245  O259    1.965   .     S
Cu245  O262    1.965   .     S
Cu245  O263    1.958   .     S
Cu246  N258    2.014   .     S
Cu246  O265    1.960   .     S
Cu246  O260    1.965   .     S
Cu246  O261    1.965   .     S
Cu246  O264    1.958   .     S
H252   C278    1.087   .     S
H253   C317    1.087   1_455 S
C267   C270    1.450   .     S
C267   O299    1.292   .     A
C267   O297    1.292   .     A
C268   C270    1.401   .     A
C268   H293    1.083   .     S
C269   C275    1.450   .     S
C269   C281    1.401   .     A
C269   C282    1.401   .     A
C270   C280    1.401   .     A
C271   H288    1.082   .     S
C271   N296    1.367   .     A
C271   C957    1.417   1_554 S
C272   H289    1.082   .     S
C272   N295    1.367   .     A
C272   C616    1.417   .     S
C273   N295    1.367   .     A
C273   H294    1.082   .     S
C273   C613    1.417   .     S
C274   N296    1.367   .     A
C274   H286    1.082   .     S
C274   C956    1.417   1_554 S
C275   O300    1.292   .     A
C275   O298    1.292   .     A
C276   C278    1.435   .     S
C276   O303    1.289   .     A
C276   O301    1.287   .     A
C277   O304    1.289   .     A
C277   C279    1.435   .     S
C277   O302    1.287   .     A
C279   C316    1.335   .     S
C279   H329    1.087   .     S
C280   H285    1.083   .     S
C281   H287    1.083   .     S
C281   C40     1.384   1_565 S
C282   H292    1.083   .     S
C282   C52     1.384   1_565 S
Cu283  N295    2.014   .     S
Cu283  Cu284   2.679   .     S
Cu283  O304    1.960   .     S
Cu283  O297    1.965   .     S
Cu283  O300    1.965   .     S
Cu283  O301    1.958   .     S
Cu284  N296    2.014   .     S
Cu284  O303    1.960   .     S
Cu284  O298    1.965   .     S
Cu284  O299    1.965   .     S
Cu284  O302    1.958   .     S
H290   C316    1.087   .     S
C305   C308    1.450   .     S
C305   O337    1.292   .     A
C305   O335    1.292   .     A
C306   C308    1.401   .     A
C306   H331    1.083   .     S
C307   C313    1.450   .     S
C307   C319    1.401   .     A
C307   C320    1.401   .     A
C308   C318    1.401   .     A
C309   H326    1.082   .     S
C309   N334    1.367   .     A
C309   C995    1.417   1_554 S
C310   H327    1.082   .     S
C310   N333    1.367   .     A
C310   C654    1.417   .     S
C311   N333    1.367   .     A
C311   H332    1.082   .     S
C311   C651    1.417   .     S
C312   N334    1.367   .     A
C312   H324    1.082   .     S
C312   C994    1.417   1_554 S
C313   O338    1.292   .     A
C313   O336    1.292   .     A
C314   C316    1.435   .     S
C314   O341    1.289   .     A
C314   O339    1.287   .     A
C315   O342    1.289   .     A
C315   C317    1.435   .     S
C315   O340    1.287   .     A
C317   C240    1.335   1_655 S
C317   H253    1.087   1_655 S
C318   H323    1.083   .     S
C319   H325    1.083   .     S
C319   C78     1.384   1_565 S
C320   H330    1.083   .     S
C320   C90     1.384   1_565 S
Cu321  N333    2.014   .     S
Cu321  Cu322   2.679   .     S
Cu321  O342    1.960   .     S
Cu321  O335    1.965   .     S
Cu321  O338    1.965   .     S
Cu321  O339    1.958   .     S
Cu322  N334    2.014   .     S
Cu322  O341    1.960   .     S
Cu322  O336    1.965   .     S
Cu322  O337    1.965   .     S
Cu322  O340    1.958   .     S
H328   C240    1.087   1_655 S
C343   C346    1.450   .     S
C343   O375    1.292   .     A
C343   O373    1.292   .     A
C344   C346    1.401   .     A
C344   H369    1.083   .     S
C344   C585    1.384   1_545 S
C345   C351    1.450   .     S
C345   C357    1.401   .     A
C345   C358    1.401   .     A
C346   C356    1.401   .     A
C347   H364    1.082   .     S
C347   N372    1.367   .     A
C348   H365    1.082   .     S
C348   N371    1.367   .     A
C348   C692    1.417   .     S
C349   N371    1.367   .     A
C349   H370    1.082   .     S
C349   C689    1.417   .     S
C350   N372    1.367   .     A
C350   H362    1.082   .     S
C351   O376    1.292   .     A
C351   O374    1.292   .     A
C352   C354    1.435   .     S
C352   O379    1.289   .     A
C352   O377    1.287   .     A
C353   O380    1.289   .     A
C353   C355    1.435   .     S
C353   O378    1.287   .     A
C354   C431    1.335   1_455 S
C354   H442    1.087   1_455 S
C355   C392    1.335   .     S
C355   H405    1.087   .     S
C356   H361    1.083   .     S
C356   C586    1.384   1_545 S
C357   H363    1.083   .     S
C357   C458    1.384   .     S
C358   H368    1.083   .     S
C358   C470    1.384   .     S
Cu359  N371    2.014   .     S
Cu359  Cu360   2.679   .     S
Cu359  O380    1.960   .     S
Cu359  O373    1.965   .     S
Cu359  O376    1.965   .     S
Cu359  O377    1.958   .     S
Cu360  N372    2.014   .     S
Cu360  O379    1.960   .     S
Cu360  O374    1.965   .     S
Cu360  O375    1.965   .     S
Cu360  O378    1.958   .     S
H366   C392    1.087   .     S
H367   C431    1.087   1_455 S
C381   C384    1.450   .     S
C381   O413    1.292   .     A
C381   O411    1.292   .     A
C382   C384    1.401   .     A
C382   H407    1.083   .     S
C382   C623    1.384   1_545 S
C383   C389    1.450   .     S
C383   C395    1.401   .     A
C383   C396    1.401   .     A
C384   C394    1.401   .     A
C385   H402    1.082   .     S
C385   N410    1.367   .     A
C386   H403    1.082   .     S
C386   N409    1.367   .     A
C386   C730    1.417   .     S
C387   N409    1.367   .     A
C387   H408    1.082   .     S
C387   C727    1.417   .     S
C388   N410    1.367   .     A
C388   H400    1.082   .     S
C389   O414    1.292   .     A
C389   O412    1.292   .     A
C390   C392    1.435   .     S
C390   O417    1.289   .     A
C390   O415    1.287   .     A
C391   O418    1.289   .     A
C391   C393    1.435   .     S
C391   O416    1.287   .     A
C393   C430    1.335   .     S
C393   H443    1.087   .     S
C394   H399    1.083   .     S
C394   C624    1.384   1_545 S
C395   H401    1.083   .     S
C395   C496    1.384   .     S
C396   H406    1.083   .     S
C396   C508    1.384   .     S
Cu397  N409    2.014   .     S
Cu397  Cu398   2.679   .     S
Cu397  O418    1.960   .     S
Cu397  O411    1.965   .     S
Cu397  O414    1.965   .     S
Cu397  O415    1.958   .     S
Cu398  N410    2.014   .     S
Cu398  O417    1.960   .     S
Cu398  O412    1.965   .     S
Cu398  O413    1.965   .     S
Cu398  O416    1.958   .     S
H404   C430    1.087   .     S
C419   C422    1.450   .     S
C419   O451    1.292   .     A
C419   O449    1.292   .     A
C420   C422    1.401   .     A
C420   H445    1.083   .     S
C420   C661    1.384   1_545 S
C421   C427    1.450   .     S
C421   C433    1.401   .     A
C421   C434    1.401   .     A
C422   C432    1.401   .     A
C423   H440    1.082   .     S
C423   N448    1.367   .     A
C424   H441    1.082   .     S
C424   N447    1.367   .     A
C424   C768    1.417   .     S
C425   N447    1.367   .     A
C425   H446    1.082   .     S
C425   C765    1.417   .     S
C426   N448    1.367   .     A
C426   H438    1.082   .     S
C427   O452    1.292   .     A
C427   O450    1.292   .     A
C428   C430    1.435   .     S
C428   O455    1.289   .     A
C428   O453    1.287   .     A
C429   O456    1.289   .     A
C429   C431    1.435   .     S
C429   O454    1.287   .     A
C431   C354    1.335   1_655 S
C431   H367    1.087   1_655 S
C432   H437    1.083   .     S
C432   C662    1.384   1_545 S
C433   H439    1.083   .     S
C433   C534    1.384   .     S
C434   H444    1.083   .     S
C434   C546    1.384   .     S
Cu435  N447    2.014   .     S
Cu435  Cu436   2.679   .     S
Cu435  O456    1.960   .     S
Cu435  O449    1.965   .     S
Cu435  O452    1.965   .     S
Cu435  O453    1.958   .     S
Cu436  N448    2.014   .     S
Cu436  O455    1.960   .     S
Cu436  O450    1.965   .     S
Cu436  O451    1.965   .     S
Cu436  O454    1.958   .     S
H442   C354    1.087   1_655 S
C457   C460    1.450   .     S
C457   O489    1.292   .     A
C457   O487    1.292   .     A
C458   C460    1.401   .     A
C458   H483    1.083   .     S
C459   C465    1.450   .     S
C459   C471    1.401   .     A
C459   C472    1.401   .     A
C460   C470    1.401   .     A
C461   H478    1.082   .     S
C461   N486    1.367   .     A
C462   H479    1.082   .     S
C462   N485    1.367   .     A
C462   C806    1.417   .     S
C463   N485    1.367   .     A
C463   H484    1.082   .     S
C463   C803    1.417   .     S
C464   N486    1.367   .     A
C464   H476    1.082   .     S
C465   O490    1.292   .     A
C465   O488    1.292   .     A
C466   C468    1.435   .     S
C466   O493    1.289   .     A
C466   O491    1.287   .     A
C467   O494    1.289   .     A
C467   C469    1.435   .     S
C467   O492    1.287   .     A
C468   C545    1.335   1_455 S
C468   H556    1.087   1_455 S
C469   C506    1.335   .     S
C469   H519    1.087   .     S
C470   H475    1.083   .     S
C471   H477    1.083   .     S
C471   C572    1.384   .     S
C472   H482    1.083   .     S
C472   C584    1.384   .     S
Cu473  N485    2.014   .     S
Cu473  Cu474   2.679   .     S
Cu473  O494    1.960   .     S
Cu473  O487    1.965   .     S
Cu473  O490    1.965   .     S
Cu473  O491    1.958   .     S
Cu474  N486    2.014   .     S
Cu474  O493    1.960   .     S
Cu474  O488    1.965   .     S
Cu474  O489    1.965   .     S
Cu474  O492    1.958   .     S
H480   C506    1.087   .     S
H481   C545    1.087   1_455 S
C495   C498    1.450   .     S
C495   O527    1.292   .     A
C495   O525    1.292   .     A
C496   C498    1.401   .     A
C496   H521    1.083   .     S
C497   C503    1.450   .     S
C497   C509    1.401   .     A
C497   C510    1.401   .     A
C498   C508    1.401   .     A
C499   H516    1.082   .     S
C499   N524    1.367   .     A
C500   H517    1.082   .     S
C500   N523    1.367   .     A
C500   C844    1.417   .     S
C501   N523    1.367   .     A
C501   H522    1.082   .     S
C501   C841    1.417   .     S
C502   N524    1.367   .     A
C502   H514    1.082   .     S
C503   O528    1.292   .     A
C503   O526    1.292   .     A
C504   C506    1.435   .     S
C504   O531    1.289   .     A
C504   O529    1.287   .     A
C505   O532    1.289   .     A
C505   C507    1.435   .     S
C505   O530    1.287   .     A
C507   C544    1.335   .     S
C507   H557    1.087   .     S
C508   H513    1.083   .     S
C509   H515    1.083   .     S
C509   C610    1.384   .     S
C510   H520    1.083   .     S
C510   C622    1.384   .     S
Cu511  N523    2.014   .     S
Cu511  Cu512   2.679   .     S
Cu511  O532    1.960   .     S
Cu511  O525    1.965   .     S
Cu511  O528    1.965   .     S
Cu511  O529    1.958   .     S
Cu512  N524    2.014   .     S
Cu512  O531    1.960   .     S
Cu512  O526    1.965   .     S
Cu512  O527    1.965   .     S
Cu512  O530    1.958   .     S
H518   C544    1.087   .     S
C533   C536    1.450   .     S
C533   O565    1.292   .     A
C533   O563    1.292   .     A
C534   C536    1.401   .     A
C534   H559    1.083   .     S
C535   C541    1.450   .     S
C535   C547    1.401   .     A
C535   C548    1.401   .     A
C536   C546    1.401   .     A
C537   H554    1.082   .     S
C537   N562    1.367   .     A
C538   H555    1.082   .     S
C538   N561    1.367   .     A
C538   C882    1.417   .     S
C539   N561    1.367   .     A
C539   H560    1.082   .     S
C539   C879    1.417   .     S
C540   N562    1.367   .     A
C540   H552    1.082   .     S
C541   O566    1.292   .     A
C541   O564    1.292   .     A
C542   C544    1.435   .     S
C542   O569    1.289   .     A
C542   O567    1.287   .     A
C543   O570    1.289   .     A
C543   C545    1.435   .     S
C543   O568    1.287   .     A
C545   C468    1.335   1_655 S
C545   H481    1.087   1_655 S
C546   H551    1.083   .     S
C547   H553    1.083   .     S
C547   C648    1.384   .     S
C548   H558    1.083   .     S
C548   C660    1.384   .     S
Cu549  N561    2.014   .     S
Cu549  Cu550   2.679   .     S
Cu549  O570    1.960   .     S
Cu549  O563    1.965   .     S
Cu549  O566    1.965   .     S
Cu549  O567    1.958   .     S
Cu550  N562    2.014   .     S
Cu550  O569    1.960   .     S
Cu550  O564    1.965   .     S
Cu550  O565    1.965   .     S
Cu550  O568    1.958   .     S
H556   C468    1.087   1_655 S
C571   C574    1.450   .     S
C571   O603    1.292   .     A
C571   O601    1.292   .     A
C572   C574    1.401   .     A
C572   H597    1.083   .     S
C573   C579    1.450   .     S
C573   C585    1.401   .     A
C573   C586    1.401   .     A
C574   C584    1.401   .     A
C575   H592    1.082   .     S
C575   N600    1.367   .     A
C576   H593    1.082   .     S
C576   N599    1.367   .     A
C576   C920    1.417   .     S
C577   N599    1.367   .     A
C577   H598    1.082   .     S
C577   C917    1.417   .     S
C578   N600    1.367   .     A
C578   H590    1.082   .     S
C579   O604    1.292   .     A
C579   O602    1.292   .     A
C580   C582    1.435   .     S
C580   O607    1.289   .     A
C580   O605    1.287   .     A
C581   O608    1.289   .     A
C581   C583    1.435   .     S
C581   O606    1.287   .     A
C582   C659    1.335   1_455 S
C582   H670    1.087   1_455 S
C583   C620    1.335   .     S
C583   H633    1.087   .     S
C584   H589    1.083   .     S
C585   H591    1.083   .     S
C585   C344    1.384   1_565 S
C586   H596    1.083   .     S
C586   C356    1.384   1_565 S
Cu587  N599    2.014   .     S
Cu587  Cu588   2.679   .     S
Cu587  O608    1.960   .     S
Cu587  O601    1.965   .     S
Cu587  O604    1.965   .     S
Cu587  O605    1.958   .     S
Cu588  N600    2.014   .     S
Cu588  O607    1.960   .     S
Cu588  O602    1.965   .     S
Cu588  O603    1.965   .     S
Cu588  O606    1.958   .     S
H594   C620    1.087   .     S
H595   C659    1.087   1_455 S
C609   C612    1.450   .     S
C609   O641    1.292   .     A
C609   O639    1.292   .     A
C610   C612    1.401   .     A
C610   H635    1.083   .     S
C611   C617    1.450   .     S
C611   C623    1.401   .     A
C611   C624    1.401   .     A
C612   C622    1.401   .     A
C613   H630    1.082   .     S
C613   N638    1.367   .     A
C614   H631    1.082   .     S
C614   N637    1.367   .     A
C614   C958    1.417   .     S
C615   N637    1.367   .     A
C615   H636    1.082   .     S
C615   C955    1.417   .     S
C616   N638    1.367   .     A
C616   H628    1.082   .     S
C617   O642    1.292   .     A
C617   O640    1.292   .     A
C618   C620    1.435   .     S
C618   O645    1.289   .     A
C618   O643    1.287   .     A
C619   O646    1.289   .     A
C619   C621    1.435   .     S
C619   O644    1.287   .     A
C621   C658    1.335   .     S
C621   H671    1.087   .     S
C622   H627    1.083   .     S
C623   H629    1.083   .     S
C623   C382    1.384   1_565 S
C624   H634    1.083   .     S
C624   C394    1.384   1_565 S
Cu625  N637    2.014   .     S
Cu625  Cu626   2.679   .     S
Cu625  O646    1.960   .     S
Cu625  O639    1.965   .     S
Cu625  O642    1.965   .     S
Cu625  O643    1.958   .     S
Cu626  N638    2.014   .     S
Cu626  O645    1.960   .     S
Cu626  O640    1.965   .     S
Cu626  O641    1.965   .     S
Cu626  O644    1.958   .     S
H632   C658    1.087   .     S
C647   C650    1.450   .     S
C647   O679    1.292   .     A
C647   O677    1.292   .     A
C648   C650    1.401   .     A
C648   H673    1.083   .     S
C649   C655    1.450   .     S
C649   C661    1.401   .     A
C649   C662    1.401   .     A
C650   C660    1.401   .     A
C651   H668    1.082   .     S
C651   N676    1.367   .     A
C652   H669    1.082   .     S
C652   N675    1.367   .     A
C652   C996    1.417   .     S
C653   N675    1.367   .     A
C653   H674    1.082   .     S
C653   C993    1.417   .     S
C654   N676    1.367   .     A
C654   H666    1.082   .     S
C655   O680    1.292   .     A
C655   O678    1.292   .     A
C656   C658    1.435   .     S
C656   O683    1.289   .     A
C656   O681    1.287   .     A
C657   O684    1.289   .     A
C657   C659    1.435   .     S
C657   O682    1.287   .     A
C659   C582    1.335   1_655 S
C659   H595    1.087   1_655 S
C660   H665    1.083   .     S
C661   H667    1.083   .     S
C661   C420    1.384   1_565 S
C662   H672    1.083   .     S
C662   C432    1.384   1_565 S
Cu663  N675    2.014   .     S
Cu663  Cu664   2.679   .     S
Cu663  O684    1.960   .     S
Cu663  O677    1.965   .     S
Cu663  O680    1.965   .     S
Cu663  O681    1.958   .     S
Cu664  N676    2.014   .     S
Cu664  O683    1.960   .     S
Cu664  O678    1.965   .     S
Cu664  O679    1.965   .     S
Cu664  O682    1.958   .     S
H670   C582    1.087   1_655 S
C685   C688    1.450   .     S
C685   O717    1.292   .     A
C685   O715    1.292   .     A
C686   C688    1.401   .     A
C686   H711    1.083   .     S
C686   C927    1.384   1_545 S
C687   C693    1.450   .     S
C687   C699    1.401   .     A
C687   C700    1.401   .     A
C688   C698    1.401   .     A
C689   H706    1.082   .     S
C689   N714    1.367   .     A
C690   H707    1.082   .     S
C690   N713    1.367   .     A
C690   C8      1.417   1_556 S
C691   N713    1.367   .     A
C691   H712    1.082   .     S
C691   C5      1.417   1_556 S
C692   N714    1.367   .     A
C692   H704    1.082   .     S
C693   O718    1.292   .     A
C693   O716    1.292   .     A
C694   C696    1.435   .     S
C694   O721    1.289   .     A
C694   O719    1.287   .     A
C695   O722    1.289   .     A
C695   C697    1.435   .     S
C695   O720    1.287   .     A
C696   C773    1.335   1_455 S
C696   H784    1.087   1_455 S
C697   C734    1.335   .     S
C697   H747    1.087   .     S
C698   H703    1.083   .     S
C698   C928    1.384   1_545 S
C699   H705    1.083   .     S
C699   C800    1.384   .     S
C700   H710    1.083   .     S
C700   C812    1.384   .     S
Cu701  N713    2.014   .     S
Cu701  Cu702   2.679   .     S
Cu701  O722    1.960   .     S
Cu701  O715    1.965   .     S
Cu701  O718    1.965   .     S
Cu701  O719    1.958   .     S
Cu702  N714    2.014   .     S
Cu702  O721    1.960   .     S
Cu702  O716    1.965   .     S
Cu702  O717    1.965   .     S
Cu702  O720    1.958   .     S
H708   C734    1.087   .     S
H709   C773    1.087   1_455 S
C723   C726    1.450   .     S
C723   O755    1.292   .     A
C723   O753    1.292   .     A
C724   C726    1.401   .     A
C724   H749    1.083   .     S
C724   C965    1.384   1_545 S
C725   C731    1.450   .     S
C725   C737    1.401   .     A
C725   C738    1.401   .     A
C726   C736    1.401   .     A
C727   H744    1.082   .     S
C727   N752    1.367   .     A
C728   H745    1.082   .     S
C728   N751    1.367   .     A
C728   C46     1.417   1_556 S
C729   N751    1.367   .     A
C729   H750    1.082   .     S
C729   C43     1.417   1_556 S
C730   N752    1.367   .     A
C730   H742    1.082   .     S
C731   O756    1.292   .     A
C731   O754    1.292   .     A
C732   C734    1.435   .     S
C732   O759    1.289   .     A
C732   O757    1.287   .     A
C733   O760    1.289   .     A
C733   C735    1.435   .     S
C733   O758    1.287   .     A
C735   C772    1.335   .     S
C735   H785    1.087   .     S
C736   H741    1.083   .     S
C736   C966    1.384   1_545 S
C737   H743    1.083   .     S
C737   C838    1.384   .     S
C738   H748    1.083   .     S
C738   C850    1.384   .     S
Cu739  N751    2.014   .     S
Cu739  Cu740   2.679   .     S
Cu739  O760    1.960   .     S
Cu739  O753    1.965   .     S
Cu739  O756    1.965   .     S
Cu739  O757    1.958   .     S
Cu740  N752    2.014   .     S
Cu740  O759    1.960   .     S
Cu740  O754    1.965   .     S
Cu740  O755    1.965   .     S
Cu740  O758    1.958   .     S
H746   C772    1.087   .     S
C761   C764    1.450   .     S
C761   O793    1.292   .     A
C761   O791    1.292   .     A
C762   C764    1.401   .     A
C762   H787    1.083   .     S
C762   C1003   1.384   1_545 S
C763   C769    1.450   .     S
C763   C775    1.401   .     A
C763   C776    1.401   .     A
C764   C774    1.401   .     A
C765   H782    1.082   .     S
C765   N790    1.367   .     A
C766   H783    1.082   .     S
C766   N789    1.367   .     A
C766   C84     1.417   1_556 S
C767   N789    1.367   .     A
C767   H788    1.082   .     S
C767   C81     1.417   1_556 S
C768   N790    1.367   .     A
C768   H780    1.082   .     S
C769   O794    1.292   .     A
C769   O792    1.292   .     A
C770   C772    1.435   .     S
C770   O797    1.289   .     A
C770   O795    1.287   .     A
C771   O798    1.289   .     A
C771   C773    1.435   .     S
C771   O796    1.287   .     A
C773   C696    1.335   1_655 S
C773   H709    1.087   1_655 S
C774   H779    1.083   .     S
C774   C1004   1.384   1_545 S
C775   H781    1.083   .     S
C775   C876    1.384   .     S
C776   H786    1.083   .     S
C776   C888    1.384   .     S
Cu777  N789    2.014   .     S
Cu777  Cu778   2.679   .     S
Cu777  O798    1.960   .     S
Cu777  O791    1.965   .     S
Cu777  O794    1.965   .     S
Cu777  O795    1.958   .     S
Cu778  N790    2.014   .     S
Cu778  O797    1.960   .     S
Cu778  O792    1.965   .     S
Cu778  O793    1.965   .     S
Cu778  O796    1.958   .     S
H784   C696    1.087   1_655 S
C799   C802    1.450   .     S
C799   O831    1.292   .     A
C799   O829    1.292   .     A
C800   C802    1.401   .     A
C800   H825    1.083   .     S
C801   C807    1.450   .     S
C801   C813    1.401   .     A
C801   C814    1.401   .     A
C802   C812    1.401   .     A
C803   H820    1.082   .     S
C803   N828    1.367   .     A
C804   H821    1.082   .     S
C804   N827    1.367   .     A
C804   C122    1.417   1_556 S
C805   N827    1.367   .     A
C805   H826    1.082   .     S
C805   C119    1.417   1_556 S
C806   N828    1.367   .     A
C806   H818    1.082   .     S
C807   O832    1.292   .     A
C807   O830    1.292   .     A
C808   C810    1.435   .     S
C808   O835    1.289   .     A
C808   O833    1.287   .     A
C809   O836    1.289   .     A
C809   C811    1.435   .     S
C809   O834    1.287   .     A
C810   C887    1.335   1_455 S
C810   H898    1.087   1_455 S
C811   C848    1.335   .     S
C811   H861    1.087   .     S
C812   H817    1.083   .     S
C813   H819    1.083   .     S
C813   C914    1.384   .     S
C814   H824    1.083   .     S
C814   C926    1.384   .     S
Cu815  N827    2.014   .     S
Cu815  Cu816   2.679   .     S
Cu815  O836    1.960   .     S
Cu815  O829    1.965   .     S
Cu815  O832    1.965   .     S
Cu815  O833    1.958   .     S
Cu816  N828    2.014   .     S
Cu816  O835    1.960   .     S
Cu816  O830    1.965   .     S
Cu816  O831    1.965   .     S
Cu816  O834    1.958   .     S
H822   C848    1.087   .     S
H823   C887    1.087   1_455 S
C837   C840    1.450   .     S
C837   O869    1.292   .     A
C837   O867    1.292   .     A
C838   C840    1.401   .     A
C838   H863    1.083   .     S
C839   C845    1.450   .     S
C839   C851    1.401   .     A
C839   C852    1.401   .     A
C840   C850    1.401   .     A
C841   H858    1.082   .     S
C841   N866    1.367   .     A
C842   H859    1.082   .     S
C842   N865    1.367   .     A
C842   C160    1.417   1_556 S
C843   N865    1.367   .     A
C843   H864    1.082   .     S
C843   C157    1.417   1_556 S
C844   N866    1.367   .     A
C844   H856    1.082   .     S
C845   O870    1.292   .     A
C845   O868    1.292   .     A
C846   C848    1.435   .     S
C846   O873    1.289   .     A
C846   O871    1.287   .     A
C847   O874    1.289   .     A
C847   C849    1.435   .     S
C847   O872    1.287   .     A
C849   C886    1.335   .     S
C849   H899    1.087   .     S
C850   H855    1.083   .     S
C851   H857    1.083   .     S
C851   C952    1.384   .     S
C852   H862    1.083   .     S
C852   C964    1.384   .     S
Cu853  N865    2.014   .     S
Cu853  Cu854   2.679   .     S
Cu853  O874    1.960   .     S
Cu853  O867    1.965   .     S
Cu853  O870    1.965   .     S
Cu853  O871    1.958   .     S
Cu854  N866    2.014   .     S
Cu854  O873    1.960   .     S
Cu854  O868    1.965   .     S
Cu854  O869    1.965   .     S
Cu854  O872    1.958   .     S
H860   C886    1.087   .     S
C875   C878    1.450   .     S
C875   O907    1.292   .     A
C875   O905    1.292   .     A
C876   C878    1.401   .     A
C876   H901    1.083   .     S
C877   C883    1.450   .     S
C877   C889    1.401   .     A
C877   C890    1.401   .     A
C878   C888    1.401   .     A
C879   H896    1.082   .     S
C879   N904    1.367   .     A
C880   H897    1.082   .     S
C880   N903    1.367   .     A
C880   C198    1.417   1_556 S
C881   N903    1.367   .     A
C881   H902    1.082   .     S
C881   C195    1.417   1_556 S
C882   N904    1.367   .     A
C882   H894    1.082   .     S
C883   O908    1.292   .     A
C883   O906    1.292   .     A
C884   C886    1.435   .     S
C884   O911    1.289   .     A
C884   O909    1.287   .     A
C885   O912    1.289   .     A
C885   C887    1.435   .     S
C885   O910    1.287   .     A
C887   C810    1.335   1_655 S
C887   H823    1.087   1_655 S
C888   H893    1.083   .     S
C889   H895    1.083   .     S
C889   C990    1.384   .     S
C890   H900    1.083   .     S
C890   C1002   1.384   .     S
Cu891  N903    2.014   .     S
Cu891  Cu892   2.679   .     S
Cu891  O912    1.960   .     S
Cu891  O905    1.965   .     S
Cu891  O908    1.965   .     S
Cu891  O909    1.958   .     S
Cu892  N904    2.014   .     S
Cu892  O911    1.960   .     S
Cu892  O906    1.965   .     S
Cu892  O907    1.965   .     S
Cu892  O910    1.958   .     S
H898   C810    1.087   1_655 S
C913   C916    1.450   .     S
C913   O945    1.292   .     A
C913   O943    1.292   .     A
C914   C916    1.401   .     A
C914   H939    1.083   .     S
C915   C921    1.450   .     S
C915   C927    1.401   .     A
C915   C928    1.401   .     A
C916   C926    1.401   .     A
C917   H934    1.082   .     S
C917   N942    1.367   .     A
C918   H935    1.082   .     S
C918   N941    1.367   .     A
C918   C236    1.417   1_556 S
C919   N941    1.367   .     A
C919   H940    1.082   .     S
C919   C233    1.417   1_556 S
C920   N942    1.367   .     A
C920   H932    1.082   .     S
C921   O946    1.292   .     A
C921   O944    1.292   .     A
C922   C924    1.435   .     S
C922   O949    1.289   .     A
C922   O947    1.287   .     A
C923   O950    1.289   .     A
C923   C925    1.435   .     S
C923   O948    1.287   .     A
C924   C1001   1.335   1_455 S
C924   H1012   1.087   1_455 S
C925   C962    1.335   .     S
C925   H975    1.087   .     S
C926   H931    1.083   .     S
C927   H933    1.083   .     S
C927   C686    1.384   1_565 S
C928   H938    1.083   .     S
C928   C698    1.384   1_565 S
Cu929  N941    2.014   .     S
Cu929  Cu930   2.679   .     S
Cu929  O950    1.960   .     S
Cu929  O943    1.965   .     S
Cu929  O946    1.965   .     S
Cu929  O947    1.958   .     S
Cu930  N942    2.014   .     S
Cu930  O949    1.960   .     S
Cu930  O944    1.965   .     S
Cu930  O945    1.965   .     S
Cu930  O948    1.958   .     S
H936   C962    1.087   .     S
H937   C1001   1.087   1_455 S
C951   C954    1.450   .     S
C951   O983    1.292   .     A
C951   O981    1.292   .     A
C952   C954    1.401   .     A
C952   H977    1.083   .     S
C953   C959    1.450   .     S
C953   C965    1.401   .     A
C953   C966    1.401   .     A
C954   C964    1.401   .     A
C955   H972    1.082   .     S
C955   N980    1.367   .     A
C956   H973    1.082   .     S
C956   N979    1.367   .     A
C956   C274    1.417   1_556 S
C957   N979    1.367   .     A
C957   H978    1.082   .     S
C957   C271    1.417   1_556 S
C958   N980    1.367   .     A
C958   H970    1.082   .     S
C959   O984    1.292   .     A
C959   O982    1.292   .     A
C960   C962    1.435   .     S
C960   O987    1.289   .     A
C960   O985    1.287   .     A
C961   O988    1.289   .     A
C961   C963    1.435   .     S
C961   O986    1.287   .     A
C963   C1000   1.335   .     S
C963   H1013   1.087   .     S
C964   H969    1.083   .     S
C965   H971    1.083   .     S
C965   C724    1.384   1_565 S
C966   H976    1.083   .     S
C966   C736    1.384   1_565 S
Cu967  N979    2.014   .     S
Cu967  Cu968   2.679   .     S
Cu967  O988    1.960   .     S
Cu967  O981    1.965   .     S
Cu967  O984    1.965   .     S
Cu967  O985    1.958   .     S
Cu968  N980    2.014   .     S
Cu968  O987    1.960   .     S
Cu968  O982    1.965   .     S
Cu968  O983    1.965   .     S
Cu968  O986    1.958   .     S
H974   C1000   1.087   .     S
C989   C992    1.450   .     S
C989   O1021   1.292   .     A
C989   O1019   1.292   .     A
C990   C992    1.401   .     A
C990   H1015   1.083   .     S
C991   C997    1.450   .     S
C991   C1003   1.401   .     A
C991   C1004   1.401   .     A
C992   C1002   1.401   .     A
C993   H1010   1.082   .     S
C993   N1018   1.367   .     A
C994   H1011   1.082   .     S
C994   N1017   1.367   .     A
C994   C312    1.417   1_556 S
C995   N1017   1.367   .     A
C995   H1016   1.082   .     S
C995   C309    1.417   1_556 S
C996   N1018   1.367   .     A
C996   H1008   1.082   .     S
C997   O1022   1.292   .     A
C997   O1020   1.292   .     A
C998   C1000   1.435   .     S
C998   O1025   1.289   .     A
C998   O1023   1.287   .     A
C999   O1026   1.289   .     A
C999   C1001   1.435   .     S
C999   O1024   1.287   .     A
C1001  C924    1.335   1_655 S
C1001  H937    1.087   1_655 S
C1002  H1007   1.083   .     S
C1003  H1009   1.083   .     S
C1003  C762    1.384   1_565 S
C1004  H1014   1.083   .     S
C1004  C774    1.384   1_565 S
Cu1005 N1017   2.014   .     S
Cu1005 Cu1006  2.679   .     S
Cu1005 O1026   1.960   .     S
Cu1005 O1019   1.965   .     S
Cu1005 O1022   1.965   .     S
Cu1005 O1023   1.958   .     S
Cu1006 N1018   2.014   .     S
Cu1006 O1025   1.960   .     S
Cu1006 O1020   1.965   .     S
Cu1006 O1021   1.965   .     S
Cu1006 O1024   1.958   .     S
H1012  C924    1.087   1_655 S
