data_str_m2_o5_o17_pcu_sym.14
_audit_creation_date              2020-01-03
_audit_creation_method            'Materials Studio'
_symmetry_space_group_name_H-M    'P1'
_symmetry_Int_Tables_number       1
_symmetry_cell_setting            triclinic
loop_
_symmetry_equiv_pos_as_xyz
  x,y,z
_cell_length_a                    30.1172
_cell_length_b                    27.7822
_cell_length_c                    23.3563
_cell_angle_alpha                 89.9977
_cell_angle_beta                  90.0017
_cell_angle_gamma                 89.9992
loop_
_atom_site_label
_atom_site_type_symbol
_atom_site_fract_x
_atom_site_fract_y
_atom_site_fract_z
_atom_site_U_iso_or_equiv
_atom_site_adp_type
_atom_site_occupancy
O1     O     0.25000   0.09613   0.21425   0.00000  Uiso   1.00
O2     O     0.25000   0.23720   0.11908   0.00000  Uiso   1.00
O3     O     0.25000   0.23720   0.21425   0.00000  Uiso   1.00
O4     O     0.25000   0.09613   0.11908   0.00000  Uiso   1.00
C5     C     0.25000   0.07325   0.16667   0.00000  Uiso   1.00
C6     C     0.25000   0.26008   0.16667   0.00000  Uiso   1.00
O7     O     0.18513   0.16667   0.21427   0.00000  Uiso   1.00
O8     O     0.31487   0.16667   0.11907   0.00000  Uiso   1.00
O9     O     0.31487   0.16667   0.21427   0.00000  Uiso   1.00
O10    O     0.18513   0.16667   0.11907   0.00000  Uiso   1.00
C11    C     0.16434   0.16667   0.16667   0.00000  Uiso   1.00
C12    C     0.33566   0.16667   0.16667   0.00000  Uiso   1.00
Cu13   Cu    0.25000   0.16667   0.22303   0.00000  Uiso   1.00
Cu14   Cu    0.25000   0.16667   0.11031   0.00000  Uiso   1.00
N15    N     0.25000   0.16667   0.02561   0.00000  Uiso   1.00
N16    N     0.25000   0.16667   0.30773   0.00000  Uiso   1.00
C17    C     0.40653   0.21051   0.16908   0.00000  Uiso   1.00
C18    C     0.09346   0.12283   0.16910   0.00000  Uiso   1.00
C19    C     0.40654   0.12283   0.16426   0.00000  Uiso   1.00
C20    C     0.09347   0.21051   0.16422   0.00000  Uiso   1.00
C21    C     0.38376   0.16667   0.16667   0.00000  Uiso   1.00
C22    C     0.11624   0.16667   0.16666   0.00000  Uiso   1.00
C23    C     0.45318   0.12265   0.16843   0.00000  Uiso   1.00
C24    C     0.04682   0.21070   0.16838   0.00000  Uiso   1.00
C25    C     0.45317   0.21070   0.16489   0.00000  Uiso   1.00
C26    C     0.04682   0.12265   0.16493   0.00000  Uiso   1.00
C27    C     0.47653   0.16668   0.16665   0.00000  Uiso   1.00
C28    C     0.02347   0.16668   0.16666   0.00000  Uiso   1.00
C29    C     0.47733   0.07976   0.17293   0.00000  Uiso   1.00
C30    C     0.02267   0.25360   0.17284   0.00000  Uiso   1.00
C31    C     0.47733   0.25359   0.16041   0.00000  Uiso   1.00
C32    C     0.02267   0.07976   0.16047   0.00000  Uiso   1.00
C33    C     0.25000   0.02168   0.16667   0.00000  Uiso   1.00
C34    C     0.25000   0.31166   0.16667   0.00000  Uiso   1.00
Cl35   Cl    0.45782   0.03511   0.22020   0.00000  Uiso   1.00
Cl36   Cl    0.04221   0.29829   0.22003   0.00000  Uiso   1.00
Cl37   Cl    0.45775   0.29836   0.11332   0.00000  Uiso   1.00
Cl38   Cl    0.04218   0.03512   0.11318   0.00000  Uiso   1.00
Br39   Br    0.37317   0.26827   0.18659   0.00000  Uiso   1.00
Br40   Br    0.12681   0.06506   0.18654   0.00000  Uiso   1.00
Br41   Br    0.37319   0.06505   0.14685   0.00000  Uiso   1.00
Br42   Br    0.12682   0.26828   0.14674   0.00000  Uiso   1.00
O43    O     0.75000   0.09613   0.21425   0.00000  Uiso   1.00
O44    O     0.75000   0.23720   0.11908   0.00000  Uiso   1.00
O45    O     0.75000   0.23720   0.21425   0.00000  Uiso   1.00
O46    O     0.75000   0.09613   0.11908   0.00000  Uiso   1.00
C47    C     0.75000   0.07325   0.16667   0.00000  Uiso   1.00
C48    C     0.75000   0.26008   0.16667   0.00000  Uiso   1.00
O49    O     0.68513   0.16667   0.21427   0.00000  Uiso   1.00
O50    O     0.81487   0.16667   0.11907   0.00000  Uiso   1.00
O51    O     0.81487   0.16667   0.21427   0.00000  Uiso   1.00
O52    O     0.68513   0.16667   0.11907   0.00000  Uiso   1.00
C53    C     0.66434   0.16667   0.16667   0.00000  Uiso   1.00
C54    C     0.83566   0.16667   0.16667   0.00000  Uiso   1.00
Cu55   Cu    0.75000   0.16667   0.22303   0.00000  Uiso   1.00
Cu56   Cu    0.75000   0.16667   0.11031   0.00000  Uiso   1.00
N57    N     0.75000   0.16667   0.02561   0.00000  Uiso   1.00
N58    N     0.75000   0.16667   0.30773   0.00000  Uiso   1.00
C59    C     0.90653   0.21051   0.16908   0.00000  Uiso   1.00
C60    C     0.59346   0.12283   0.16910   0.00000  Uiso   1.00
C61    C     0.90654   0.12283   0.16426   0.00000  Uiso   1.00
C62    C     0.59347   0.21051   0.16422   0.00000  Uiso   1.00
C63    C     0.88376   0.16667   0.16667   0.00000  Uiso   1.00
C64    C     0.61624   0.16667   0.16666   0.00000  Uiso   1.00
C65    C     0.95318   0.12265   0.16843   0.00000  Uiso   1.00
C66    C     0.54682   0.21070   0.16838   0.00000  Uiso   1.00
C67    C     0.95317   0.21070   0.16489   0.00000  Uiso   1.00
C68    C     0.54682   0.12265   0.16493   0.00000  Uiso   1.00
C69    C     0.97653   0.16668   0.16665   0.00000  Uiso   1.00
C70    C     0.52347   0.16668   0.16666   0.00000  Uiso   1.00
C71    C     0.97733   0.07976   0.17293   0.00000  Uiso   1.00
C72    C     0.52267   0.25360   0.17284   0.00000  Uiso   1.00
C73    C     0.97733   0.25359   0.16041   0.00000  Uiso   1.00
C74    C     0.52267   0.07976   0.16047   0.00000  Uiso   1.00
C75    C     0.75000   0.02168   0.16667   0.00000  Uiso   1.00
C76    C     0.75000   0.31166   0.16667   0.00000  Uiso   1.00
Cl77   Cl    0.95782   0.03511   0.22020   0.00000  Uiso   1.00
Cl78   Cl    0.54221   0.29829   0.22003   0.00000  Uiso   1.00
Cl79   Cl    0.95775   0.29836   0.11332   0.00000  Uiso   1.00
Cl80   Cl    0.54218   0.03512   0.11318   0.00000  Uiso   1.00
Br81   Br    0.87317   0.26827   0.18659   0.00000  Uiso   1.00
Br82   Br    0.62681   0.06506   0.18654   0.00000  Uiso   1.00
Br83   Br    0.87319   0.06505   0.14685   0.00000  Uiso   1.00
Br84   Br    0.62682   0.26828   0.14674   0.00000  Uiso   1.00
O85    O     0.25000   0.42946   0.21425   0.00000  Uiso   1.00
O86    O     0.25000   0.57054   0.11908   0.00000  Uiso   1.00
O87    O     0.25000   0.57054   0.21425   0.00000  Uiso   1.00
O88    O     0.25000   0.42946   0.11908   0.00000  Uiso   1.00
C89    C     0.25000   0.40659   0.16667   0.00000  Uiso   1.00
C90    C     0.25000   0.59341   0.16667   0.00000  Uiso   1.00
O91    O     0.18513   0.50000   0.21427   0.00000  Uiso   1.00
O92    O     0.31487   0.50000   0.11907   0.00000  Uiso   1.00
O93    O     0.31487   0.50000   0.21427   0.00000  Uiso   1.00
O94    O     0.18513   0.50000   0.11907   0.00000  Uiso   1.00
C95    C     0.16434   0.50000   0.16667   0.00000  Uiso   1.00
C96    C     0.33566   0.50000   0.16667   0.00000  Uiso   1.00
Cu97   Cu    0.25000   0.50000   0.22303   0.00000  Uiso   1.00
Cu98   Cu    0.25000   0.50000   0.11031   0.00000  Uiso   1.00
N99    N     0.25000   0.50000   0.02561   0.00000  Uiso   1.00
N100   N     0.25000   0.50000   0.30773   0.00000  Uiso   1.00
C101   C     0.40653   0.54385   0.16908   0.00000  Uiso   1.00
C102   C     0.09346   0.45617   0.16910   0.00000  Uiso   1.00
C103   C     0.40654   0.45616   0.16426   0.00000  Uiso   1.00
C104   C     0.09347   0.54385   0.16422   0.00000  Uiso   1.00
C105   C     0.38376   0.50000   0.16667   0.00000  Uiso   1.00
C106   C     0.11624   0.50001   0.16666   0.00000  Uiso   1.00
C107   C     0.45318   0.45599   0.16843   0.00000  Uiso   1.00
C108   C     0.04682   0.54403   0.16838   0.00000  Uiso   1.00
C109   C     0.45317   0.54403   0.16489   0.00000  Uiso   1.00
C110   C     0.04682   0.45599   0.16493   0.00000  Uiso   1.00
C111   C     0.47653   0.50001   0.16665   0.00000  Uiso   1.00
C112   C     0.02347   0.50001   0.16666   0.00000  Uiso   1.00
C113   C     0.47733   0.41310   0.17293   0.00000  Uiso   1.00
C114   C     0.02267   0.58693   0.17284   0.00000  Uiso   1.00
C115   C     0.47733   0.58693   0.16041   0.00000  Uiso   1.00
C116   C     0.02267   0.41310   0.16047   0.00000  Uiso   1.00
C117   C     0.25000   0.35501   0.16667   0.00000  Uiso   1.00
C118   C     0.25000   0.64499   0.16667   0.00000  Uiso   1.00
Cl119  Cl    0.45782   0.36845   0.22020   0.00000  Uiso   1.00
Cl120  Cl    0.04221   0.63162   0.22003   0.00000  Uiso   1.00
Cl121  Cl    0.45775   0.63169   0.11332   0.00000  Uiso   1.00
Cl122  Cl    0.04218   0.36846   0.11318   0.00000  Uiso   1.00
Br123  Br    0.37317   0.60160   0.18659   0.00000  Uiso   1.00
Br124  Br    0.12681   0.39839   0.18654   0.00000  Uiso   1.00
Br125  Br    0.37319   0.39838   0.14685   0.00000  Uiso   1.00
Br126  Br    0.12682   0.60161   0.14674   0.00000  Uiso   1.00
O127   O     0.75000   0.42946   0.21425   0.00000  Uiso   1.00
O128   O     0.75000   0.57054   0.11908   0.00000  Uiso   1.00
O129   O     0.75000   0.57054   0.21425   0.00000  Uiso   1.00
O130   O     0.75000   0.42946   0.11908   0.00000  Uiso   1.00
C131   C     0.75000   0.40659   0.16667   0.00000  Uiso   1.00
C132   C     0.75000   0.59341   0.16667   0.00000  Uiso   1.00
O133   O     0.68513   0.50000   0.21427   0.00000  Uiso   1.00
O134   O     0.81487   0.50000   0.11907   0.00000  Uiso   1.00
O135   O     0.81487   0.50000   0.21427   0.00000  Uiso   1.00
O136   O     0.68513   0.50000   0.11907   0.00000  Uiso   1.00
C137   C     0.66434   0.50000   0.16667   0.00000  Uiso   1.00
C138   C     0.83566   0.50000   0.16667   0.00000  Uiso   1.00
Cu139  Cu    0.75000   0.50000   0.22303   0.00000  Uiso   1.00
Cu140  Cu    0.75000   0.50000   0.11031   0.00000  Uiso   1.00
N141   N     0.75000   0.50000   0.02561   0.00000  Uiso   1.00
N142   N     0.75000   0.50000   0.30773   0.00000  Uiso   1.00
C143   C     0.90653   0.54385   0.16908   0.00000  Uiso   1.00
C144   C     0.59346   0.45617   0.16910   0.00000  Uiso   1.00
C145   C     0.90654   0.45616   0.16426   0.00000  Uiso   1.00
C146   C     0.59347   0.54385   0.16422   0.00000  Uiso   1.00
C147   C     0.88376   0.50000   0.16667   0.00000  Uiso   1.00
C148   C     0.61624   0.50001   0.16666   0.00000  Uiso   1.00
C149   C     0.95318   0.45599   0.16843   0.00000  Uiso   1.00
C150   C     0.54682   0.54403   0.16838   0.00000  Uiso   1.00
C151   C     0.95317   0.54403   0.16489   0.00000  Uiso   1.00
C152   C     0.54682   0.45599   0.16493   0.00000  Uiso   1.00
C153   C     0.97653   0.50001   0.16665   0.00000  Uiso   1.00
C154   C     0.52347   0.50001   0.16666   0.00000  Uiso   1.00
C155   C     0.97733   0.41310   0.17293   0.00000  Uiso   1.00
C156   C     0.52267   0.58693   0.17284   0.00000  Uiso   1.00
C157   C     0.97733   0.58693   0.16041   0.00000  Uiso   1.00
C158   C     0.52267   0.41310   0.16047   0.00000  Uiso   1.00
C159   C     0.75000   0.35501   0.16667   0.00000  Uiso   1.00
C160   C     0.75000   0.64499   0.16667   0.00000  Uiso   1.00
Cl161  Cl    0.95782   0.36845   0.22020   0.00000  Uiso   1.00
Cl162  Cl    0.54221   0.63162   0.22003   0.00000  Uiso   1.00
Cl163  Cl    0.95775   0.63169   0.11332   0.00000  Uiso   1.00
Cl164  Cl    0.54218   0.36846   0.11318   0.00000  Uiso   1.00
Br165  Br    0.87317   0.60160   0.18659   0.00000  Uiso   1.00
Br166  Br    0.62681   0.39839   0.18654   0.00000  Uiso   1.00
Br167  Br    0.87319   0.39838   0.14685   0.00000  Uiso   1.00
Br168  Br    0.62682   0.60161   0.14674   0.00000  Uiso   1.00
O169   O     0.25000   0.76280   0.21425   0.00000  Uiso   1.00
O170   O     0.25000   0.90387   0.11908   0.00000  Uiso   1.00
O171   O     0.25000   0.90387   0.21425   0.00000  Uiso   1.00
O172   O     0.25000   0.76280   0.11908   0.00000  Uiso   1.00
C173   C     0.25000   0.73992   0.16667   0.00000  Uiso   1.00
C174   C     0.25000   0.92675   0.16667   0.00000  Uiso   1.00
O175   O     0.18513   0.83333   0.21427   0.00000  Uiso   1.00
O176   O     0.31487   0.83333   0.11907   0.00000  Uiso   1.00
O177   O     0.31487   0.83333   0.21427   0.00000  Uiso   1.00
O178   O     0.18513   0.83333   0.11907   0.00000  Uiso   1.00
C179   C     0.16434   0.83334   0.16667   0.00000  Uiso   1.00
C180   C     0.33566   0.83333   0.16667   0.00000  Uiso   1.00
Cu181  Cu    0.25000   0.83333   0.22303   0.00000  Uiso   1.00
Cu182  Cu    0.25000   0.83333   0.11031   0.00000  Uiso   1.00
N183   N     0.25000   0.83333   0.02561   0.00000  Uiso   1.00
N184   N     0.25000   0.83333   0.30773   0.00000  Uiso   1.00
C185   C     0.40653   0.87718   0.16908   0.00000  Uiso   1.00
C186   C     0.09346   0.78950   0.16910   0.00000  Uiso   1.00
C187   C     0.40654   0.78950   0.16426   0.00000  Uiso   1.00
C188   C     0.09347   0.87718   0.16422   0.00000  Uiso   1.00
C189   C     0.38376   0.83334   0.16667   0.00000  Uiso   1.00
C190   C     0.11624   0.83334   0.16666   0.00000  Uiso   1.00
C191   C     0.45318   0.78932   0.16843   0.00000  Uiso   1.00
C192   C     0.04682   0.87737   0.16838   0.00000  Uiso   1.00
C193   C     0.45317   0.87737   0.16489   0.00000  Uiso   1.00
C194   C     0.04682   0.78932   0.16493   0.00000  Uiso   1.00
C195   C     0.47653   0.83334   0.16665   0.00000  Uiso   1.00
C196   C     0.02347   0.83335   0.16666   0.00000  Uiso   1.00
C197   C     0.47733   0.74643   0.17293   0.00000  Uiso   1.00
C198   C     0.02267   0.92026   0.17284   0.00000  Uiso   1.00
C199   C     0.47733   0.92026   0.16041   0.00000  Uiso   1.00
C200   C     0.02267   0.74643   0.16047   0.00000  Uiso   1.00
C201   C     0.25000   0.68834   0.16667   0.00000  Uiso   1.00
C202   C     0.25000   0.97832   0.16667   0.00000  Uiso   1.00
Cl203  Cl    0.45782   0.70178   0.22020   0.00000  Uiso   1.00
Cl204  Cl    0.04221   0.96496   0.22003   0.00000  Uiso   1.00
Cl205  Cl    0.45775   0.96503   0.11332   0.00000  Uiso   1.00
Cl206  Cl    0.04218   0.70179   0.11318   0.00000  Uiso   1.00
Br207  Br    0.37317   0.93493   0.18659   0.00000  Uiso   1.00
Br208  Br    0.12681   0.73172   0.18654   0.00000  Uiso   1.00
Br209  Br    0.37319   0.73172   0.14685   0.00000  Uiso   1.00
Br210  Br    0.12682   0.93494   0.14674   0.00000  Uiso   1.00
O211   O     0.75000   0.76280   0.21425   0.00000  Uiso   1.00
O212   O     0.75000   0.90387   0.11908   0.00000  Uiso   1.00
O213   O     0.75000   0.90387   0.21425   0.00000  Uiso   1.00
O214   O     0.75000   0.76280   0.11908   0.00000  Uiso   1.00
C215   C     0.75000   0.73992   0.16667   0.00000  Uiso   1.00
C216   C     0.75000   0.92675   0.16667   0.00000  Uiso   1.00
O217   O     0.68513   0.83333   0.21427   0.00000  Uiso   1.00
O218   O     0.81487   0.83333   0.11907   0.00000  Uiso   1.00
O219   O     0.81487   0.83333   0.21427   0.00000  Uiso   1.00
O220   O     0.68513   0.83333   0.11907   0.00000  Uiso   1.00
C221   C     0.66434   0.83334   0.16667   0.00000  Uiso   1.00
C222   C     0.83566   0.83333   0.16667   0.00000  Uiso   1.00
Cu223  Cu    0.75000   0.83333   0.22303   0.00000  Uiso   1.00
Cu224  Cu    0.75000   0.83333   0.11031   0.00000  Uiso   1.00
N225   N     0.75000   0.83333   0.02561   0.00000  Uiso   1.00
N226   N     0.75000   0.83333   0.30773   0.00000  Uiso   1.00
C227   C     0.90653   0.87718   0.16908   0.00000  Uiso   1.00
C228   C     0.59346   0.78950   0.16910   0.00000  Uiso   1.00
C229   C     0.90654   0.78950   0.16426   0.00000  Uiso   1.00
C230   C     0.59347   0.87718   0.16422   0.00000  Uiso   1.00
C231   C     0.88376   0.83334   0.16667   0.00000  Uiso   1.00
C232   C     0.61624   0.83334   0.16666   0.00000  Uiso   1.00
C233   C     0.95318   0.78932   0.16843   0.00000  Uiso   1.00
C234   C     0.54682   0.87737   0.16838   0.00000  Uiso   1.00
C235   C     0.95317   0.87737   0.16489   0.00000  Uiso   1.00
C236   C     0.54682   0.78932   0.16493   0.00000  Uiso   1.00
C237   C     0.97653   0.83334   0.16665   0.00000  Uiso   1.00
C238   C     0.52347   0.83335   0.16666   0.00000  Uiso   1.00
C239   C     0.97733   0.74643   0.17293   0.00000  Uiso   1.00
C240   C     0.52267   0.92026   0.17284   0.00000  Uiso   1.00
C241   C     0.97733   0.92026   0.16041   0.00000  Uiso   1.00
C242   C     0.52267   0.74643   0.16047   0.00000  Uiso   1.00
C243   C     0.75000   0.68834   0.16667   0.00000  Uiso   1.00
C244   C     0.75000   0.97832   0.16667   0.00000  Uiso   1.00
Cl245  Cl    0.95782   0.70178   0.22020   0.00000  Uiso   1.00
Cl246  Cl    0.54221   0.96496   0.22003   0.00000  Uiso   1.00
Cl247  Cl    0.95775   0.96503   0.11332   0.00000  Uiso   1.00
Cl248  Cl    0.54218   0.70179   0.11318   0.00000  Uiso   1.00
Br249  Br    0.87317   0.93493   0.18659   0.00000  Uiso   1.00
Br250  Br    0.62681   0.73172   0.18654   0.00000  Uiso   1.00
Br251  Br    0.87319   0.73172   0.14685   0.00000  Uiso   1.00
Br252  Br    0.62682   0.93494   0.14674   0.00000  Uiso   1.00
O253   O     0.25000   0.09613   0.54759   0.00000  Uiso   1.00
O254   O     0.25000   0.23720   0.45241   0.00000  Uiso   1.00
O255   O     0.25000   0.23720   0.54759   0.00000  Uiso   1.00
O256   O     0.25000   0.09613   0.45241   0.00000  Uiso   1.00
C257   C     0.25000   0.07325   0.50000   0.00000  Uiso   1.00
C258   C     0.25000   0.26008   0.50000   0.00000  Uiso   1.00
O259   O     0.18513   0.16667   0.54760   0.00000  Uiso   1.00
O260   O     0.31487   0.16667   0.45240   0.00000  Uiso   1.00
O261   O     0.31487   0.16667   0.54760   0.00000  Uiso   1.00
O262   O     0.18513   0.16667   0.45240   0.00000  Uiso   1.00
C263   C     0.16434   0.16667   0.50000   0.00000  Uiso   1.00
C264   C     0.33566   0.16667   0.50000   0.00000  Uiso   1.00
Cu265  Cu    0.25000   0.16667   0.55636   0.00000  Uiso   1.00
Cu266  Cu    0.25000   0.16667   0.44364   0.00000  Uiso   1.00
N267   N     0.25000   0.16667   0.35894   0.00000  Uiso   1.00
N268   N     0.25000   0.16667   0.64106   0.00000  Uiso   1.00
C269   C     0.40653   0.21051   0.50242   0.00000  Uiso   1.00
C270   C     0.09346   0.12283   0.50243   0.00000  Uiso   1.00
C271   C     0.40654   0.12283   0.49759   0.00000  Uiso   1.00
C272   C     0.09347   0.21051   0.49755   0.00000  Uiso   1.00
C273   C     0.38376   0.16667   0.50000   0.00000  Uiso   1.00
C274   C     0.11624   0.16667   0.50000   0.00000  Uiso   1.00
C275   C     0.45318   0.12265   0.50176   0.00000  Uiso   1.00
C276   C     0.04682   0.21070   0.50172   0.00000  Uiso   1.00
C277   C     0.45317   0.21070   0.49823   0.00000  Uiso   1.00
C278   C     0.04682   0.12265   0.49827   0.00000  Uiso   1.00
C279   C     0.47653   0.16668   0.49999   0.00000  Uiso   1.00
C280   C     0.02347   0.16668   0.49999   0.00000  Uiso   1.00
C281   C     0.47733   0.07976   0.50626   0.00000  Uiso   1.00
C282   C     0.02267   0.25360   0.50618   0.00000  Uiso   1.00
C283   C     0.47733   0.25359   0.49374   0.00000  Uiso   1.00
C284   C     0.02267   0.07976   0.49380   0.00000  Uiso   1.00
C285   C     0.25000   0.02168   0.50000   0.00000  Uiso   1.00
C286   C     0.25000   0.31166   0.50000   0.00000  Uiso   1.00
Cl287  Cl    0.45782   0.03511   0.55354   0.00000  Uiso   1.00
Cl288  Cl    0.04221   0.29829   0.55336   0.00000  Uiso   1.00
Cl289  Cl    0.45775   0.29836   0.44666   0.00000  Uiso   1.00
Cl290  Cl    0.04218   0.03512   0.44651   0.00000  Uiso   1.00
Br291  Br    0.37317   0.26827   0.51993   0.00000  Uiso   1.00
Br292  Br    0.12681   0.06506   0.51987   0.00000  Uiso   1.00
Br293  Br    0.37319   0.06505   0.48019   0.00000  Uiso   1.00
Br294  Br    0.12682   0.26828   0.48008   0.00000  Uiso   1.00
O295   O     0.75000   0.09613   0.54759   0.00000  Uiso   1.00
O296   O     0.75000   0.23720   0.45241   0.00000  Uiso   1.00
O297   O     0.75000   0.23720   0.54759   0.00000  Uiso   1.00
O298   O     0.75000   0.09613   0.45241   0.00000  Uiso   1.00
C299   C     0.75000   0.07325   0.50000   0.00000  Uiso   1.00
C300   C     0.75000   0.26008   0.50000   0.00000  Uiso   1.00
O301   O     0.68513   0.16667   0.54760   0.00000  Uiso   1.00
O302   O     0.81487   0.16667   0.45240   0.00000  Uiso   1.00
O303   O     0.81487   0.16667   0.54760   0.00000  Uiso   1.00
O304   O     0.68513   0.16667   0.45240   0.00000  Uiso   1.00
C305   C     0.66434   0.16667   0.50000   0.00000  Uiso   1.00
C306   C     0.83566   0.16667   0.50000   0.00000  Uiso   1.00
Cu307  Cu    0.75000   0.16667   0.55636   0.00000  Uiso   1.00
Cu308  Cu    0.75000   0.16667   0.44364   0.00000  Uiso   1.00
N309   N     0.75000   0.16667   0.35894   0.00000  Uiso   1.00
N310   N     0.75000   0.16667   0.64106   0.00000  Uiso   1.00
C311   C     0.90653   0.21051   0.50242   0.00000  Uiso   1.00
C312   C     0.59346   0.12283   0.50243   0.00000  Uiso   1.00
C313   C     0.90654   0.12283   0.49759   0.00000  Uiso   1.00
C314   C     0.59347   0.21051   0.49755   0.00000  Uiso   1.00
C315   C     0.88376   0.16667   0.50000   0.00000  Uiso   1.00
C316   C     0.61624   0.16667   0.50000   0.00000  Uiso   1.00
C317   C     0.95318   0.12265   0.50176   0.00000  Uiso   1.00
C318   C     0.54682   0.21070   0.50172   0.00000  Uiso   1.00
C319   C     0.95317   0.21070   0.49823   0.00000  Uiso   1.00
C320   C     0.54682   0.12265   0.49827   0.00000  Uiso   1.00
C321   C     0.97653   0.16668   0.49999   0.00000  Uiso   1.00
C322   C     0.52347   0.16668   0.49999   0.00000  Uiso   1.00
C323   C     0.97733   0.07976   0.50626   0.00000  Uiso   1.00
C324   C     0.52267   0.25360   0.50618   0.00000  Uiso   1.00
C325   C     0.97733   0.25359   0.49374   0.00000  Uiso   1.00
C326   C     0.52267   0.07976   0.49380   0.00000  Uiso   1.00
C327   C     0.75000   0.02168   0.50000   0.00000  Uiso   1.00
C328   C     0.75000   0.31166   0.50000   0.00000  Uiso   1.00
Cl329  Cl    0.95782   0.03511   0.55354   0.00000  Uiso   1.00
Cl330  Cl    0.54221   0.29829   0.55336   0.00000  Uiso   1.00
Cl331  Cl    0.95775   0.29836   0.44666   0.00000  Uiso   1.00
Cl332  Cl    0.54218   0.03512   0.44651   0.00000  Uiso   1.00
Br333  Br    0.87317   0.26827   0.51993   0.00000  Uiso   1.00
Br334  Br    0.62681   0.06506   0.51987   0.00000  Uiso   1.00
Br335  Br    0.87319   0.06505   0.48019   0.00000  Uiso   1.00
Br336  Br    0.62682   0.26828   0.48008   0.00000  Uiso   1.00
O337   O     0.25000   0.42946   0.54759   0.00000  Uiso   1.00
O338   O     0.25000   0.57054   0.45241   0.00000  Uiso   1.00
O339   O     0.25000   0.57054   0.54759   0.00000  Uiso   1.00
O340   O     0.25000   0.42946   0.45241   0.00000  Uiso   1.00
C341   C     0.25000   0.40659   0.50000   0.00000  Uiso   1.00
C342   C     0.25000   0.59341   0.50000   0.00000  Uiso   1.00
O343   O     0.18513   0.50000   0.54760   0.00000  Uiso   1.00
O344   O     0.31487   0.50000   0.45240   0.00000  Uiso   1.00
O345   O     0.31487   0.50000   0.54760   0.00000  Uiso   1.00
O346   O     0.18513   0.50000   0.45240   0.00000  Uiso   1.00
C347   C     0.16434   0.50000   0.50000   0.00000  Uiso   1.00
C348   C     0.33566   0.50000   0.50000   0.00000  Uiso   1.00
Cu349  Cu    0.25000   0.50000   0.55636   0.00000  Uiso   1.00
Cu350  Cu    0.25000   0.50000   0.44364   0.00000  Uiso   1.00
N351   N     0.25000   0.50000   0.35894   0.00000  Uiso   1.00
N352   N     0.25000   0.50000   0.64106   0.00000  Uiso   1.00
C353   C     0.40653   0.54385   0.50242   0.00000  Uiso   1.00
C354   C     0.09346   0.45617   0.50243   0.00000  Uiso   1.00
C355   C     0.40654   0.45616   0.49759   0.00000  Uiso   1.00
C356   C     0.09347   0.54385   0.49755   0.00000  Uiso   1.00
C357   C     0.38376   0.50000   0.50000   0.00000  Uiso   1.00
C358   C     0.11624   0.50001   0.50000   0.00000  Uiso   1.00
C359   C     0.45318   0.45599   0.50176   0.00000  Uiso   1.00
C360   C     0.04682   0.54403   0.50172   0.00000  Uiso   1.00
C361   C     0.45317   0.54403   0.49823   0.00000  Uiso   1.00
C362   C     0.04682   0.45599   0.49827   0.00000  Uiso   1.00
C363   C     0.47653   0.50001   0.49999   0.00000  Uiso   1.00
C364   C     0.02347   0.50001   0.49999   0.00000  Uiso   1.00
C365   C     0.47733   0.41310   0.50626   0.00000  Uiso   1.00
C366   C     0.02267   0.58693   0.50618   0.00000  Uiso   1.00
C367   C     0.47733   0.58693   0.49374   0.00000  Uiso   1.00
C368   C     0.02267   0.41310   0.49380   0.00000  Uiso   1.00
C369   C     0.25000   0.35501   0.50000   0.00000  Uiso   1.00
C370   C     0.25000   0.64499   0.50000   0.00000  Uiso   1.00
Cl371  Cl    0.45782   0.36845   0.55354   0.00000  Uiso   1.00
Cl372  Cl    0.04221   0.63162   0.55336   0.00000  Uiso   1.00
Cl373  Cl    0.45775   0.63169   0.44666   0.00000  Uiso   1.00
Cl374  Cl    0.04218   0.36846   0.44651   0.00000  Uiso   1.00
Br375  Br    0.37317   0.60160   0.51993   0.00000  Uiso   1.00
Br376  Br    0.12681   0.39839   0.51987   0.00000  Uiso   1.00
Br377  Br    0.37319   0.39838   0.48019   0.00000  Uiso   1.00
Br378  Br    0.12682   0.60161   0.48008   0.00000  Uiso   1.00
O379   O     0.75000   0.42946   0.54759   0.00000  Uiso   1.00
O380   O     0.75000   0.57054   0.45241   0.00000  Uiso   1.00
O381   O     0.75000   0.57054   0.54759   0.00000  Uiso   1.00
O382   O     0.75000   0.42946   0.45241   0.00000  Uiso   1.00
C383   C     0.75000   0.40659   0.50000   0.00000  Uiso   1.00
C384   C     0.75000   0.59341   0.50000   0.00000  Uiso   1.00
O385   O     0.68513   0.50000   0.54760   0.00000  Uiso   1.00
O386   O     0.81487   0.50000   0.45240   0.00000  Uiso   1.00
O387   O     0.81487   0.50000   0.54760   0.00000  Uiso   1.00
O388   O     0.68513   0.50000   0.45240   0.00000  Uiso   1.00
C389   C     0.66434   0.50000   0.50000   0.00000  Uiso   1.00
C390   C     0.83566   0.50000   0.50000   0.00000  Uiso   1.00
Cu391  Cu    0.75000   0.50000   0.55636   0.00000  Uiso   1.00
Cu392  Cu    0.75000   0.50000   0.44364   0.00000  Uiso   1.00
N393   N     0.75000   0.50000   0.35894   0.00000  Uiso   1.00
N394   N     0.75000   0.50000   0.64106   0.00000  Uiso   1.00
C395   C     0.90653   0.54385   0.50242   0.00000  Uiso   1.00
C396   C     0.59346   0.45617   0.50243   0.00000  Uiso   1.00
C397   C     0.90654   0.45616   0.49759   0.00000  Uiso   1.00
C398   C     0.59347   0.54385   0.49755   0.00000  Uiso   1.00
C399   C     0.88376   0.50000   0.50000   0.00000  Uiso   1.00
C400   C     0.61624   0.50001   0.50000   0.00000  Uiso   1.00
C401   C     0.95318   0.45599   0.50176   0.00000  Uiso   1.00
C402   C     0.54682   0.54403   0.50172   0.00000  Uiso   1.00
C403   C     0.95317   0.54403   0.49823   0.00000  Uiso   1.00
C404   C     0.54682   0.45599   0.49827   0.00000  Uiso   1.00
C405   C     0.97653   0.50001   0.49999   0.00000  Uiso   1.00
C406   C     0.52347   0.50001   0.49999   0.00000  Uiso   1.00
C407   C     0.97733   0.41310   0.50626   0.00000  Uiso   1.00
C408   C     0.52267   0.58693   0.50618   0.00000  Uiso   1.00
C409   C     0.97733   0.58693   0.49374   0.00000  Uiso   1.00
C410   C     0.52267   0.41310   0.49380   0.00000  Uiso   1.00
C411   C     0.75000   0.35501   0.50000   0.00000  Uiso   1.00
C412   C     0.75000   0.64499   0.50000   0.00000  Uiso   1.00
Cl413  Cl    0.95782   0.36845   0.55354   0.00000  Uiso   1.00
Cl414  Cl    0.54221   0.63162   0.55336   0.00000  Uiso   1.00
Cl415  Cl    0.95775   0.63169   0.44666   0.00000  Uiso   1.00
Cl416  Cl    0.54218   0.36846   0.44651   0.00000  Uiso   1.00
Br417  Br    0.87317   0.60160   0.51993   0.00000  Uiso   1.00
Br418  Br    0.62681   0.39839   0.51987   0.00000  Uiso   1.00
Br419  Br    0.87319   0.39838   0.48019   0.00000  Uiso   1.00
Br420  Br    0.62682   0.60161   0.48008   0.00000  Uiso   1.00
O421   O     0.25000   0.76280   0.54759   0.00000  Uiso   1.00
O422   O     0.25000   0.90387   0.45241   0.00000  Uiso   1.00
O423   O     0.25000   0.90387   0.54759   0.00000  Uiso   1.00
O424   O     0.25000   0.76280   0.45241   0.00000  Uiso   1.00
C425   C     0.25000   0.73992   0.50000   0.00000  Uiso   1.00
C426   C     0.25000   0.92675   0.50000   0.00000  Uiso   1.00
O427   O     0.18513   0.83333   0.54760   0.00000  Uiso   1.00
O428   O     0.31487   0.83333   0.45240   0.00000  Uiso   1.00
O429   O     0.31487   0.83333   0.54760   0.00000  Uiso   1.00
O430   O     0.18513   0.83333   0.45240   0.00000  Uiso   1.00
C431   C     0.16434   0.83334   0.50000   0.00000  Uiso   1.00
C432   C     0.33566   0.83333   0.50000   0.00000  Uiso   1.00
Cu433  Cu    0.25000   0.83333   0.55636   0.00000  Uiso   1.00
Cu434  Cu    0.25000   0.83333   0.44364   0.00000  Uiso   1.00
N435   N     0.25000   0.83333   0.35894   0.00000  Uiso   1.00
N436   N     0.25000   0.83333   0.64106   0.00000  Uiso   1.00
C437   C     0.40653   0.87718   0.50242   0.00000  Uiso   1.00
C438   C     0.09346   0.78950   0.50243   0.00000  Uiso   1.00
C439   C     0.40654   0.78950   0.49759   0.00000  Uiso   1.00
C440   C     0.09347   0.87718   0.49755   0.00000  Uiso   1.00
C441   C     0.38376   0.83334   0.50000   0.00000  Uiso   1.00
C442   C     0.11624   0.83334   0.50000   0.00000  Uiso   1.00
C443   C     0.45318   0.78932   0.50176   0.00000  Uiso   1.00
C444   C     0.04682   0.87737   0.50172   0.00000  Uiso   1.00
C445   C     0.45317   0.87737   0.49823   0.00000  Uiso   1.00
C446   C     0.04682   0.78932   0.49827   0.00000  Uiso   1.00
C447   C     0.47653   0.83334   0.49999   0.00000  Uiso   1.00
C448   C     0.02347   0.83335   0.49999   0.00000  Uiso   1.00
C449   C     0.47733   0.74643   0.50626   0.00000  Uiso   1.00
C450   C     0.02267   0.92026   0.50618   0.00000  Uiso   1.00
C451   C     0.47733   0.92026   0.49374   0.00000  Uiso   1.00
C452   C     0.02267   0.74643   0.49380   0.00000  Uiso   1.00
C453   C     0.25000   0.68834   0.50000   0.00000  Uiso   1.00
C454   C     0.25000   0.97832   0.50000   0.00000  Uiso   1.00
Cl455  Cl    0.45782   0.70178   0.55354   0.00000  Uiso   1.00
Cl456  Cl    0.04221   0.96496   0.55336   0.00000  Uiso   1.00
Cl457  Cl    0.45775   0.96503   0.44666   0.00000  Uiso   1.00
Cl458  Cl    0.04218   0.70179   0.44651   0.00000  Uiso   1.00
Br459  Br    0.37317   0.93493   0.51993   0.00000  Uiso   1.00
Br460  Br    0.12681   0.73172   0.51987   0.00000  Uiso   1.00
Br461  Br    0.37319   0.73172   0.48019   0.00000  Uiso   1.00
Br462  Br    0.12682   0.93494   0.48008   0.00000  Uiso   1.00
O463   O     0.75000   0.76280   0.54759   0.00000  Uiso   1.00
O464   O     0.75000   0.90387   0.45241   0.00000  Uiso   1.00
O465   O     0.75000   0.90387   0.54759   0.00000  Uiso   1.00
O466   O     0.75000   0.76280   0.45241   0.00000  Uiso   1.00
C467   C     0.75000   0.73992   0.50000   0.00000  Uiso   1.00
C468   C     0.75000   0.92675   0.50000   0.00000  Uiso   1.00
O469   O     0.68513   0.83333   0.54760   0.00000  Uiso   1.00
O470   O     0.81487   0.83333   0.45240   0.00000  Uiso   1.00
O471   O     0.81487   0.83333   0.54760   0.00000  Uiso   1.00
O472   O     0.68513   0.83333   0.45240   0.00000  Uiso   1.00
C473   C     0.66434   0.83334   0.50000   0.00000  Uiso   1.00
C474   C     0.83566   0.83333   0.50000   0.00000  Uiso   1.00
Cu475  Cu    0.75000   0.83333   0.55636   0.00000  Uiso   1.00
Cu476  Cu    0.75000   0.83333   0.44364   0.00000  Uiso   1.00
N477   N     0.75000   0.83333   0.35894   0.00000  Uiso   1.00
N478   N     0.75000   0.83333   0.64106   0.00000  Uiso   1.00
C479   C     0.90653   0.87718   0.50242   0.00000  Uiso   1.00
C480   C     0.59346   0.78950   0.50243   0.00000  Uiso   1.00
C481   C     0.90654   0.78950   0.49759   0.00000  Uiso   1.00
C482   C     0.59347   0.87718   0.49755   0.00000  Uiso   1.00
C483   C     0.88376   0.83334   0.50000   0.00000  Uiso   1.00
C484   C     0.61624   0.83334   0.50000   0.00000  Uiso   1.00
C485   C     0.95318   0.78932   0.50176   0.00000  Uiso   1.00
C486   C     0.54682   0.87737   0.50172   0.00000  Uiso   1.00
C487   C     0.95317   0.87737   0.49823   0.00000  Uiso   1.00
C488   C     0.54682   0.78932   0.49827   0.00000  Uiso   1.00
C489   C     0.97653   0.83334   0.49999   0.00000  Uiso   1.00
C490   C     0.52347   0.83335   0.49999   0.00000  Uiso   1.00
C491   C     0.97733   0.74643   0.50626   0.00000  Uiso   1.00
C492   C     0.52267   0.92026   0.50618   0.00000  Uiso   1.00
C493   C     0.97733   0.92026   0.49374   0.00000  Uiso   1.00
C494   C     0.52267   0.74643   0.49380   0.00000  Uiso   1.00
C495   C     0.75000   0.68834   0.50000   0.00000  Uiso   1.00
C496   C     0.75000   0.97832   0.50000   0.00000  Uiso   1.00
Cl497  Cl    0.95782   0.70178   0.55354   0.00000  Uiso   1.00
Cl498  Cl    0.54221   0.96496   0.55336   0.00000  Uiso   1.00
Cl499  Cl    0.95775   0.96503   0.44666   0.00000  Uiso   1.00
Cl500  Cl    0.54218   0.70179   0.44651   0.00000  Uiso   1.00
Br501  Br    0.87317   0.93493   0.51993   0.00000  Uiso   1.00
Br502  Br    0.62681   0.73172   0.51987   0.00000  Uiso   1.00
Br503  Br    0.87319   0.73172   0.48019   0.00000  Uiso   1.00
Br504  Br    0.62682   0.93494   0.48008   0.00000  Uiso   1.00
O505   O     0.25000   0.09613   0.88092   0.00000  Uiso   1.00
O506   O     0.25000   0.23720   0.78575   0.00000  Uiso   1.00
O507   O     0.25000   0.23720   0.88092   0.00000  Uiso   1.00
O508   O     0.25000   0.09613   0.78575   0.00000  Uiso   1.00
C509   C     0.25000   0.07325   0.83333   0.00000  Uiso   1.00
C510   C     0.25000   0.26008   0.83333   0.00000  Uiso   1.00
O511   O     0.18513   0.16667   0.88093   0.00000  Uiso   1.00
O512   O     0.31487   0.16667   0.78573   0.00000  Uiso   1.00
O513   O     0.31487   0.16667   0.88093   0.00000  Uiso   1.00
O514   O     0.18513   0.16667   0.78573   0.00000  Uiso   1.00
C515   C     0.16434   0.16667   0.83333   0.00000  Uiso   1.00
C516   C     0.33566   0.16667   0.83333   0.00000  Uiso   1.00
Cu517  Cu    0.25000   0.16667   0.88969   0.00000  Uiso   1.00
Cu518  Cu    0.25000   0.16667   0.77697   0.00000  Uiso   1.00
N519   N     0.25000   0.16667   0.69227   0.00000  Uiso   1.00
N520   N     0.25000   0.16667   0.97439   0.00000  Uiso   1.00
C521   C     0.40653   0.21051   0.83575   0.00000  Uiso   1.00
C522   C     0.09346   0.12283   0.83577   0.00000  Uiso   1.00
C523   C     0.40654   0.12283   0.83093   0.00000  Uiso   1.00
C524   C     0.09347   0.21051   0.83089   0.00000  Uiso   1.00
C525   C     0.38376   0.16667   0.83334   0.00000  Uiso   1.00
C526   C     0.11624   0.16667   0.83333   0.00000  Uiso   1.00
C527   C     0.45318   0.12265   0.83509   0.00000  Uiso   1.00
C528   C     0.04682   0.21070   0.83505   0.00000  Uiso   1.00
C529   C     0.45317   0.21070   0.83156   0.00000  Uiso   1.00
C530   C     0.04682   0.12265   0.83160   0.00000  Uiso   1.00
C531   C     0.47653   0.16668   0.83332   0.00000  Uiso   1.00
C532   C     0.02347   0.16668   0.83332   0.00000  Uiso   1.00
C533   C     0.47733   0.07976   0.83959   0.00000  Uiso   1.00
C534   C     0.02267   0.25360   0.83951   0.00000  Uiso   1.00
C535   C     0.47733   0.25359   0.82707   0.00000  Uiso   1.00
C536   C     0.02267   0.07976   0.82713   0.00000  Uiso   1.00
C537   C     0.25000   0.02168   0.83333   0.00000  Uiso   1.00
C538   C     0.25000   0.31166   0.83333   0.00000  Uiso   1.00
Cl539  Cl    0.45782   0.03511   0.88687   0.00000  Uiso   1.00
Cl540  Cl    0.04221   0.29829   0.88669   0.00000  Uiso   1.00
Cl541  Cl    0.45775   0.29836   0.77999   0.00000  Uiso   1.00
Cl542  Cl    0.04218   0.03512   0.77984   0.00000  Uiso   1.00
Br543  Br    0.37317   0.26827   0.85326   0.00000  Uiso   1.00
Br544  Br    0.12681   0.06506   0.85320   0.00000  Uiso   1.00
Br545  Br    0.37319   0.06505   0.81352   0.00000  Uiso   1.00
Br546  Br    0.12682   0.26828   0.81341   0.00000  Uiso   1.00
O547   O     0.75000   0.09613   0.88092   0.00000  Uiso   1.00
O548   O     0.75000   0.23720   0.78575   0.00000  Uiso   1.00
O549   O     0.75000   0.23720   0.88092   0.00000  Uiso   1.00
O550   O     0.75000   0.09613   0.78575   0.00000  Uiso   1.00
C551   C     0.75000   0.07325   0.83333   0.00000  Uiso   1.00
C552   C     0.75000   0.26008   0.83333   0.00000  Uiso   1.00
O553   O     0.68513   0.16667   0.88093   0.00000  Uiso   1.00
O554   O     0.81487   0.16667   0.78573   0.00000  Uiso   1.00
O555   O     0.81487   0.16667   0.88093   0.00000  Uiso   1.00
O556   O     0.68513   0.16667   0.78573   0.00000  Uiso   1.00
C557   C     0.66434   0.16667   0.83333   0.00000  Uiso   1.00
C558   C     0.83566   0.16667   0.83333   0.00000  Uiso   1.00
Cu559  Cu    0.75000   0.16667   0.88969   0.00000  Uiso   1.00
Cu560  Cu    0.75000   0.16667   0.77697   0.00000  Uiso   1.00
N561   N     0.75000   0.16667   0.69227   0.00000  Uiso   1.00
N562   N     0.75000   0.16667   0.97439   0.00000  Uiso   1.00
C563   C     0.90653   0.21051   0.83575   0.00000  Uiso   1.00
C564   C     0.59346   0.12283   0.83577   0.00000  Uiso   1.00
C565   C     0.90654   0.12283   0.83093   0.00000  Uiso   1.00
C566   C     0.59347   0.21051   0.83089   0.00000  Uiso   1.00
C567   C     0.88376   0.16667   0.83334   0.00000  Uiso   1.00
C568   C     0.61624   0.16667   0.83333   0.00000  Uiso   1.00
C569   C     0.95318   0.12265   0.83509   0.00000  Uiso   1.00
C570   C     0.54682   0.21070   0.83505   0.00000  Uiso   1.00
C571   C     0.95317   0.21070   0.83156   0.00000  Uiso   1.00
C572   C     0.54682   0.12265   0.83160   0.00000  Uiso   1.00
C573   C     0.97653   0.16668   0.83332   0.00000  Uiso   1.00
C574   C     0.52347   0.16668   0.83332   0.00000  Uiso   1.00
C575   C     0.97733   0.07976   0.83959   0.00000  Uiso   1.00
C576   C     0.52267   0.25360   0.83951   0.00000  Uiso   1.00
C577   C     0.97733   0.25359   0.82707   0.00000  Uiso   1.00
C578   C     0.52267   0.07976   0.82713   0.00000  Uiso   1.00
C579   C     0.75000   0.02168   0.83333   0.00000  Uiso   1.00
C580   C     0.75000   0.31166   0.83333   0.00000  Uiso   1.00
Cl581  Cl    0.95782   0.03511   0.88687   0.00000  Uiso   1.00
Cl582  Cl    0.54221   0.29829   0.88669   0.00000  Uiso   1.00
Cl583  Cl    0.95775   0.29836   0.77999   0.00000  Uiso   1.00
Cl584  Cl    0.54218   0.03512   0.77984   0.00000  Uiso   1.00
Br585  Br    0.87317   0.26827   0.85326   0.00000  Uiso   1.00
Br586  Br    0.62681   0.06506   0.85320   0.00000  Uiso   1.00
Br587  Br    0.87319   0.06505   0.81352   0.00000  Uiso   1.00
Br588  Br    0.62682   0.26828   0.81341   0.00000  Uiso   1.00
O589   O     0.25000   0.42946   0.88092   0.00000  Uiso   1.00
O590   O     0.25000   0.57054   0.78575   0.00000  Uiso   1.00
O591   O     0.25000   0.57054   0.88092   0.00000  Uiso   1.00
O592   O     0.25000   0.42946   0.78575   0.00000  Uiso   1.00
C593   C     0.25000   0.40659   0.83333   0.00000  Uiso   1.00
C594   C     0.25000   0.59341   0.83333   0.00000  Uiso   1.00
O595   O     0.18513   0.50000   0.88093   0.00000  Uiso   1.00
O596   O     0.31487   0.50000   0.78573   0.00000  Uiso   1.00
O597   O     0.31487   0.50000   0.88093   0.00000  Uiso   1.00
O598   O     0.18513   0.50000   0.78573   0.00000  Uiso   1.00
C599   C     0.16434   0.50000   0.83333   0.00000  Uiso   1.00
C600   C     0.33566   0.50000   0.83333   0.00000  Uiso   1.00
Cu601  Cu    0.25000   0.50000   0.88969   0.00000  Uiso   1.00
Cu602  Cu    0.25000   0.50000   0.77697   0.00000  Uiso   1.00
N603   N     0.25000   0.50000   0.69227   0.00000  Uiso   1.00
N604   N     0.25000   0.50000   0.97439   0.00000  Uiso   1.00
C605   C     0.40653   0.54385   0.83575   0.00000  Uiso   1.00
C606   C     0.09346   0.45617   0.83577   0.00000  Uiso   1.00
C607   C     0.40654   0.45616   0.83093   0.00000  Uiso   1.00
C608   C     0.09347   0.54385   0.83089   0.00000  Uiso   1.00
C609   C     0.38376   0.50000   0.83334   0.00000  Uiso   1.00
C610   C     0.11624   0.50001   0.83333   0.00000  Uiso   1.00
C611   C     0.45318   0.45599   0.83509   0.00000  Uiso   1.00
C612   C     0.04682   0.54403   0.83505   0.00000  Uiso   1.00
C613   C     0.45317   0.54403   0.83156   0.00000  Uiso   1.00
C614   C     0.04682   0.45599   0.83160   0.00000  Uiso   1.00
C615   C     0.47653   0.50001   0.83332   0.00000  Uiso   1.00
C616   C     0.02347   0.50001   0.83332   0.00000  Uiso   1.00
C617   C     0.47733   0.41310   0.83959   0.00000  Uiso   1.00
C618   C     0.02267   0.58693   0.83951   0.00000  Uiso   1.00
C619   C     0.47733   0.58693   0.82707   0.00000  Uiso   1.00
C620   C     0.02267   0.41310   0.82713   0.00000  Uiso   1.00
C621   C     0.25000   0.35501   0.83333   0.00000  Uiso   1.00
C622   C     0.25000   0.64499   0.83333   0.00000  Uiso   1.00
Cl623  Cl    0.45782   0.36845   0.88687   0.00000  Uiso   1.00
Cl624  Cl    0.04221   0.63162   0.88669   0.00000  Uiso   1.00
Cl625  Cl    0.45775   0.63169   0.77999   0.00000  Uiso   1.00
Cl626  Cl    0.04218   0.36846   0.77984   0.00000  Uiso   1.00
Br627  Br    0.37317   0.60160   0.85326   0.00000  Uiso   1.00
Br628  Br    0.12681   0.39839   0.85320   0.00000  Uiso   1.00
Br629  Br    0.37319   0.39838   0.81352   0.00000  Uiso   1.00
Br630  Br    0.12682   0.60161   0.81341   0.00000  Uiso   1.00
O631   O     0.75000   0.42946   0.88092   0.00000  Uiso   1.00
O632   O     0.75000   0.57054   0.78575   0.00000  Uiso   1.00
O633   O     0.75000   0.57054   0.88092   0.00000  Uiso   1.00
O634   O     0.75000   0.42946   0.78575   0.00000  Uiso   1.00
C635   C     0.75000   0.40659   0.83333   0.00000  Uiso   1.00
C636   C     0.75000   0.59341   0.83333   0.00000  Uiso   1.00
O637   O     0.68513   0.50000   0.88093   0.00000  Uiso   1.00
O638   O     0.81487   0.50000   0.78573   0.00000  Uiso   1.00
O639   O     0.81487   0.50000   0.88093   0.00000  Uiso   1.00
O640   O     0.68513   0.50000   0.78573   0.00000  Uiso   1.00
C641   C     0.66434   0.50000   0.83333   0.00000  Uiso   1.00
C642   C     0.83566   0.50000   0.83333   0.00000  Uiso   1.00
Cu643  Cu    0.75000   0.50000   0.88969   0.00000  Uiso   1.00
Cu644  Cu    0.75000   0.50000   0.77697   0.00000  Uiso   1.00
N645   N     0.75000   0.50000   0.69227   0.00000  Uiso   1.00
N646   N     0.75000   0.50000   0.97439   0.00000  Uiso   1.00
C647   C     0.90653   0.54385   0.83575   0.00000  Uiso   1.00
C648   C     0.59346   0.45617   0.83577   0.00000  Uiso   1.00
C649   C     0.90654   0.45616   0.83093   0.00000  Uiso   1.00
C650   C     0.59347   0.54385   0.83089   0.00000  Uiso   1.00
C651   C     0.88376   0.50000   0.83334   0.00000  Uiso   1.00
C652   C     0.61624   0.50001   0.83333   0.00000  Uiso   1.00
C653   C     0.95318   0.45599   0.83509   0.00000  Uiso   1.00
C654   C     0.54682   0.54403   0.83505   0.00000  Uiso   1.00
C655   C     0.95317   0.54403   0.83156   0.00000  Uiso   1.00
C656   C     0.54682   0.45599   0.83160   0.00000  Uiso   1.00
C657   C     0.97653   0.50001   0.83332   0.00000  Uiso   1.00
C658   C     0.52347   0.50001   0.83332   0.00000  Uiso   1.00
C659   C     0.97733   0.41310   0.83959   0.00000  Uiso   1.00
C660   C     0.52267   0.58693   0.83951   0.00000  Uiso   1.00
C661   C     0.97733   0.58693   0.82707   0.00000  Uiso   1.00
C662   C     0.52267   0.41310   0.82713   0.00000  Uiso   1.00
C663   C     0.75000   0.35501   0.83333   0.00000  Uiso   1.00
C664   C     0.75000   0.64499   0.83333   0.00000  Uiso   1.00
Cl665  Cl    0.95782   0.36845   0.88687   0.00000  Uiso   1.00
Cl666  Cl    0.54221   0.63162   0.88669   0.00000  Uiso   1.00
Cl667  Cl    0.95775   0.63169   0.77999   0.00000  Uiso   1.00
Cl668  Cl    0.54218   0.36846   0.77984   0.00000  Uiso   1.00
Br669  Br    0.87317   0.60160   0.85326   0.00000  Uiso   1.00
Br670  Br    0.62681   0.39839   0.85320   0.00000  Uiso   1.00
Br671  Br    0.87319   0.39838   0.81352   0.00000  Uiso   1.00
Br672  Br    0.62682   0.60161   0.81341   0.00000  Uiso   1.00
O673   O     0.25000   0.76280   0.88092   0.00000  Uiso   1.00
O674   O     0.25000   0.90387   0.78575   0.00000  Uiso   1.00
O675   O     0.25000   0.90387   0.88092   0.00000  Uiso   1.00
O676   O     0.25000   0.76280   0.78575   0.00000  Uiso   1.00
C677   C     0.25000   0.73992   0.83333   0.00000  Uiso   1.00
C678   C     0.25000   0.92675   0.83333   0.00000  Uiso   1.00
O679   O     0.18513   0.83333   0.88093   0.00000  Uiso   1.00
O680   O     0.31487   0.83333   0.78573   0.00000  Uiso   1.00
O681   O     0.31487   0.83333   0.88093   0.00000  Uiso   1.00
O682   O     0.18513   0.83333   0.78573   0.00000  Uiso   1.00
C683   C     0.16434   0.83334   0.83333   0.00000  Uiso   1.00
C684   C     0.33566   0.83333   0.83333   0.00000  Uiso   1.00
Cu685  Cu    0.25000   0.83333   0.88969   0.00000  Uiso   1.00
Cu686  Cu    0.25000   0.83333   0.77697   0.00000  Uiso   1.00
N687   N     0.25000   0.83333   0.69227   0.00000  Uiso   1.00
N688   N     0.25000   0.83333   0.97439   0.00000  Uiso   1.00
C689   C     0.40653   0.87718   0.83575   0.00000  Uiso   1.00
C690   C     0.09346   0.78950   0.83577   0.00000  Uiso   1.00
C691   C     0.40654   0.78950   0.83093   0.00000  Uiso   1.00
C692   C     0.09347   0.87718   0.83089   0.00000  Uiso   1.00
C693   C     0.38376   0.83334   0.83334   0.00000  Uiso   1.00
C694   C     0.11624   0.83334   0.83333   0.00000  Uiso   1.00
C695   C     0.45318   0.78932   0.83509   0.00000  Uiso   1.00
C696   C     0.04682   0.87737   0.83505   0.00000  Uiso   1.00
C697   C     0.45317   0.87737   0.83156   0.00000  Uiso   1.00
C698   C     0.04682   0.78932   0.83160   0.00000  Uiso   1.00
C699   C     0.47653   0.83334   0.83332   0.00000  Uiso   1.00
C700   C     0.02347   0.83335   0.83332   0.00000  Uiso   1.00
C701   C     0.47733   0.74643   0.83959   0.00000  Uiso   1.00
C702   C     0.02267   0.92026   0.83951   0.00000  Uiso   1.00
C703   C     0.47733   0.92026   0.82707   0.00000  Uiso   1.00
C704   C     0.02267   0.74643   0.82713   0.00000  Uiso   1.00
C705   C     0.25000   0.68834   0.83333   0.00000  Uiso   1.00
C706   C     0.25000   0.97832   0.83333   0.00000  Uiso   1.00
Cl707  Cl    0.45782   0.70178   0.88687   0.00000  Uiso   1.00
Cl708  Cl    0.04221   0.96496   0.88669   0.00000  Uiso   1.00
Cl709  Cl    0.45775   0.96503   0.77999   0.00000  Uiso   1.00
Cl710  Cl    0.04218   0.70179   0.77984   0.00000  Uiso   1.00
Br711  Br    0.37317   0.93493   0.85326   0.00000  Uiso   1.00
Br712  Br    0.12681   0.73172   0.85320   0.00000  Uiso   1.00
Br713  Br    0.37319   0.73172   0.81352   0.00000  Uiso   1.00
Br714  Br    0.12682   0.93494   0.81341   0.00000  Uiso   1.00
O715   O     0.75000   0.76280   0.88092   0.00000  Uiso   1.00
O716   O     0.75000   0.90387   0.78575   0.00000  Uiso   1.00
O717   O     0.75000   0.90387   0.88092   0.00000  Uiso   1.00
O718   O     0.75000   0.76280   0.78575   0.00000  Uiso   1.00
C719   C     0.75000   0.73992   0.83333   0.00000  Uiso   1.00
C720   C     0.75000   0.92675   0.83333   0.00000  Uiso   1.00
O721   O     0.68513   0.83333   0.88093   0.00000  Uiso   1.00
O722   O     0.81487   0.83333   0.78573   0.00000  Uiso   1.00
O723   O     0.81487   0.83333   0.88093   0.00000  Uiso   1.00
O724   O     0.68513   0.83333   0.78573   0.00000  Uiso   1.00
C725   C     0.66434   0.83334   0.83333   0.00000  Uiso   1.00
C726   C     0.83566   0.83333   0.83333   0.00000  Uiso   1.00
Cu727  Cu    0.75000   0.83333   0.88969   0.00000  Uiso   1.00
Cu728  Cu    0.75000   0.83333   0.77697   0.00000  Uiso   1.00
N729   N     0.75000   0.83333   0.69227   0.00000  Uiso   1.00
N730   N     0.75000   0.83333   0.97439   0.00000  Uiso   1.00
C731   C     0.90653   0.87718   0.83575   0.00000  Uiso   1.00
C732   C     0.59346   0.78950   0.83577   0.00000  Uiso   1.00
C733   C     0.90654   0.78950   0.83093   0.00000  Uiso   1.00
C734   C     0.59347   0.87718   0.83089   0.00000  Uiso   1.00
C735   C     0.88376   0.83334   0.83334   0.00000  Uiso   1.00
C736   C     0.61624   0.83334   0.83333   0.00000  Uiso   1.00
C737   C     0.95318   0.78932   0.83509   0.00000  Uiso   1.00
C738   C     0.54682   0.87737   0.83505   0.00000  Uiso   1.00
C739   C     0.95317   0.87737   0.83156   0.00000  Uiso   1.00
C740   C     0.54682   0.78932   0.83160   0.00000  Uiso   1.00
C741   C     0.97653   0.83334   0.83332   0.00000  Uiso   1.00
C742   C     0.52347   0.83335   0.83332   0.00000  Uiso   1.00
C743   C     0.97733   0.74643   0.83959   0.00000  Uiso   1.00
C744   C     0.52267   0.92026   0.83951   0.00000  Uiso   1.00
C745   C     0.97733   0.92026   0.82707   0.00000  Uiso   1.00
C746   C     0.52267   0.74643   0.82713   0.00000  Uiso   1.00
C747   C     0.75000   0.68834   0.83333   0.00000  Uiso   1.00
C748   C     0.75000   0.97832   0.83333   0.00000  Uiso   1.00
Cl749  Cl    0.95782   0.70178   0.88687   0.00000  Uiso   1.00
Cl750  Cl    0.54221   0.96496   0.88669   0.00000  Uiso   1.00
Cl751  Cl    0.95775   0.96503   0.77999   0.00000  Uiso   1.00
Cl752  Cl    0.54218   0.70179   0.77984   0.00000  Uiso   1.00
Br753  Br    0.87317   0.93493   0.85326   0.00000  Uiso   1.00
Br754  Br    0.62681   0.73172   0.85320   0.00000  Uiso   1.00
Br755  Br    0.87319   0.73172   0.81352   0.00000  Uiso   1.00
Br756  Br    0.62682   0.93494   0.81341   0.00000  Uiso   1.00
loop_
_geom_bond_atom_site_label_1
_geom_bond_atom_site_label_2
_geom_bond_distance
_geom_bond_site_symmetry_2
_ccdc_geom_bond_type
O1     C5      1.280   .     A
O1     Cu13    1.970   .     S
O2     C6      1.280   .     A
O2     Cu14    1.970   .     S
O3     Cu13    1.970   .     S
O3     C6      1.280   .     A
O4     Cu14    1.970   .     S
O4     C5      1.280   .     A
C5     C33     1.433   .     S
C6     C34     1.433   .     S
O7     C11     1.276   .     A
O7     Cu13    1.964   .     S
O8     C12     1.276   .     A
O8     Cu14    1.964   .     S
O9     C12     1.276   .     A
O9     Cu13    1.964   .     S
O10    C11     1.276   .     A
O10    Cu14    1.964   .     S
C11    C22     1.449   .     S
C12    C21     1.449   .     S
Cu13   Cu14    2.633   .     S
Cu13   N16     1.978   .     S
Cu14   N15     1.978   .     S
N15    N520    1.196   1_554 S
N16    N267    1.196   .     S
C17    C25     1.408   .     A
C17    Br39    1.937   .     S
C17    C21     1.399   .     A
C18    C22     1.399   .     A
C18    Br40    1.937   .     S
C18    C26     1.408   .     A
C19    C21     1.399   .     A
C19    C23     1.408   .     A
C19    Br41    1.937   .     S
C20    Br42    1.937   .     S
C20    C22     1.399   .     A
C20    C24     1.408   .     A
C23    C27     1.411   .     A
C23    C29     1.400   .     A
C24    C28     1.411   .     A
C24    C30     1.400   .     A
C25    C31     1.400   .     A
C25    C27     1.411   .     A
C26    C32     1.400   .     A
C26    C28     1.411   .     A
C27    C70     1.414   .     S
C28    C69     1.414   1_455 S
C29    Cl35    1.762   .     S
C29    C74     1.396   .     S
C30    Cl36    1.761   .     S
C30    C73     1.396   1_455 S
C31    Cl37    1.762   .     S
C31    C72     1.396   .     S
C32    Cl38    1.762   .     S
C32    C71     1.396   1_455 S
C33    C202    1.204   1_545 S
C34    C117    1.204   .     S
O43    C47     1.280   .     A
O43    Cu55    1.970   .     S
O44    C48     1.280   .     A
O44    Cu56    1.970   .     S
O45    Cu55    1.970   .     S
O45    C48     1.280   .     A
O46    Cu56    1.970   .     S
O46    C47     1.280   .     A
C47    C75     1.433   .     S
C48    C76     1.433   .     S
O49    C53     1.276   .     A
O49    Cu55    1.964   .     S
O50    C54     1.276   .     A
O50    Cu56    1.964   .     S
O51    C54     1.276   .     A
O51    Cu55    1.964   .     S
O52    C53     1.276   .     A
O52    Cu56    1.964   .     S
C53    C64     1.449   .     S
C54    C63     1.449   .     S
Cu55   Cu56    2.633   .     S
Cu55   N58     1.978   .     S
Cu56   N57     1.978   .     S
N57    N562    1.196   1_554 S
N58    N309    1.196   .     S
C59    C67     1.408   .     A
C59    Br81    1.937   .     S
C59    C63     1.399   .     A
C60    C64     1.399   .     A
C60    Br82    1.937   .     S
C60    C68     1.408   .     A
C61    C63     1.399   .     A
C61    C65     1.408   .     A
C61    Br83    1.937   .     S
C62    Br84    1.937   .     S
C62    C64     1.399   .     A
C62    C66     1.408   .     A
C65    C69     1.411   .     A
C65    C71     1.400   .     A
C66    C70     1.411   .     A
C66    C72     1.400   .     A
C67    C73     1.400   .     A
C67    C69     1.411   .     A
C68    C74     1.400   .     A
C68    C70     1.411   .     A
C69    C28     1.414   1_655 S
C71    Cl77    1.762   .     S
C71    C32     1.396   1_655 S
C72    Cl78    1.761   .     S
C73    Cl79    1.762   .     S
C73    C30     1.396   1_655 S
C74    Cl80    1.762   .     S
C75    C244    1.204   1_545 S
C76    C159    1.204   .     S
O85    C89     1.280   .     A
O85    Cu97    1.970   .     S
O86    C90     1.280   .     A
O86    Cu98    1.970   .     S
O87    Cu97    1.970   .     S
O87    C90     1.280   .     A
O88    Cu98    1.970   .     S
O88    C89     1.280   .     A
C89    C117    1.433   .     S
C90    C118    1.433   .     S
O91    C95     1.276   .     A
O91    Cu97    1.964   .     S
O92    C96     1.276   .     A
O92    Cu98    1.964   .     S
O93    C96     1.276   .     A
O93    Cu97    1.964   .     S
O94    C95     1.276   .     A
O94    Cu98    1.964   .     S
C95    C106    1.449   .     S
C96    C105    1.449   .     S
Cu97   Cu98    2.633   .     S
Cu97   N100    1.978   .     S
Cu98   N99     1.978   .     S
N99    N604    1.196   1_554 S
N100   N351    1.196   .     S
C101   C109    1.408   .     A
C101   Br123   1.937   .     S
C101   C105    1.399   .     A
C102   C106    1.399   .     A
C102   Br124   1.937   .     S
C102   C110    1.408   .     A
C103   C105    1.399   .     A
C103   C107    1.408   .     A
C103   Br125   1.937   .     S
C104   Br126   1.937   .     S
C104   C106    1.399   .     A
C104   C108    1.408   .     A
C107   C111    1.411   .     A
C107   C113    1.400   .     A
C108   C112    1.411   .     A
C108   C114    1.400   .     A
C109   C115    1.400   .     A
C109   C111    1.411   .     A
C110   C116    1.400   .     A
C110   C112    1.411   .     A
C111   C154    1.414   .     S
C112   C153    1.414   1_455 S
C113   Cl119   1.762   .     S
C113   C158    1.396   .     S
C114   Cl120   1.761   .     S
C114   C157    1.396   1_455 S
C115   Cl121   1.762   .     S
C115   C156    1.396   .     S
C116   Cl122   1.762   .     S
C116   C155    1.396   1_455 S
C118   C201    1.204   .     S
O127   C131    1.280   .     A
O127   Cu139   1.970   .     S
O128   C132    1.280   .     A
O128   Cu140   1.970   .     S
O129   Cu139   1.970   .     S
O129   C132    1.280   .     A
O130   Cu140   1.970   .     S
O130   C131    1.280   .     A
C131   C159    1.433   .     S
C132   C160    1.433   .     S
O133   C137    1.276   .     A
O133   Cu139   1.964   .     S
O134   C138    1.276   .     A
O134   Cu140   1.964   .     S
O135   C138    1.276   .     A
O135   Cu139   1.964   .     S
O136   C137    1.276   .     A
O136   Cu140   1.964   .     S
C137   C148    1.449   .     S
C138   C147    1.449   .     S
Cu139  Cu140   2.633   .     S
Cu139  N142    1.978   .     S
Cu140  N141    1.978   .     S
N141   N646    1.196   1_554 S
N142   N393    1.196   .     S
C143   C151    1.408   .     A
C143   Br165   1.937   .     S
C143   C147    1.399   .     A
C144   C148    1.399   .     A
C144   Br166   1.937   .     S
C144   C152    1.408   .     A
C145   C147    1.399   .     A
C145   C149    1.408   .     A
C145   Br167   1.937   .     S
C146   Br168   1.937   .     S
C146   C148    1.399   .     A
C146   C150    1.408   .     A
C149   C153    1.411   .     A
C149   C155    1.400   .     A
C150   C154    1.411   .     A
C150   C156    1.400   .     A
C151   C157    1.400   .     A
C151   C153    1.411   .     A
C152   C158    1.400   .     A
C152   C154    1.411   .     A
C153   C112    1.414   1_655 S
C155   Cl161   1.762   .     S
C155   C116    1.396   1_655 S
C156   Cl162   1.761   .     S
C157   Cl163   1.762   .     S
C157   C114    1.396   1_655 S
C158   Cl164   1.762   .     S
C160   C243    1.204   .     S
O169   C173    1.280   .     A
O169   Cu181   1.970   .     S
O170   C174    1.280   .     A
O170   Cu182   1.970   .     S
O171   Cu181   1.970   .     S
O171   C174    1.280   .     A
O172   Cu182   1.970   .     S
O172   C173    1.280   .     A
C173   C201    1.433   .     S
C174   C202    1.433   .     S
O175   C179    1.276   .     A
O175   Cu181   1.964   .     S
O176   C180    1.276   .     A
O176   Cu182   1.964   .     S
O177   C180    1.276   .     A
O177   Cu181   1.964   .     S
O178   C179    1.276   .     A
O178   Cu182   1.964   .     S
C179   C190    1.449   .     S
C180   C189    1.449   .     S
Cu181  Cu182   2.633   .     S
Cu181  N184    1.978   .     S
Cu182  N183    1.978   .     S
N183   N688    1.196   1_554 S
N184   N435    1.196   .     S
C185   C193    1.408   .     A
C185   Br207   1.937   .     S
C185   C189    1.399   .     A
C186   C190    1.399   .     A
C186   Br208   1.937   .     S
C186   C194    1.408   .     A
C187   C189    1.399   .     A
C187   C191    1.408   .     A
C187   Br209   1.937   .     S
C188   Br210   1.937   .     S
C188   C190    1.399   .     A
C188   C192    1.408   .     A
C191   C195    1.411   .     A
C191   C197    1.400   .     A
C192   C196    1.411   .     A
C192   C198    1.400   .     A
C193   C199    1.400   .     A
C193   C195    1.411   .     A
C194   C200    1.400   .     A
C194   C196    1.411   .     A
C195   C238    1.414   .     S
C196   C237    1.414   1_455 S
C197   Cl203   1.762   .     S
C197   C242    1.396   .     S
C198   Cl204   1.761   .     S
C198   C241    1.396   1_455 S
C199   Cl205   1.762   .     S
C199   C240    1.396   .     S
C200   Cl206   1.762   .     S
C200   C239    1.396   1_455 S
C202   C33     1.204   1_565 S
O211   C215    1.280   .     A
O211   Cu223   1.970   .     S
O212   C216    1.280   .     A
O212   Cu224   1.970   .     S
O213   Cu223   1.970   .     S
O213   C216    1.280   .     A
O214   Cu224   1.970   .     S
O214   C215    1.280   .     A
C215   C243    1.433   .     S
C216   C244    1.433   .     S
O217   C221    1.276   .     A
O217   Cu223   1.964   .     S
O218   C222    1.276   .     A
O218   Cu224   1.964   .     S
O219   C222    1.276   .     A
O219   Cu223   1.964   .     S
O220   C221    1.276   .     A
O220   Cu224   1.964   .     S
C221   C232    1.449   .     S
C222   C231    1.449   .     S
Cu223  Cu224   2.633   .     S
Cu223  N226    1.978   .     S
Cu224  N225    1.978   .     S
N225   N730    1.196   1_554 S
N226   N477    1.196   .     S
C227   C235    1.408   .     A
C227   Br249   1.937   .     S
C227   C231    1.399   .     A
C228   C232    1.399   .     A
C228   Br250   1.937   .     S
C228   C236    1.408   .     A
C229   C231    1.399   .     A
C229   C233    1.408   .     A
C229   Br251   1.937   .     S
C230   Br252   1.937   .     S
C230   C232    1.399   .     A
C230   C234    1.408   .     A
C233   C237    1.411   .     A
C233   C239    1.400   .     A
C234   C238    1.411   .     A
C234   C240    1.400   .     A
C235   C241    1.400   .     A
C235   C237    1.411   .     A
C236   C242    1.400   .     A
C236   C238    1.411   .     A
C237   C196    1.414   1_655 S
C239   Cl245   1.762   .     S
C239   C200    1.396   1_655 S
C240   Cl246   1.761   .     S
C241   Cl247   1.762   .     S
C241   C198    1.396   1_655 S
C242   Cl248   1.762   .     S
C244   C75     1.204   1_565 S
O253   C257    1.280   .     A
O253   Cu265   1.970   .     S
O254   C258    1.280   .     A
O254   Cu266   1.970   .     S
O255   Cu265   1.970   .     S
O255   C258    1.280   .     A
O256   Cu266   1.970   .     S
O256   C257    1.280   .     A
C257   C285    1.433   .     S
C258   C286    1.433   .     S
O259   C263    1.276   .     A
O259   Cu265   1.964   .     S
O260   C264    1.276   .     A
O260   Cu266   1.964   .     S
O261   C264    1.276   .     A
O261   Cu265   1.964   .     S
O262   C263    1.276   .     A
O262   Cu266   1.964   .     S
C263   C274    1.449   .     S
C264   C273    1.449   .     S
Cu265  Cu266   2.633   .     S
Cu265  N268    1.978   .     S
Cu266  N267    1.978   .     S
N268   N519    1.196   .     S
C269   C277    1.408   .     A
C269   Br291   1.937   .     S
C269   C273    1.399   .     A
C270   C274    1.399   .     A
C270   Br292   1.937   .     S
C270   C278    1.408   .     A
C271   C273    1.399   .     A
C271   C275    1.408   .     A
C271   Br293   1.937   .     S
C272   Br294   1.937   .     S
C272   C274    1.399   .     A
C272   C276    1.408   .     A
C275   C279    1.411   .     A
C275   C281    1.400   .     A
C276   C280    1.411   .     A
C276   C282    1.400   .     A
C277   C283    1.400   .     A
C277   C279    1.411   .     A
C278   C284    1.400   .     A
C278   C280    1.411   .     A
C279   C322    1.414   .     S
C280   C321    1.414   1_455 S
C281   Cl287   1.762   .     S
C281   C326    1.396   .     S
C282   Cl288   1.761   .     S
C282   C325    1.396   1_455 S
C283   Cl289   1.762   .     S
C283   C324    1.396   .     S
C284   Cl290   1.762   .     S
C284   C323    1.396   1_455 S
C285   C454    1.204   1_545 S
C286   C369    1.204   .     S
O295   C299    1.280   .     A
O295   Cu307   1.970   .     S
O296   C300    1.280   .     A
O296   Cu308   1.970   .     S
O297   Cu307   1.970   .     S
O297   C300    1.280   .     A
O298   Cu308   1.970   .     S
O298   C299    1.280   .     A
C299   C327    1.433   .     S
C300   C328    1.433   .     S
O301   C305    1.276   .     A
O301   Cu307   1.964   .     S
O302   C306    1.276   .     A
O302   Cu308   1.964   .     S
O303   C306    1.276   .     A
O303   Cu307   1.964   .     S
O304   C305    1.276   .     A
O304   Cu308   1.964   .     S
C305   C316    1.449   .     S
C306   C315    1.449   .     S
Cu307  Cu308   2.633   .     S
Cu307  N310    1.978   .     S
Cu308  N309    1.978   .     S
N310   N561    1.196   .     S
C311   C319    1.408   .     A
C311   Br333   1.937   .     S
C311   C315    1.399   .     A
C312   C316    1.399   .     A
C312   Br334   1.937   .     S
C312   C320    1.408   .     A
C313   C315    1.399   .     A
C313   C317    1.408   .     A
C313   Br335   1.937   .     S
C314   Br336   1.937   .     S
C314   C316    1.399   .     A
C314   C318    1.408   .     A
C317   C321    1.411   .     A
C317   C323    1.400   .     A
C318   C322    1.411   .     A
C318   C324    1.400   .     A
C319   C325    1.400   .     A
C319   C321    1.411   .     A
C320   C326    1.400   .     A
C320   C322    1.411   .     A
C321   C280    1.414   1_655 S
C323   Cl329   1.762   .     S
C323   C284    1.396   1_655 S
C324   Cl330   1.761   .     S
C325   Cl331   1.762   .     S
C325   C282    1.396   1_655 S
C326   Cl332   1.762   .     S
C327   C496    1.204   1_545 S
C328   C411    1.204   .     S
O337   C341    1.280   .     A
O337   Cu349   1.970   .     S
O338   C342    1.280   .     A
O338   Cu350   1.970   .     S
O339   Cu349   1.970   .     S
O339   C342    1.280   .     A
O340   Cu350   1.970   .     S
O340   C341    1.280   .     A
C341   C369    1.433   .     S
C342   C370    1.433   .     S
O343   C347    1.276   .     A
O343   Cu349   1.964   .     S
O344   C348    1.276   .     A
O344   Cu350   1.964   .     S
O345   C348    1.276   .     A
O345   Cu349   1.964   .     S
O346   C347    1.276   .     A
O346   Cu350   1.964   .     S
C347   C358    1.449   .     S
C348   C357    1.449   .     S
Cu349  Cu350   2.633   .     S
Cu349  N352    1.978   .     S
Cu350  N351    1.978   .     S
N352   N603    1.196   .     S
C353   C361    1.408   .     A
C353   Br375   1.937   .     S
C353   C357    1.399   .     A
C354   C358    1.399   .     A
C354   Br376   1.937   .     S
C354   C362    1.408   .     A
C355   C357    1.399   .     A
C355   C359    1.408   .     A
C355   Br377   1.937   .     S
C356   Br378   1.937   .     S
C356   C358    1.399   .     A
C356   C360    1.408   .     A
C359   C363    1.411   .     A
C359   C365    1.400   .     A
C360   C364    1.411   .     A
C360   C366    1.400   .     A
C361   C367    1.400   .     A
C361   C363    1.411   .     A
C362   C368    1.400   .     A
C362   C364    1.411   .     A
C363   C406    1.414   .     S
C364   C405    1.414   1_455 S
C365   Cl371   1.762   .     S
C365   C410    1.396   .     S
C366   Cl372   1.761   .     S
C366   C409    1.396   1_455 S
C367   Cl373   1.762   .     S
C367   C408    1.396   .     S
C368   Cl374   1.762   .     S
C368   C407    1.396   1_455 S
C370   C453    1.204   .     S
O379   C383    1.280   .     A
O379   Cu391   1.970   .     S
O380   C384    1.280   .     A
O380   Cu392   1.970   .     S
O381   Cu391   1.970   .     S
O381   C384    1.280   .     A
O382   Cu392   1.970   .     S
O382   C383    1.280   .     A
C383   C411    1.433   .     S
C384   C412    1.433   .     S
O385   C389    1.276   .     A
O385   Cu391   1.964   .     S
O386   C390    1.276   .     A
O386   Cu392   1.964   .     S
O387   C390    1.276   .     A
O387   Cu391   1.964   .     S
O388   C389    1.276   .     A
O388   Cu392   1.964   .     S
C389   C400    1.449   .     S
C390   C399    1.449   .     S
Cu391  Cu392   2.633   .     S
Cu391  N394    1.978   .     S
Cu392  N393    1.978   .     S
N394   N645    1.196   .     S
C395   C403    1.408   .     A
C395   Br417   1.937   .     S
C395   C399    1.399   .     A
C396   C400    1.399   .     A
C396   Br418   1.937   .     S
C396   C404    1.408   .     A
C397   C399    1.399   .     A
C397   C401    1.408   .     A
C397   Br419   1.937   .     S
C398   Br420   1.937   .     S
C398   C400    1.399   .     A
C398   C402    1.408   .     A
C401   C405    1.411   .     A
C401   C407    1.400   .     A
C402   C406    1.411   .     A
C402   C408    1.400   .     A
C403   C409    1.400   .     A
C403   C405    1.411   .     A
C404   C410    1.400   .     A
C404   C406    1.411   .     A
C405   C364    1.414   1_655 S
C407   Cl413   1.762   .     S
C407   C368    1.396   1_655 S
C408   Cl414   1.761   .     S
C409   Cl415   1.762   .     S
C409   C366    1.396   1_655 S
C410   Cl416   1.762   .     S
C412   C495    1.204   .     S
O421   C425    1.280   .     A
O421   Cu433   1.970   .     S
O422   C426    1.280   .     A
O422   Cu434   1.970   .     S
O423   Cu433   1.970   .     S
O423   C426    1.280   .     A
O424   Cu434   1.970   .     S
O424   C425    1.280   .     A
C425   C453    1.433   .     S
C426   C454    1.433   .     S
O427   C431    1.276   .     A
O427   Cu433   1.964   .     S
O428   C432    1.276   .     A
O428   Cu434   1.964   .     S
O429   C432    1.276   .     A
O429   Cu433   1.964   .     S
O430   C431    1.276   .     A
O430   Cu434   1.964   .     S
C431   C442    1.449   .     S
C432   C441    1.449   .     S
Cu433  Cu434   2.633   .     S
Cu433  N436    1.978   .     S
Cu434  N435    1.978   .     S
N436   N687    1.196   .     S
C437   C445    1.408   .     A
C437   Br459   1.937   .     S
C437   C441    1.399   .     A
C438   C442    1.399   .     A
C438   Br460   1.937   .     S
C438   C446    1.408   .     A
C439   C441    1.399   .     A
C439   C443    1.408   .     A
C439   Br461   1.937   .     S
C440   Br462   1.937   .     S
C440   C442    1.399   .     A
C440   C444    1.408   .     A
C443   C447    1.411   .     A
C443   C449    1.400   .     A
C444   C448    1.411   .     A
C444   C450    1.400   .     A
C445   C451    1.400   .     A
C445   C447    1.411   .     A
C446   C452    1.400   .     A
C446   C448    1.411   .     A
C447   C490    1.414   .     S
C448   C489    1.414   1_455 S
C449   Cl455   1.762   .     S
C449   C494    1.396   .     S
C450   Cl456   1.761   .     S
C450   C493    1.396   1_455 S
C451   Cl457   1.762   .     S
C451   C492    1.396   .     S
C452   Cl458   1.762   .     S
C452   C491    1.396   1_455 S
C454   C285    1.204   1_565 S
O463   C467    1.280   .     A
O463   Cu475   1.970   .     S
O464   C468    1.280   .     A
O464   Cu476   1.970   .     S
O465   Cu475   1.970   .     S
O465   C468    1.280   .     A
O466   Cu476   1.970   .     S
O466   C467    1.280   .     A
C467   C495    1.433   .     S
C468   C496    1.433   .     S
O469   C473    1.276   .     A
O469   Cu475   1.964   .     S
O470   C474    1.276   .     A
O470   Cu476   1.964   .     S
O471   C474    1.276   .     A
O471   Cu475   1.964   .     S
O472   C473    1.276   .     A
O472   Cu476   1.964   .     S
C473   C484    1.449   .     S
C474   C483    1.449   .     S
Cu475  Cu476   2.633   .     S
Cu475  N478    1.978   .     S
Cu476  N477    1.978   .     S
N478   N729    1.196   .     S
C479   C487    1.408   .     A
C479   Br501   1.937   .     S
C479   C483    1.399   .     A
C480   C484    1.399   .     A
C480   Br502   1.937   .     S
C480   C488    1.408   .     A
C481   C483    1.399   .     A
C481   C485    1.408   .     A
C481   Br503   1.937   .     S
C482   Br504   1.937   .     S
C482   C484    1.399   .     A
C482   C486    1.408   .     A
C485   C489    1.411   .     A
C485   C491    1.400   .     A
C486   C490    1.411   .     A
C486   C492    1.400   .     A
C487   C493    1.400   .     A
C487   C489    1.411   .     A
C488   C494    1.400   .     A
C488   C490    1.411   .     A
C489   C448    1.414   1_655 S
C491   Cl497   1.762   .     S
C491   C452    1.396   1_655 S
C492   Cl498   1.761   .     S
C493   Cl499   1.762   .     S
C493   C450    1.396   1_655 S
C494   Cl500   1.762   .     S
C496   C327    1.204   1_565 S
O505   C509    1.280   .     A
O505   Cu517   1.970   .     S
O506   C510    1.280   .     A
O506   Cu518   1.970   .     S
O507   Cu517   1.970   .     S
O507   C510    1.280   .     A
O508   Cu518   1.970   .     S
O508   C509    1.280   .     A
C509   C537    1.433   .     S
C510   C538    1.433   .     S
O511   C515    1.276   .     A
O511   Cu517   1.964   .     S
O512   C516    1.276   .     A
O512   Cu518   1.964   .     S
O513   C516    1.276   .     A
O513   Cu517   1.964   .     S
O514   C515    1.276   .     A
O514   Cu518   1.964   .     S
C515   C526    1.449   .     S
C516   C525    1.449   .     S
Cu517  Cu518   2.633   .     S
Cu517  N520    1.978   .     S
Cu518  N519    1.978   .     S
N520   N15     1.196   1_556 S
C521   C529    1.408   .     A
C521   Br543   1.937   .     S
C521   C525    1.399   .     A
C522   C526    1.399   .     A
C522   Br544   1.937   .     S
C522   C530    1.408   .     A
C523   C525    1.399   .     A
C523   C527    1.408   .     A
C523   Br545   1.937   .     S
C524   Br546   1.937   .     S
C524   C526    1.399   .     A
C524   C528    1.408   .     A
C527   C531    1.411   .     A
C527   C533    1.400   .     A
C528   C532    1.411   .     A
C528   C534    1.400   .     A
C529   C535    1.400   .     A
C529   C531    1.411   .     A
C530   C536    1.400   .     A
C530   C532    1.411   .     A
C531   C574    1.414   .     S
C532   C573    1.414   1_455 S
C533   Cl539   1.762   .     S
C533   C578    1.396   .     S
C534   Cl540   1.761   .     S
C534   C577    1.396   1_455 S
C535   Cl541   1.762   .     S
C535   C576    1.396   .     S
C536   Cl542   1.762   .     S
C536   C575    1.396   1_455 S
C537   C706    1.204   1_545 S
C538   C621    1.204   .     S
O547   C551    1.280   .     A
O547   Cu559   1.970   .     S
O548   C552    1.280   .     A
O548   Cu560   1.970   .     S
O549   Cu559   1.970   .     S
O549   C552    1.280   .     A
O550   Cu560   1.970   .     S
O550   C551    1.280   .     A
C551   C579    1.433   .     S
C552   C580    1.433   .     S
O553   C557    1.276   .     A
O553   Cu559   1.964   .     S
O554   C558    1.276   .     A
O554   Cu560   1.964   .     S
O555   C558    1.276   .     A
O555   Cu559   1.964   .     S
O556   C557    1.276   .     A
O556   Cu560   1.964   .     S
C557   C568    1.449   .     S
C558   C567    1.449   .     S
Cu559  Cu560   2.633   .     S
Cu559  N562    1.978   .     S
Cu560  N561    1.978   .     S
N562   N57     1.196   1_556 S
C563   C571    1.408   .     A
C563   Br585   1.937   .     S
C563   C567    1.399   .     A
C564   C568    1.399   .     A
C564   Br586   1.937   .     S
C564   C572    1.408   .     A
C565   C567    1.399   .     A
C565   C569    1.408   .     A
C565   Br587   1.937   .     S
C566   Br588   1.937   .     S
C566   C568    1.399   .     A
C566   C570    1.408   .     A
C569   C573    1.411   .     A
C569   C575    1.400   .     A
C570   C574    1.411   .     A
C570   C576    1.400   .     A
C571   C577    1.400   .     A
C571   C573    1.411   .     A
C572   C578    1.400   .     A
C572   C574    1.411   .     A
C573   C532    1.414   1_655 S
C575   Cl581   1.762   .     S
C575   C536    1.396   1_655 S
C576   Cl582   1.761   .     S
C577   Cl583   1.762   .     S
C577   C534    1.396   1_655 S
C578   Cl584   1.762   .     S
C579   C748    1.204   1_545 S
C580   C663    1.204   .     S
O589   C593    1.280   .     A
O589   Cu601   1.970   .     S
O590   C594    1.280   .     A
O590   Cu602   1.970   .     S
O591   Cu601   1.970   .     S
O591   C594    1.280   .     A
O592   Cu602   1.970   .     S
O592   C593    1.280   .     A
C593   C621    1.433   .     S
C594   C622    1.433   .     S
O595   C599    1.276   .     A
O595   Cu601   1.964   .     S
O596   C600    1.276   .     A
O596   Cu602   1.964   .     S
O597   C600    1.276   .     A
O597   Cu601   1.964   .     S
O598   C599    1.276   .     A
O598   Cu602   1.964   .     S
C599   C610    1.449   .     S
C600   C609    1.449   .     S
Cu601  Cu602   2.633   .     S
Cu601  N604    1.978   .     S
Cu602  N603    1.978   .     S
N604   N99     1.196   1_556 S
C605   C613    1.408   .     A
C605   Br627   1.937   .     S
C605   C609    1.399   .     A
C606   C610    1.399   .     A
C606   Br628   1.937   .     S
C606   C614    1.408   .     A
C607   C609    1.399   .     A
C607   C611    1.408   .     A
C607   Br629   1.937   .     S
C608   Br630   1.937   .     S
C608   C610    1.399   .     A
C608   C612    1.408   .     A
C611   C615    1.411   .     A
C611   C617    1.400   .     A
C612   C616    1.411   .     A
C612   C618    1.400   .     A
C613   C619    1.400   .     A
C613   C615    1.411   .     A
C614   C620    1.400   .     A
C614   C616    1.411   .     A
C615   C658    1.414   .     S
C616   C657    1.414   1_455 S
C617   Cl623   1.762   .     S
C617   C662    1.396   .     S
C618   Cl624   1.761   .     S
C618   C661    1.396   1_455 S
C619   Cl625   1.762   .     S
C619   C660    1.396   .     S
C620   Cl626   1.762   .     S
C620   C659    1.396   1_455 S
C622   C705    1.204   .     S
O631   C635    1.280   .     A
O631   Cu643   1.970   .     S
O632   C636    1.280   .     A
O632   Cu644   1.970   .     S
O633   Cu643   1.970   .     S
O633   C636    1.280   .     A
O634   Cu644   1.970   .     S
O634   C635    1.280   .     A
C635   C663    1.433   .     S
C636   C664    1.433   .     S
O637   C641    1.276   .     A
O637   Cu643   1.964   .     S
O638   C642    1.276   .     A
O638   Cu644   1.964   .     S
O639   C642    1.276   .     A
O639   Cu643   1.964   .     S
O640   C641    1.276   .     A
O640   Cu644   1.964   .     S
C641   C652    1.449   .     S
C642   C651    1.449   .     S
Cu643  Cu644   2.633   .     S
Cu643  N646    1.978   .     S
Cu644  N645    1.978   .     S
N646   N141    1.196   1_556 S
C647   C655    1.408   .     A
C647   Br669   1.937   .     S
C647   C651    1.399   .     A
C648   C652    1.399   .     A
C648   Br670   1.937   .     S
C648   C656    1.408   .     A
C649   C651    1.399   .     A
C649   C653    1.408   .     A
C649   Br671   1.937   .     S
C650   Br672   1.937   .     S
C650   C652    1.399   .     A
C650   C654    1.408   .     A
C653   C657    1.411   .     A
C653   C659    1.400   .     A
C654   C658    1.411   .     A
C654   C660    1.400   .     A
C655   C661    1.400   .     A
C655   C657    1.411   .     A
C656   C662    1.400   .     A
C656   C658    1.411   .     A
C657   C616    1.414   1_655 S
C659   Cl665   1.762   .     S
C659   C620    1.396   1_655 S
C660   Cl666   1.761   .     S
C661   Cl667   1.762   .     S
C661   C618    1.396   1_655 S
C662   Cl668   1.762   .     S
C664   C747    1.204   .     S
O673   C677    1.280   .     A
O673   Cu685   1.970   .     S
O674   C678    1.280   .     A
O674   Cu686   1.970   .     S
O675   Cu685   1.970   .     S
O675   C678    1.280   .     A
O676   Cu686   1.970   .     S
O676   C677    1.280   .     A
C677   C705    1.433   .     S
C678   C706    1.433   .     S
O679   C683    1.276   .     A
O679   Cu685   1.964   .     S
O680   C684    1.276   .     A
O680   Cu686   1.964   .     S
O681   C684    1.276   .     A
O681   Cu685   1.964   .     S
O682   C683    1.276   .     A
O682   Cu686   1.964   .     S
C683   C694    1.449   .     S
C684   C693    1.449   .     S
Cu685  Cu686   2.633   .     S
Cu685  N688    1.978   .     S
Cu686  N687    1.978   .     S
N688   N183    1.196   1_556 S
C689   C697    1.408   .     A
C689   Br711   1.937   .     S
C689   C693    1.399   .     A
C690   C694    1.399   .     A
C690   Br712   1.937   .     S
C690   C698    1.408   .     A
C691   C693    1.399   .     A
C691   C695    1.408   .     A
C691   Br713   1.937   .     S
C692   Br714   1.937   .     S
C692   C694    1.399   .     A
C692   C696    1.408   .     A
C695   C699    1.411   .     A
C695   C701    1.400   .     A
C696   C700    1.411   .     A
C696   C702    1.400   .     A
C697   C703    1.400   .     A
C697   C699    1.411   .     A
C698   C704    1.400   .     A
C698   C700    1.411   .     A
C699   C742    1.414   .     S
C700   C741    1.414   1_455 S
C701   Cl707   1.762   .     S
C701   C746    1.396   .     S
C702   Cl708   1.761   .     S
C702   C745    1.396   1_455 S
C703   Cl709   1.762   .     S
C703   C744    1.396   .     S
C704   Cl710   1.762   .     S
C704   C743    1.396   1_455 S
C706   C537    1.204   1_565 S
O715   C719    1.280   .     A
O715   Cu727   1.970   .     S
O716   C720    1.280   .     A
O716   Cu728   1.970   .     S
O717   Cu727   1.970   .     S
O717   C720    1.280   .     A
O718   Cu728   1.970   .     S
O718   C719    1.280   .     A
C719   C747    1.433   .     S
C720   C748    1.433   .     S
O721   C725    1.276   .     A
O721   Cu727   1.964   .     S
O722   C726    1.276   .     A
O722   Cu728   1.964   .     S
O723   C726    1.276   .     A
O723   Cu727   1.964   .     S
O724   C725    1.276   .     A
O724   Cu728   1.964   .     S
C725   C736    1.449   .     S
C726   C735    1.449   .     S
Cu727  Cu728   2.633   .     S
Cu727  N730    1.978   .     S
Cu728  N729    1.978   .     S
N730   N225    1.196   1_556 S
C731   C739    1.408   .     A
C731   Br753   1.937   .     S
C731   C735    1.399   .     A
C732   C736    1.399   .     A
C732   Br754   1.937   .     S
C732   C740    1.408   .     A
C733   C735    1.399   .     A
C733   C737    1.408   .     A
C733   Br755   1.937   .     S
C734   Br756   1.937   .     S
C734   C736    1.399   .     A
C734   C738    1.408   .     A
C737   C741    1.411   .     A
C737   C743    1.400   .     A
C738   C742    1.411   .     A
C738   C744    1.400   .     A
C739   C745    1.400   .     A
C739   C741    1.411   .     A
C740   C746    1.400   .     A
C740   C742    1.411   .     A
C741   C700    1.414   1_655 S
C743   Cl749   1.762   .     S
C743   C704    1.396   1_655 S
C744   Cl750   1.761   .     S
C745   Cl751   1.762   .     S
C745   C702    1.396   1_655 S
C746   Cl752   1.762   .     S
C748   C579    1.204   1_565 S
