data_str_m3_o10_o16_pcu_sym.173
_audit_creation_date              2020-01-03
_audit_creation_method            'Materials Studio'
_symmetry_space_group_name_H-M    'P1'
_symmetry_Int_Tables_number       1
_symmetry_cell_setting            triclinic
loop_
_symmetry_equiv_pos_as_xyz
  x,y,z
_cell_length_a                    23.4805
_cell_length_b                    25.7065
_cell_length_c                    24.2264
_cell_angle_alpha                 92.3256
_cell_angle_beta                  101.2454
_cell_angle_gamma                 94.1861
loop_
_atom_site_label
_atom_site_type_symbol
_atom_site_fract_x
_atom_site_fract_y
_atom_site_fract_z
_atom_site_U_iso_or_equiv
_atom_site_adp_type
_atom_site_occupancy
C1     C     0.01493   0.26492   0.24880   0.00000  Uiso   1.00
C2     C     0.13178   0.15942   0.49492   0.00000  Uiso   1.00
C3     C     0.10339   0.14338   0.43979   0.00000  Uiso   1.00
C4     C     0.18936   0.14611   0.01320   0.00000  Uiso   1.00
C5     C     0.21416   0.10959   0.48094   0.00000  Uiso   1.00
C6     C     0.18130   0.08799   0.42941   0.00000  Uiso   1.00
C7     C     0.12656   0.10486   0.40936   0.00000  Uiso   1.00
C8     C     0.22343   0.16959   0.06242   0.00000  Uiso   1.00
C9     C     0.30121   0.11512   0.05450   0.00000  Uiso   1.00
C10    C     0.05302   0.16731   0.41597   0.00000  Uiso   1.00
C11    C     0.02277   0.31952   0.24836   0.00000  Uiso   1.00
C12    C     0.03535   0.16779   0.35513   0.00000  Uiso   1.00
C13    C     0.31090   0.01389   0.25275   0.00000  Uiso   1.00
C14    C     0.31852   0.06843   0.25159   0.00000  Uiso   1.00
C15    C     0.29740   0.16260   0.14484   0.00000  Uiso   1.00
C16    C     0.27084   0.09529   0.00174   0.00000  Uiso   1.00
C17    C     0.27643   0.15150   0.08510   0.00000  Uiso   1.00
C18    C     0.02438   0.19723   0.45007   0.00000  Uiso   1.00
C19    C     0.04791   0.20641   0.00702   0.00000  Uiso   1.00
C20    C     0.10163   0.18857   0.02938   0.00000  Uiso   1.00
H21    H     0.00936   0.10065   0.07217   0.00000  Uiso   1.00
H22    H     0.26835   0.33004   0.25698   0.00000  Uiso   1.00
H23    H     0.15656   0.12503   0.20818   0.00000  Uiso   1.00
H24    H     0.17678   0.20828   0.29184   0.00000  Uiso   1.00
H25    H     0.29110   0.06742   0.47878   0.00000  Uiso   1.00
H26    H     0.20854   0.20088   0.08560   0.00000  Uiso   1.00
H27    H     0.31817   0.21489   0.43238   0.00000  Uiso   1.00
H28    H     0.11784   0.19703   0.07390   0.00000  Uiso   1.00
H29    H     0.02548   0.22897   0.03353   0.00000  Uiso   1.00
H30    H     0.10201   0.08709   0.36978   0.00000  Uiso   1.00
H31    H     0.06536   0.00339   0.24426   0.00000  Uiso   1.00
N32    N     0.14493   0.15223   0.23543   0.00000  Uiso   1.00
N33    N     0.18840   0.18110   0.26458   0.00000  Uiso   1.00
O34    O     0.29769   0.24629   0.25358   0.00000  Uiso   1.00
O35    O     0.05742   0.23704   0.24424   0.00000  Uiso   1.00
O36    O     0.31490   0.17358   0.33380   0.00000  Uiso   1.00
O37    O     0.07463   0.16433   0.32446   0.00000  Uiso   1.00
O38    O     0.27592   0.09629   0.25577   0.00000  Uiso   1.00
O39    O     0.03565   0.08704   0.24643   0.00000  Uiso   1.00
O40    O     0.25870   0.16901   0.17554   0.00000  Uiso   1.00
O41    O     0.01843   0.15976   0.16620   0.00000  Uiso   1.00
Zn42   Zn    0.27119   0.17284   0.25624   0.00000  Uiso   1.00
Zn43   Zn    0.06214   0.16049   0.24377   0.00000  Uiso   1.00
Br44   Br    0.20924   0.03696   0.38315   0.00000  Uiso   1.00
C45    C     0.34827   0.26492   0.24880   0.00000  Uiso   1.00
C46    C     0.46512   0.15942   0.49492   0.00000  Uiso   1.00
C47    C     0.43672   0.14338   0.43979   0.00000  Uiso   1.00
C48    C     0.52269   0.14611   0.01320   0.00000  Uiso   1.00
C49    C     0.54750   0.10959   0.48094   0.00000  Uiso   1.00
C50    C     0.51463   0.08799   0.42941   0.00000  Uiso   1.00
C51    C     0.45989   0.10486   0.40936   0.00000  Uiso   1.00
C52    C     0.55676   0.16959   0.06242   0.00000  Uiso   1.00
C53    C     0.63455   0.11512   0.05450   0.00000  Uiso   1.00
C54    C     0.38636   0.16731   0.41597   0.00000  Uiso   1.00
C55    C     0.35610   0.31952   0.24836   0.00000  Uiso   1.00
C56    C     0.36868   0.16779   0.35513   0.00000  Uiso   1.00
C57    C     0.64424   0.01389   0.25275   0.00000  Uiso   1.00
C58    C     0.65186   0.06843   0.25159   0.00000  Uiso   1.00
C59    C     0.63073   0.16260   0.14484   0.00000  Uiso   1.00
C60    C     0.60418   0.09529   0.00174   0.00000  Uiso   1.00
C61    C     0.60976   0.15150   0.08510   0.00000  Uiso   1.00
C62    C     0.35771   0.19723   0.45007   0.00000  Uiso   1.00
C63    C     0.38124   0.20641   0.00702   0.00000  Uiso   1.00
C64    C     0.43496   0.18857   0.02938   0.00000  Uiso   1.00
H65    H     0.34269   0.10065   0.07217   0.00000  Uiso   1.00
H66    H     0.60168   0.33004   0.25698   0.00000  Uiso   1.00
H67    H     0.48989   0.12503   0.20818   0.00000  Uiso   1.00
H68    H     0.51011   0.20828   0.29184   0.00000  Uiso   1.00
H69    H     0.62443   0.06742   0.47878   0.00000  Uiso   1.00
H70    H     0.54187   0.20088   0.08560   0.00000  Uiso   1.00
H71    H     0.65151   0.21489   0.43238   0.00000  Uiso   1.00
H72    H     0.45117   0.19703   0.07390   0.00000  Uiso   1.00
H73    H     0.35882   0.22897   0.03353   0.00000  Uiso   1.00
H74    H     0.43534   0.08709   0.36978   0.00000  Uiso   1.00
H75    H     0.39869   0.00339   0.24426   0.00000  Uiso   1.00
N76    N     0.47827   0.15223   0.23543   0.00000  Uiso   1.00
N77    N     0.52173   0.18110   0.26458   0.00000  Uiso   1.00
O78    O     0.63102   0.24629   0.25358   0.00000  Uiso   1.00
O79    O     0.39075   0.23704   0.24424   0.00000  Uiso   1.00
O80    O     0.64823   0.17358   0.33380   0.00000  Uiso   1.00
O81    O     0.40796   0.16433   0.32446   0.00000  Uiso   1.00
O82    O     0.60925   0.09629   0.25577   0.00000  Uiso   1.00
O83    O     0.36898   0.08704   0.24643   0.00000  Uiso   1.00
O84    O     0.59204   0.16901   0.17554   0.00000  Uiso   1.00
O85    O     0.35177   0.15976   0.16620   0.00000  Uiso   1.00
Zn86   Zn    0.60453   0.17284   0.25624   0.00000  Uiso   1.00
Zn87   Zn    0.39547   0.16049   0.24377   0.00000  Uiso   1.00
Br88   Br    0.54257   0.03696   0.38315   0.00000  Uiso   1.00
C89    C     0.68160   0.26492   0.24880   0.00000  Uiso   1.00
C90    C     0.79845   0.15942   0.49492   0.00000  Uiso   1.00
C91    C     0.77005   0.14338   0.43979   0.00000  Uiso   1.00
C92    C     0.85603   0.14611   0.01320   0.00000  Uiso   1.00
C93    C     0.88083   0.10959   0.48094   0.00000  Uiso   1.00
C94    C     0.84796   0.08799   0.42941   0.00000  Uiso   1.00
C95    C     0.79322   0.10486   0.40936   0.00000  Uiso   1.00
C96    C     0.89009   0.16959   0.06242   0.00000  Uiso   1.00
C97    C     0.96788   0.11512   0.05450   0.00000  Uiso   1.00
C98    C     0.71969   0.16731   0.41597   0.00000  Uiso   1.00
C99    C     0.68944   0.31952   0.24836   0.00000  Uiso   1.00
C100   C     0.70201   0.16779   0.35513   0.00000  Uiso   1.00
C101   C     0.97757   0.01389   0.25275   0.00000  Uiso   1.00
C102   C     0.98519   0.06843   0.25159   0.00000  Uiso   1.00
C103   C     0.96407   0.16260   0.14484   0.00000  Uiso   1.00
C104   C     0.93751   0.09529   0.00174   0.00000  Uiso   1.00
C105   C     0.94310   0.15150   0.08510   0.00000  Uiso   1.00
C106   C     0.69104   0.19723   0.45007   0.00000  Uiso   1.00
C107   C     0.71457   0.20641   0.00702   0.00000  Uiso   1.00
C108   C     0.76829   0.18857   0.02938   0.00000  Uiso   1.00
H109   H     0.67602   0.10065   0.07217   0.00000  Uiso   1.00
H110   H     0.93501   0.33004   0.25698   0.00000  Uiso   1.00
H111   H     0.82322   0.12503   0.20818   0.00000  Uiso   1.00
H112   H     0.84345   0.20828   0.29184   0.00000  Uiso   1.00
H113   H     0.95777   0.06742   0.47878   0.00000  Uiso   1.00
H114   H     0.87521   0.20088   0.08560   0.00000  Uiso   1.00
H115   H     0.98484   0.21489   0.43238   0.00000  Uiso   1.00
H116   H     0.78451   0.19703   0.07390   0.00000  Uiso   1.00
H117   H     0.69215   0.22897   0.03353   0.00000  Uiso   1.00
H118   H     0.76867   0.08709   0.36978   0.00000  Uiso   1.00
H119   H     0.73203   0.00339   0.24426   0.00000  Uiso   1.00
N120   N     0.81160   0.15223   0.23543   0.00000  Uiso   1.00
N121   N     0.85507   0.18110   0.26458   0.00000  Uiso   1.00
O122   O     0.96435   0.24629   0.25358   0.00000  Uiso   1.00
O123   O     0.72408   0.23704   0.24424   0.00000  Uiso   1.00
O124   O     0.98157   0.17358   0.33380   0.00000  Uiso   1.00
O125   O     0.74130   0.16433   0.32446   0.00000  Uiso   1.00
O126   O     0.94258   0.09629   0.25577   0.00000  Uiso   1.00
O127   O     0.70231   0.08704   0.24643   0.00000  Uiso   1.00
O128   O     0.92537   0.16901   0.17554   0.00000  Uiso   1.00
O129   O     0.68510   0.15976   0.16620   0.00000  Uiso   1.00
Zn130  Zn    0.93786   0.17284   0.25624   0.00000  Uiso   1.00
Zn131  Zn    0.72881   0.16049   0.24377   0.00000  Uiso   1.00
Br132  Br    0.87590   0.03696   0.38315   0.00000  Uiso   1.00
C133   C     0.01493   0.59826   0.24880   0.00000  Uiso   1.00
C134   C     0.13178   0.49275   0.49492   0.00000  Uiso   1.00
C135   C     0.10339   0.47671   0.43979   0.00000  Uiso   1.00
C136   C     0.18936   0.47944   0.01320   0.00000  Uiso   1.00
C137   C     0.21416   0.44292   0.48094   0.00000  Uiso   1.00
C138   C     0.18130   0.42132   0.42941   0.00000  Uiso   1.00
C139   C     0.12656   0.43820   0.40936   0.00000  Uiso   1.00
C140   C     0.22343   0.50292   0.06242   0.00000  Uiso   1.00
C141   C     0.30121   0.44846   0.05450   0.00000  Uiso   1.00
C142   C     0.05302   0.50064   0.41597   0.00000  Uiso   1.00
C143   C     0.02277   0.65286   0.24836   0.00000  Uiso   1.00
C144   C     0.03535   0.50112   0.35513   0.00000  Uiso   1.00
C145   C     0.31090   0.34722   0.25275   0.00000  Uiso   1.00
C146   C     0.31852   0.40177   0.25159   0.00000  Uiso   1.00
C147   C     0.29740   0.49593   0.14484   0.00000  Uiso   1.00
C148   C     0.27084   0.42862   0.00174   0.00000  Uiso   1.00
C149   C     0.27643   0.48483   0.08510   0.00000  Uiso   1.00
C150   C     0.02438   0.53056   0.45007   0.00000  Uiso   1.00
C151   C     0.04791   0.53974   0.00702   0.00000  Uiso   1.00
C152   C     0.10163   0.52190   0.02938   0.00000  Uiso   1.00
H153   H     0.00936   0.43398   0.07217   0.00000  Uiso   1.00
H154   H     0.26835   0.66337   0.25698   0.00000  Uiso   1.00
H155   H     0.15656   0.45837   0.20818   0.00000  Uiso   1.00
H156   H     0.17678   0.54161   0.29184   0.00000  Uiso   1.00
H157   H     0.29110   0.40076   0.47878   0.00000  Uiso   1.00
H158   H     0.20854   0.53422   0.08560   0.00000  Uiso   1.00
H159   H     0.31817   0.54822   0.43238   0.00000  Uiso   1.00
H160   H     0.11784   0.53036   0.07390   0.00000  Uiso   1.00
H161   H     0.02548   0.56230   0.03353   0.00000  Uiso   1.00
H162   H     0.10201   0.42042   0.36978   0.00000  Uiso   1.00
H163   H     0.06536   0.33672   0.24426   0.00000  Uiso   1.00
N164   N     0.14493   0.48556   0.23543   0.00000  Uiso   1.00
N165   N     0.18840   0.51444   0.26458   0.00000  Uiso   1.00
O166   O     0.29769   0.57963   0.25358   0.00000  Uiso   1.00
O167   O     0.05742   0.57038   0.24424   0.00000  Uiso   1.00
O168   O     0.31490   0.50691   0.33380   0.00000  Uiso   1.00
O169   O     0.07463   0.49766   0.32446   0.00000  Uiso   1.00
O170   O     0.27592   0.42962   0.25577   0.00000  Uiso   1.00
O171   O     0.03565   0.42037   0.24643   0.00000  Uiso   1.00
O172   O     0.25870   0.50234   0.17554   0.00000  Uiso   1.00
O173   O     0.01843   0.49309   0.16620   0.00000  Uiso   1.00
Zn174  Zn    0.27119   0.50618   0.25624   0.00000  Uiso   1.00
Zn175  Zn    0.06214   0.49382   0.24377   0.00000  Uiso   1.00
Br176  Br    0.20924   0.37029   0.38315   0.00000  Uiso   1.00
C177   C     0.34827   0.59826   0.24880   0.00000  Uiso   1.00
C178   C     0.46512   0.49275   0.49492   0.00000  Uiso   1.00
C179   C     0.43672   0.47671   0.43979   0.00000  Uiso   1.00
C180   C     0.52269   0.47944   0.01320   0.00000  Uiso   1.00
C181   C     0.54750   0.44292   0.48094   0.00000  Uiso   1.00
C182   C     0.51463   0.42132   0.42941   0.00000  Uiso   1.00
C183   C     0.45989   0.43820   0.40936   0.00000  Uiso   1.00
C184   C     0.55676   0.50292   0.06242   0.00000  Uiso   1.00
C185   C     0.63455   0.44846   0.05450   0.00000  Uiso   1.00
C186   C     0.38636   0.50064   0.41597   0.00000  Uiso   1.00
C187   C     0.35610   0.65286   0.24836   0.00000  Uiso   1.00
C188   C     0.36868   0.50112   0.35513   0.00000  Uiso   1.00
C189   C     0.64424   0.34722   0.25275   0.00000  Uiso   1.00
C190   C     0.65186   0.40177   0.25159   0.00000  Uiso   1.00
C191   C     0.63073   0.49593   0.14484   0.00000  Uiso   1.00
C192   C     0.60418   0.42862   0.00174   0.00000  Uiso   1.00
C193   C     0.60976   0.48483   0.08510   0.00000  Uiso   1.00
C194   C     0.35771   0.53056   0.45007   0.00000  Uiso   1.00
C195   C     0.38124   0.53974   0.00702   0.00000  Uiso   1.00
C196   C     0.43496   0.52190   0.02938   0.00000  Uiso   1.00
H197   H     0.34269   0.43398   0.07217   0.00000  Uiso   1.00
H198   H     0.60168   0.66337   0.25698   0.00000  Uiso   1.00
H199   H     0.48989   0.45837   0.20818   0.00000  Uiso   1.00
H200   H     0.51011   0.54161   0.29184   0.00000  Uiso   1.00
H201   H     0.62443   0.40076   0.47878   0.00000  Uiso   1.00
H202   H     0.54187   0.53422   0.08560   0.00000  Uiso   1.00
H203   H     0.65151   0.54822   0.43238   0.00000  Uiso   1.00
H204   H     0.45117   0.53036   0.07390   0.00000  Uiso   1.00
H205   H     0.35882   0.56230   0.03353   0.00000  Uiso   1.00
H206   H     0.43534   0.42042   0.36978   0.00000  Uiso   1.00
H207   H     0.39869   0.33672   0.24426   0.00000  Uiso   1.00
N208   N     0.47827   0.48556   0.23543   0.00000  Uiso   1.00
N209   N     0.52173   0.51444   0.26458   0.00000  Uiso   1.00
O210   O     0.63102   0.57963   0.25358   0.00000  Uiso   1.00
O211   O     0.39075   0.57038   0.24424   0.00000  Uiso   1.00
O212   O     0.64823   0.50691   0.33380   0.00000  Uiso   1.00
O213   O     0.40796   0.49766   0.32446   0.00000  Uiso   1.00
O214   O     0.60925   0.42962   0.25577   0.00000  Uiso   1.00
O215   O     0.36898   0.42037   0.24643   0.00000  Uiso   1.00
O216   O     0.59204   0.50234   0.17554   0.00000  Uiso   1.00
O217   O     0.35177   0.49309   0.16620   0.00000  Uiso   1.00
Zn218  Zn    0.60453   0.50618   0.25624   0.00000  Uiso   1.00
Zn219  Zn    0.39547   0.49382   0.24377   0.00000  Uiso   1.00
Br220  Br    0.54257   0.37029   0.38315   0.00000  Uiso   1.00
C221   C     0.68160   0.59826   0.24880   0.00000  Uiso   1.00
C222   C     0.79845   0.49275   0.49492   0.00000  Uiso   1.00
C223   C     0.77005   0.47671   0.43979   0.00000  Uiso   1.00
C224   C     0.85603   0.47944   0.01320   0.00000  Uiso   1.00
C225   C     0.88083   0.44292   0.48094   0.00000  Uiso   1.00
C226   C     0.84796   0.42132   0.42941   0.00000  Uiso   1.00
C227   C     0.79322   0.43820   0.40936   0.00000  Uiso   1.00
C228   C     0.89009   0.50292   0.06242   0.00000  Uiso   1.00
C229   C     0.96788   0.44846   0.05450   0.00000  Uiso   1.00
C230   C     0.71969   0.50064   0.41597   0.00000  Uiso   1.00
C231   C     0.68944   0.65286   0.24836   0.00000  Uiso   1.00
C232   C     0.70201   0.50112   0.35513   0.00000  Uiso   1.00
C233   C     0.97757   0.34722   0.25275   0.00000  Uiso   1.00
C234   C     0.98519   0.40177   0.25159   0.00000  Uiso   1.00
C235   C     0.96407   0.49593   0.14484   0.00000  Uiso   1.00
C236   C     0.93751   0.42862   0.00174   0.00000  Uiso   1.00
C237   C     0.94310   0.48483   0.08510   0.00000  Uiso   1.00
C238   C     0.69104   0.53056   0.45007   0.00000  Uiso   1.00
C239   C     0.71457   0.53974   0.00702   0.00000  Uiso   1.00
C240   C     0.76829   0.52190   0.02938   0.00000  Uiso   1.00
H241   H     0.67602   0.43398   0.07217   0.00000  Uiso   1.00
H242   H     0.93501   0.66337   0.25698   0.00000  Uiso   1.00
H243   H     0.82322   0.45837   0.20818   0.00000  Uiso   1.00
H244   H     0.84345   0.54161   0.29184   0.00000  Uiso   1.00
H245   H     0.95777   0.40076   0.47878   0.00000  Uiso   1.00
H246   H     0.87521   0.53422   0.08560   0.00000  Uiso   1.00
H247   H     0.98484   0.54822   0.43238   0.00000  Uiso   1.00
H248   H     0.78451   0.53036   0.07390   0.00000  Uiso   1.00
H249   H     0.69215   0.56230   0.03353   0.00000  Uiso   1.00
H250   H     0.76867   0.42042   0.36978   0.00000  Uiso   1.00
H251   H     0.73203   0.33672   0.24426   0.00000  Uiso   1.00
N252   N     0.81160   0.48556   0.23543   0.00000  Uiso   1.00
N253   N     0.85507   0.51444   0.26458   0.00000  Uiso   1.00
O254   O     0.96435   0.57963   0.25358   0.00000  Uiso   1.00
O255   O     0.72408   0.57038   0.24424   0.00000  Uiso   1.00
O256   O     0.98157   0.50691   0.33380   0.00000  Uiso   1.00
O257   O     0.74130   0.49766   0.32446   0.00000  Uiso   1.00
O258   O     0.94258   0.42962   0.25577   0.00000  Uiso   1.00
O259   O     0.70231   0.42037   0.24643   0.00000  Uiso   1.00
O260   O     0.92537   0.50234   0.17554   0.00000  Uiso   1.00
O261   O     0.68510   0.49309   0.16620   0.00000  Uiso   1.00
Zn262  Zn    0.93786   0.50618   0.25624   0.00000  Uiso   1.00
Zn263  Zn    0.72881   0.49382   0.24377   0.00000  Uiso   1.00
Br264  Br    0.87590   0.37029   0.38315   0.00000  Uiso   1.00
C265   C     0.01493   0.93159   0.24880   0.00000  Uiso   1.00
C266   C     0.13178   0.82608   0.49492   0.00000  Uiso   1.00
C267   C     0.10339   0.81004   0.43979   0.00000  Uiso   1.00
C268   C     0.18936   0.81277   0.01320   0.00000  Uiso   1.00
C269   C     0.21416   0.77626   0.48094   0.00000  Uiso   1.00
C270   C     0.18130   0.75465   0.42941   0.00000  Uiso   1.00
C271   C     0.12656   0.77153   0.40936   0.00000  Uiso   1.00
C272   C     0.22343   0.83626   0.06242   0.00000  Uiso   1.00
C273   C     0.30121   0.78179   0.05450   0.00000  Uiso   1.00
C274   C     0.05302   0.83397   0.41597   0.00000  Uiso   1.00
C275   C     0.02277   0.98619   0.24836   0.00000  Uiso   1.00
C276   C     0.03535   0.83446   0.35513   0.00000  Uiso   1.00
C277   C     0.31090   0.68055   0.25275   0.00000  Uiso   1.00
C278   C     0.31852   0.73510   0.25159   0.00000  Uiso   1.00
C279   C     0.29740   0.82927   0.14484   0.00000  Uiso   1.00
C280   C     0.27084   0.76196   0.00174   0.00000  Uiso   1.00
C281   C     0.27643   0.81817   0.08510   0.00000  Uiso   1.00
C282   C     0.02438   0.86390   0.45007   0.00000  Uiso   1.00
C283   C     0.04791   0.87308   0.00702   0.00000  Uiso   1.00
C284   C     0.10163   0.85524   0.02938   0.00000  Uiso   1.00
H285   H     0.00936   0.76732   0.07217   0.00000  Uiso   1.00
H286   H     0.26835   0.99670   0.25698   0.00000  Uiso   1.00
H287   H     0.15656   0.79170   0.20818   0.00000  Uiso   1.00
H288   H     0.17678   0.87494   0.29184   0.00000  Uiso   1.00
H289   H     0.29110   0.73409   0.47878   0.00000  Uiso   1.00
H290   H     0.20854   0.86755   0.08560   0.00000  Uiso   1.00
H291   H     0.31817   0.88155   0.43238   0.00000  Uiso   1.00
H292   H     0.11784   0.86370   0.07390   0.00000  Uiso   1.00
H293   H     0.02548   0.89563   0.03353   0.00000  Uiso   1.00
H294   H     0.10201   0.75375   0.36978   0.00000  Uiso   1.00
H295   H     0.06536   0.67005   0.24426   0.00000  Uiso   1.00
N296   N     0.14493   0.81890   0.23543   0.00000  Uiso   1.00
N297   N     0.18840   0.84777   0.26458   0.00000  Uiso   1.00
O298   O     0.29769   0.91296   0.25358   0.00000  Uiso   1.00
O299   O     0.05742   0.90371   0.24424   0.00000  Uiso   1.00
O300   O     0.31490   0.84024   0.33380   0.00000  Uiso   1.00
O301   O     0.07463   0.83099   0.32446   0.00000  Uiso   1.00
O302   O     0.27592   0.76296   0.25577   0.00000  Uiso   1.00
O303   O     0.03565   0.75371   0.24643   0.00000  Uiso   1.00
O304   O     0.25870   0.83567   0.17554   0.00000  Uiso   1.00
O305   O     0.01843   0.82642   0.16620   0.00000  Uiso   1.00
Zn306  Zn    0.27119   0.83951   0.25624   0.00000  Uiso   1.00
Zn307  Zn    0.06214   0.82716   0.24377   0.00000  Uiso   1.00
Br308  Br    0.20924   0.70362   0.38315   0.00000  Uiso   1.00
C309   C     0.34827   0.93159   0.24880   0.00000  Uiso   1.00
C310   C     0.46512   0.82608   0.49492   0.00000  Uiso   1.00
C311   C     0.43672   0.81004   0.43979   0.00000  Uiso   1.00
C312   C     0.52269   0.81277   0.01320   0.00000  Uiso   1.00
C313   C     0.54750   0.77626   0.48094   0.00000  Uiso   1.00
C314   C     0.51463   0.75465   0.42941   0.00000  Uiso   1.00
C315   C     0.45989   0.77153   0.40936   0.00000  Uiso   1.00
C316   C     0.55676   0.83626   0.06242   0.00000  Uiso   1.00
C317   C     0.63455   0.78179   0.05450   0.00000  Uiso   1.00
C318   C     0.38636   0.83397   0.41597   0.00000  Uiso   1.00
C319   C     0.35610   0.98619   0.24836   0.00000  Uiso   1.00
C320   C     0.36868   0.83446   0.35513   0.00000  Uiso   1.00
C321   C     0.64424   0.68055   0.25275   0.00000  Uiso   1.00
C322   C     0.65186   0.73510   0.25159   0.00000  Uiso   1.00
C323   C     0.63073   0.82927   0.14484   0.00000  Uiso   1.00
C324   C     0.60418   0.76196   0.00174   0.00000  Uiso   1.00
C325   C     0.60976   0.81817   0.08510   0.00000  Uiso   1.00
C326   C     0.35771   0.86390   0.45007   0.00000  Uiso   1.00
C327   C     0.38124   0.87308   0.00702   0.00000  Uiso   1.00
C328   C     0.43496   0.85524   0.02938   0.00000  Uiso   1.00
H329   H     0.34269   0.76732   0.07217   0.00000  Uiso   1.00
H330   H     0.60168   0.99670   0.25698   0.00000  Uiso   1.00
H331   H     0.48989   0.79170   0.20818   0.00000  Uiso   1.00
H332   H     0.51011   0.87494   0.29184   0.00000  Uiso   1.00
H333   H     0.62443   0.73409   0.47878   0.00000  Uiso   1.00
H334   H     0.54187   0.86755   0.08560   0.00000  Uiso   1.00
H335   H     0.65151   0.88155   0.43238   0.00000  Uiso   1.00
H336   H     0.45117   0.86370   0.07390   0.00000  Uiso   1.00
H337   H     0.35882   0.89563   0.03353   0.00000  Uiso   1.00
H338   H     0.43534   0.75375   0.36978   0.00000  Uiso   1.00
H339   H     0.39869   0.67005   0.24426   0.00000  Uiso   1.00
N340   N     0.47827   0.81890   0.23543   0.00000  Uiso   1.00
N341   N     0.52173   0.84777   0.26458   0.00000  Uiso   1.00
O342   O     0.63102   0.91296   0.25358   0.00000  Uiso   1.00
O343   O     0.39075   0.90371   0.24424   0.00000  Uiso   1.00
O344   O     0.64823   0.84024   0.33380   0.00000  Uiso   1.00
O345   O     0.40796   0.83099   0.32446   0.00000  Uiso   1.00
O346   O     0.60925   0.76296   0.25577   0.00000  Uiso   1.00
O347   O     0.36898   0.75371   0.24643   0.00000  Uiso   1.00
O348   O     0.59204   0.83567   0.17554   0.00000  Uiso   1.00
O349   O     0.35177   0.82642   0.16620   0.00000  Uiso   1.00
Zn350  Zn    0.60453   0.83951   0.25624   0.00000  Uiso   1.00
Zn351  Zn    0.39547   0.82716   0.24377   0.00000  Uiso   1.00
Br352  Br    0.54257   0.70362   0.38315   0.00000  Uiso   1.00
C353   C     0.68160   0.93159   0.24880   0.00000  Uiso   1.00
C354   C     0.79845   0.82608   0.49492   0.00000  Uiso   1.00
C355   C     0.77005   0.81004   0.43979   0.00000  Uiso   1.00
C356   C     0.85603   0.81277   0.01320   0.00000  Uiso   1.00
C357   C     0.88083   0.77626   0.48094   0.00000  Uiso   1.00
C358   C     0.84796   0.75465   0.42941   0.00000  Uiso   1.00
C359   C     0.79322   0.77153   0.40936   0.00000  Uiso   1.00
C360   C     0.89009   0.83626   0.06242   0.00000  Uiso   1.00
C361   C     0.96788   0.78179   0.05450   0.00000  Uiso   1.00
C362   C     0.71969   0.83397   0.41597   0.00000  Uiso   1.00
C363   C     0.68944   0.98619   0.24836   0.00000  Uiso   1.00
C364   C     0.70201   0.83446   0.35513   0.00000  Uiso   1.00
C365   C     0.97757   0.68055   0.25275   0.00000  Uiso   1.00
C366   C     0.98519   0.73510   0.25159   0.00000  Uiso   1.00
C367   C     0.96407   0.82927   0.14484   0.00000  Uiso   1.00
C368   C     0.93751   0.76196   0.00174   0.00000  Uiso   1.00
C369   C     0.94310   0.81817   0.08510   0.00000  Uiso   1.00
C370   C     0.69104   0.86390   0.45007   0.00000  Uiso   1.00
C371   C     0.71457   0.87308   0.00702   0.00000  Uiso   1.00
C372   C     0.76829   0.85524   0.02938   0.00000  Uiso   1.00
H373   H     0.67602   0.76732   0.07217   0.00000  Uiso   1.00
H374   H     0.93501   0.99670   0.25698   0.00000  Uiso   1.00
H375   H     0.82322   0.79170   0.20818   0.00000  Uiso   1.00
H376   H     0.84345   0.87494   0.29184   0.00000  Uiso   1.00
H377   H     0.95777   0.73409   0.47878   0.00000  Uiso   1.00
H378   H     0.87521   0.86755   0.08560   0.00000  Uiso   1.00
H379   H     0.98484   0.88155   0.43238   0.00000  Uiso   1.00
H380   H     0.78451   0.86370   0.07390   0.00000  Uiso   1.00
H381   H     0.69215   0.89563   0.03353   0.00000  Uiso   1.00
H382   H     0.76867   0.75375   0.36978   0.00000  Uiso   1.00
H383   H     0.73203   0.67005   0.24426   0.00000  Uiso   1.00
N384   N     0.81160   0.81890   0.23543   0.00000  Uiso   1.00
N385   N     0.85507   0.84777   0.26458   0.00000  Uiso   1.00
O386   O     0.96435   0.91296   0.25358   0.00000  Uiso   1.00
O387   O     0.72408   0.90371   0.24424   0.00000  Uiso   1.00
O388   O     0.98157   0.84024   0.33380   0.00000  Uiso   1.00
O389   O     0.74130   0.83099   0.32446   0.00000  Uiso   1.00
O390   O     0.94258   0.76296   0.25577   0.00000  Uiso   1.00
O391   O     0.70231   0.75371   0.24643   0.00000  Uiso   1.00
O392   O     0.92537   0.83567   0.17554   0.00000  Uiso   1.00
O393   O     0.68510   0.82642   0.16620   0.00000  Uiso   1.00
Zn394  Zn    0.93786   0.83951   0.25624   0.00000  Uiso   1.00
Zn395  Zn    0.72881   0.82716   0.24377   0.00000  Uiso   1.00
Br396  Br    0.87590   0.70362   0.38315   0.00000  Uiso   1.00
C397   C     0.01493   0.26492   0.74880   0.00000  Uiso   1.00
C398   C     0.13178   0.15942   0.99492   0.00000  Uiso   1.00
C399   C     0.10339   0.14338   0.93979   0.00000  Uiso   1.00
C400   C     0.18936   0.14611   0.51320   0.00000  Uiso   1.00
C401   C     0.21416   0.10959   0.98094   0.00000  Uiso   1.00
C402   C     0.18130   0.08799   0.92941   0.00000  Uiso   1.00
C403   C     0.12656   0.10486   0.90936   0.00000  Uiso   1.00
C404   C     0.22343   0.16959   0.56242   0.00000  Uiso   1.00
C405   C     0.30121   0.11512   0.55450   0.00000  Uiso   1.00
C406   C     0.05302   0.16731   0.91597   0.00000  Uiso   1.00
C407   C     0.02277   0.31952   0.74836   0.00000  Uiso   1.00
C408   C     0.03535   0.16779   0.85513   0.00000  Uiso   1.00
C409   C     0.31090   0.01389   0.75275   0.00000  Uiso   1.00
C410   C     0.31852   0.06843   0.75159   0.00000  Uiso   1.00
C411   C     0.29740   0.16260   0.64484   0.00000  Uiso   1.00
C412   C     0.27084   0.09529   0.50174   0.00000  Uiso   1.00
C413   C     0.27643   0.15150   0.58510   0.00000  Uiso   1.00
C414   C     0.02438   0.19723   0.95007   0.00000  Uiso   1.00
C415   C     0.04791   0.20641   0.50702   0.00000  Uiso   1.00
C416   C     0.10163   0.18857   0.52938   0.00000  Uiso   1.00
H417   H     0.00936   0.10065   0.57217   0.00000  Uiso   1.00
H418   H     0.26835   0.33004   0.75698   0.00000  Uiso   1.00
H419   H     0.15656   0.12503   0.70818   0.00000  Uiso   1.00
H420   H     0.17678   0.20828   0.79184   0.00000  Uiso   1.00
H421   H     0.29110   0.06742   0.97878   0.00000  Uiso   1.00
H422   H     0.20854   0.20088   0.58560   0.00000  Uiso   1.00
H423   H     0.31817   0.21489   0.93238   0.00000  Uiso   1.00
H424   H     0.11784   0.19703   0.57390   0.00000  Uiso   1.00
H425   H     0.02548   0.22897   0.53353   0.00000  Uiso   1.00
H426   H     0.10201   0.08709   0.86978   0.00000  Uiso   1.00
H427   H     0.06536   0.00339   0.74426   0.00000  Uiso   1.00
N428   N     0.14493   0.15223   0.73543   0.00000  Uiso   1.00
N429   N     0.18840   0.18110   0.76458   0.00000  Uiso   1.00
O430   O     0.29769   0.24629   0.75358   0.00000  Uiso   1.00
O431   O     0.05742   0.23704   0.74424   0.00000  Uiso   1.00
O432   O     0.31490   0.17358   0.83380   0.00000  Uiso   1.00
O433   O     0.07463   0.16433   0.82446   0.00000  Uiso   1.00
O434   O     0.27592   0.09629   0.75577   0.00000  Uiso   1.00
O435   O     0.03565   0.08704   0.74643   0.00000  Uiso   1.00
O436   O     0.25870   0.16901   0.67554   0.00000  Uiso   1.00
O437   O     0.01843   0.15976   0.66620   0.00000  Uiso   1.00
Zn438  Zn    0.27119   0.17284   0.75624   0.00000  Uiso   1.00
Zn439  Zn    0.06214   0.16049   0.74377   0.00000  Uiso   1.00
Br440  Br    0.20924   0.03696   0.88315   0.00000  Uiso   1.00
C441   C     0.34827   0.26492   0.74880   0.00000  Uiso   1.00
C442   C     0.46512   0.15942   0.99492   0.00000  Uiso   1.00
C443   C     0.43672   0.14338   0.93979   0.00000  Uiso   1.00
C444   C     0.52269   0.14611   0.51320   0.00000  Uiso   1.00
C445   C     0.54750   0.10959   0.98094   0.00000  Uiso   1.00
C446   C     0.51463   0.08799   0.92941   0.00000  Uiso   1.00
C447   C     0.45989   0.10486   0.90936   0.00000  Uiso   1.00
C448   C     0.55676   0.16959   0.56242   0.00000  Uiso   1.00
C449   C     0.63455   0.11512   0.55450   0.00000  Uiso   1.00
C450   C     0.38636   0.16731   0.91597   0.00000  Uiso   1.00
C451   C     0.35610   0.31952   0.74836   0.00000  Uiso   1.00
C452   C     0.36868   0.16779   0.85513   0.00000  Uiso   1.00
C453   C     0.64424   0.01389   0.75275   0.00000  Uiso   1.00
C454   C     0.65186   0.06843   0.75159   0.00000  Uiso   1.00
C455   C     0.63073   0.16260   0.64484   0.00000  Uiso   1.00
C456   C     0.60418   0.09529   0.50174   0.00000  Uiso   1.00
C457   C     0.60976   0.15150   0.58510   0.00000  Uiso   1.00
C458   C     0.35771   0.19723   0.95007   0.00000  Uiso   1.00
C459   C     0.38124   0.20641   0.50702   0.00000  Uiso   1.00
C460   C     0.43496   0.18857   0.52938   0.00000  Uiso   1.00
H461   H     0.34269   0.10065   0.57217   0.00000  Uiso   1.00
H462   H     0.60168   0.33004   0.75698   0.00000  Uiso   1.00
H463   H     0.48989   0.12503   0.70818   0.00000  Uiso   1.00
H464   H     0.51011   0.20828   0.79184   0.00000  Uiso   1.00
H465   H     0.62443   0.06742   0.97878   0.00000  Uiso   1.00
H466   H     0.54187   0.20088   0.58560   0.00000  Uiso   1.00
H467   H     0.65151   0.21489   0.93238   0.00000  Uiso   1.00
H468   H     0.45117   0.19703   0.57390   0.00000  Uiso   1.00
H469   H     0.35882   0.22897   0.53353   0.00000  Uiso   1.00
H470   H     0.43534   0.08709   0.86978   0.00000  Uiso   1.00
H471   H     0.39869   0.00339   0.74426   0.00000  Uiso   1.00
N472   N     0.47827   0.15223   0.73543   0.00000  Uiso   1.00
N473   N     0.52173   0.18110   0.76458   0.00000  Uiso   1.00
O474   O     0.63102   0.24629   0.75358   0.00000  Uiso   1.00
O475   O     0.39075   0.23704   0.74424   0.00000  Uiso   1.00
O476   O     0.64823   0.17358   0.83380   0.00000  Uiso   1.00
O477   O     0.40796   0.16433   0.82446   0.00000  Uiso   1.00
O478   O     0.60925   0.09629   0.75577   0.00000  Uiso   1.00
O479   O     0.36898   0.08704   0.74643   0.00000  Uiso   1.00
O480   O     0.59204   0.16901   0.67554   0.00000  Uiso   1.00
O481   O     0.35177   0.15976   0.66620   0.00000  Uiso   1.00
Zn482  Zn    0.60453   0.17284   0.75624   0.00000  Uiso   1.00
Zn483  Zn    0.39547   0.16049   0.74377   0.00000  Uiso   1.00
Br484  Br    0.54257   0.03696   0.88315   0.00000  Uiso   1.00
C485   C     0.68160   0.26492   0.74880   0.00000  Uiso   1.00
C486   C     0.79845   0.15942   0.99492   0.00000  Uiso   1.00
C487   C     0.77005   0.14338   0.93979   0.00000  Uiso   1.00
C488   C     0.85603   0.14611   0.51320   0.00000  Uiso   1.00
C489   C     0.88083   0.10959   0.98094   0.00000  Uiso   1.00
C490   C     0.84796   0.08799   0.92941   0.00000  Uiso   1.00
C491   C     0.79322   0.10486   0.90936   0.00000  Uiso   1.00
C492   C     0.89009   0.16959   0.56242   0.00000  Uiso   1.00
C493   C     0.96788   0.11512   0.55450   0.00000  Uiso   1.00
C494   C     0.71969   0.16731   0.91597   0.00000  Uiso   1.00
C495   C     0.68944   0.31952   0.74836   0.00000  Uiso   1.00
C496   C     0.70201   0.16779   0.85513   0.00000  Uiso   1.00
C497   C     0.97757   0.01389   0.75275   0.00000  Uiso   1.00
C498   C     0.98519   0.06843   0.75159   0.00000  Uiso   1.00
C499   C     0.96407   0.16260   0.64484   0.00000  Uiso   1.00
C500   C     0.93751   0.09529   0.50174   0.00000  Uiso   1.00
C501   C     0.94310   0.15150   0.58510   0.00000  Uiso   1.00
C502   C     0.69104   0.19723   0.95007   0.00000  Uiso   1.00
C503   C     0.71457   0.20641   0.50702   0.00000  Uiso   1.00
C504   C     0.76829   0.18857   0.52938   0.00000  Uiso   1.00
H505   H     0.67602   0.10065   0.57217   0.00000  Uiso   1.00
H506   H     0.93501   0.33004   0.75698   0.00000  Uiso   1.00
H507   H     0.82322   0.12503   0.70818   0.00000  Uiso   1.00
H508   H     0.84345   0.20828   0.79184   0.00000  Uiso   1.00
H509   H     0.95777   0.06742   0.97878   0.00000  Uiso   1.00
H510   H     0.87521   0.20088   0.58560   0.00000  Uiso   1.00
H511   H     0.98484   0.21489   0.93238   0.00000  Uiso   1.00
H512   H     0.78451   0.19703   0.57390   0.00000  Uiso   1.00
H513   H     0.69215   0.22897   0.53353   0.00000  Uiso   1.00
H514   H     0.76867   0.08709   0.86978   0.00000  Uiso   1.00
H515   H     0.73203   0.00339   0.74426   0.00000  Uiso   1.00
N516   N     0.81160   0.15223   0.73543   0.00000  Uiso   1.00
N517   N     0.85507   0.18110   0.76458   0.00000  Uiso   1.00
O518   O     0.96435   0.24629   0.75358   0.00000  Uiso   1.00
O519   O     0.72408   0.23704   0.74424   0.00000  Uiso   1.00
O520   O     0.98157   0.17358   0.83380   0.00000  Uiso   1.00
O521   O     0.74130   0.16433   0.82446   0.00000  Uiso   1.00
O522   O     0.94258   0.09629   0.75577   0.00000  Uiso   1.00
O523   O     0.70231   0.08704   0.74643   0.00000  Uiso   1.00
O524   O     0.92537   0.16901   0.67554   0.00000  Uiso   1.00
O525   O     0.68510   0.15976   0.66620   0.00000  Uiso   1.00
Zn526  Zn    0.93786   0.17284   0.75624   0.00000  Uiso   1.00
Zn527  Zn    0.72881   0.16049   0.74377   0.00000  Uiso   1.00
Br528  Br    0.87590   0.03696   0.88315   0.00000  Uiso   1.00
C529   C     0.01493   0.59826   0.74880   0.00000  Uiso   1.00
C530   C     0.13178   0.49275   0.99492   0.00000  Uiso   1.00
C531   C     0.10339   0.47671   0.93979   0.00000  Uiso   1.00
C532   C     0.18936   0.47944   0.51320   0.00000  Uiso   1.00
C533   C     0.21416   0.44292   0.98094   0.00000  Uiso   1.00
C534   C     0.18130   0.42132   0.92941   0.00000  Uiso   1.00
C535   C     0.12656   0.43820   0.90936   0.00000  Uiso   1.00
C536   C     0.22343   0.50292   0.56242   0.00000  Uiso   1.00
C537   C     0.30121   0.44846   0.55450   0.00000  Uiso   1.00
C538   C     0.05302   0.50064   0.91597   0.00000  Uiso   1.00
C539   C     0.02277   0.65286   0.74836   0.00000  Uiso   1.00
C540   C     0.03535   0.50112   0.85513   0.00000  Uiso   1.00
C541   C     0.31090   0.34722   0.75275   0.00000  Uiso   1.00
C542   C     0.31852   0.40177   0.75159   0.00000  Uiso   1.00
C543   C     0.29740   0.49593   0.64484   0.00000  Uiso   1.00
C544   C     0.27084   0.42862   0.50174   0.00000  Uiso   1.00
C545   C     0.27643   0.48483   0.58510   0.00000  Uiso   1.00
C546   C     0.02438   0.53056   0.95007   0.00000  Uiso   1.00
C547   C     0.04791   0.53974   0.50702   0.00000  Uiso   1.00
C548   C     0.10163   0.52190   0.52938   0.00000  Uiso   1.00
H549   H     0.00936   0.43398   0.57217   0.00000  Uiso   1.00
H550   H     0.26835   0.66337   0.75698   0.00000  Uiso   1.00
H551   H     0.15656   0.45837   0.70818   0.00000  Uiso   1.00
H552   H     0.17678   0.54161   0.79184   0.00000  Uiso   1.00
H553   H     0.29110   0.40076   0.97878   0.00000  Uiso   1.00
H554   H     0.20854   0.53422   0.58560   0.00000  Uiso   1.00
H555   H     0.31817   0.54822   0.93238   0.00000  Uiso   1.00
H556   H     0.11784   0.53036   0.57390   0.00000  Uiso   1.00
H557   H     0.02548   0.56230   0.53353   0.00000  Uiso   1.00
H558   H     0.10201   0.42042   0.86978   0.00000  Uiso   1.00
H559   H     0.06536   0.33672   0.74426   0.00000  Uiso   1.00
N560   N     0.14493   0.48556   0.73543   0.00000  Uiso   1.00
N561   N     0.18840   0.51444   0.76458   0.00000  Uiso   1.00
O562   O     0.29769   0.57963   0.75358   0.00000  Uiso   1.00
O563   O     0.05742   0.57038   0.74424   0.00000  Uiso   1.00
O564   O     0.31490   0.50691   0.83380   0.00000  Uiso   1.00
O565   O     0.07463   0.49766   0.82446   0.00000  Uiso   1.00
O566   O     0.27592   0.42962   0.75577   0.00000  Uiso   1.00
O567   O     0.03565   0.42037   0.74643   0.00000  Uiso   1.00
O568   O     0.25870   0.50234   0.67554   0.00000  Uiso   1.00
O569   O     0.01843   0.49309   0.66620   0.00000  Uiso   1.00
Zn570  Zn    0.27119   0.50618   0.75624   0.00000  Uiso   1.00
Zn571  Zn    0.06214   0.49382   0.74377   0.00000  Uiso   1.00
Br572  Br    0.20924   0.37029   0.88315   0.00000  Uiso   1.00
C573   C     0.34827   0.59826   0.74880   0.00000  Uiso   1.00
C574   C     0.46512   0.49275   0.99492   0.00000  Uiso   1.00
C575   C     0.43672   0.47671   0.93979   0.00000  Uiso   1.00
C576   C     0.52269   0.47944   0.51320   0.00000  Uiso   1.00
C577   C     0.54750   0.44292   0.98094   0.00000  Uiso   1.00
C578   C     0.51463   0.42132   0.92941   0.00000  Uiso   1.00
C579   C     0.45989   0.43820   0.90936   0.00000  Uiso   1.00
C580   C     0.55676   0.50292   0.56242   0.00000  Uiso   1.00
C581   C     0.63455   0.44846   0.55450   0.00000  Uiso   1.00
C582   C     0.38636   0.50064   0.91597   0.00000  Uiso   1.00
C583   C     0.35610   0.65286   0.74836   0.00000  Uiso   1.00
C584   C     0.36868   0.50112   0.85513   0.00000  Uiso   1.00
C585   C     0.64424   0.34722   0.75275   0.00000  Uiso   1.00
C586   C     0.65186   0.40177   0.75159   0.00000  Uiso   1.00
C587   C     0.63073   0.49593   0.64484   0.00000  Uiso   1.00
C588   C     0.60418   0.42862   0.50174   0.00000  Uiso   1.00
C589   C     0.60976   0.48483   0.58510   0.00000  Uiso   1.00
C590   C     0.35771   0.53056   0.95007   0.00000  Uiso   1.00
C591   C     0.38124   0.53974   0.50702   0.00000  Uiso   1.00
C592   C     0.43496   0.52190   0.52938   0.00000  Uiso   1.00
H593   H     0.34269   0.43398   0.57217   0.00000  Uiso   1.00
H594   H     0.60168   0.66337   0.75698   0.00000  Uiso   1.00
H595   H     0.48989   0.45837   0.70818   0.00000  Uiso   1.00
H596   H     0.51011   0.54161   0.79184   0.00000  Uiso   1.00
H597   H     0.62443   0.40076   0.97878   0.00000  Uiso   1.00
H598   H     0.54187   0.53422   0.58560   0.00000  Uiso   1.00
H599   H     0.65151   0.54822   0.93238   0.00000  Uiso   1.00
H600   H     0.45117   0.53036   0.57390   0.00000  Uiso   1.00
H601   H     0.35882   0.56230   0.53353   0.00000  Uiso   1.00
H602   H     0.43534   0.42042   0.86978   0.00000  Uiso   1.00
H603   H     0.39869   0.33672   0.74426   0.00000  Uiso   1.00
N604   N     0.47827   0.48556   0.73543   0.00000  Uiso   1.00
N605   N     0.52173   0.51444   0.76458   0.00000  Uiso   1.00
O606   O     0.63102   0.57963   0.75358   0.00000  Uiso   1.00
O607   O     0.39075   0.57038   0.74424   0.00000  Uiso   1.00
O608   O     0.64823   0.50691   0.83380   0.00000  Uiso   1.00
O609   O     0.40796   0.49766   0.82446   0.00000  Uiso   1.00
O610   O     0.60925   0.42962   0.75577   0.00000  Uiso   1.00
O611   O     0.36898   0.42037   0.74643   0.00000  Uiso   1.00
O612   O     0.59204   0.50234   0.67554   0.00000  Uiso   1.00
O613   O     0.35177   0.49309   0.66620   0.00000  Uiso   1.00
Zn614  Zn    0.60453   0.50618   0.75624   0.00000  Uiso   1.00
Zn615  Zn    0.39547   0.49382   0.74377   0.00000  Uiso   1.00
Br616  Br    0.54257   0.37029   0.88315   0.00000  Uiso   1.00
C617   C     0.68160   0.59826   0.74880   0.00000  Uiso   1.00
C618   C     0.79845   0.49275   0.99492   0.00000  Uiso   1.00
C619   C     0.77005   0.47671   0.93979   0.00000  Uiso   1.00
C620   C     0.85603   0.47944   0.51320   0.00000  Uiso   1.00
C621   C     0.88083   0.44292   0.98094   0.00000  Uiso   1.00
C622   C     0.84796   0.42132   0.92941   0.00000  Uiso   1.00
C623   C     0.79322   0.43820   0.90936   0.00000  Uiso   1.00
C624   C     0.89009   0.50292   0.56242   0.00000  Uiso   1.00
C625   C     0.96788   0.44846   0.55450   0.00000  Uiso   1.00
C626   C     0.71969   0.50064   0.91597   0.00000  Uiso   1.00
C627   C     0.68944   0.65286   0.74836   0.00000  Uiso   1.00
C628   C     0.70201   0.50112   0.85513   0.00000  Uiso   1.00
C629   C     0.97757   0.34722   0.75275   0.00000  Uiso   1.00
C630   C     0.98519   0.40177   0.75159   0.00000  Uiso   1.00
C631   C     0.96407   0.49593   0.64484   0.00000  Uiso   1.00
C632   C     0.93751   0.42862   0.50174   0.00000  Uiso   1.00
C633   C     0.94310   0.48483   0.58510   0.00000  Uiso   1.00
C634   C     0.69104   0.53056   0.95007   0.00000  Uiso   1.00
C635   C     0.71457   0.53974   0.50702   0.00000  Uiso   1.00
C636   C     0.76829   0.52190   0.52938   0.00000  Uiso   1.00
H637   H     0.67602   0.43398   0.57217   0.00000  Uiso   1.00
H638   H     0.93501   0.66337   0.75698   0.00000  Uiso   1.00
H639   H     0.82322   0.45837   0.70818   0.00000  Uiso   1.00
H640   H     0.84345   0.54161   0.79184   0.00000  Uiso   1.00
H641   H     0.95777   0.40076   0.97878   0.00000  Uiso   1.00
H642   H     0.87521   0.53422   0.58560   0.00000  Uiso   1.00
H643   H     0.98484   0.54822   0.93238   0.00000  Uiso   1.00
H644   H     0.78451   0.53036   0.57390   0.00000  Uiso   1.00
H645   H     0.69215   0.56230   0.53353   0.00000  Uiso   1.00
H646   H     0.76867   0.42042   0.86978   0.00000  Uiso   1.00
H647   H     0.73203   0.33672   0.74426   0.00000  Uiso   1.00
N648   N     0.81160   0.48556   0.73543   0.00000  Uiso   1.00
N649   N     0.85507   0.51444   0.76458   0.00000  Uiso   1.00
O650   O     0.96435   0.57963   0.75358   0.00000  Uiso   1.00
O651   O     0.72408   0.57038   0.74424   0.00000  Uiso   1.00
O652   O     0.98157   0.50691   0.83380   0.00000  Uiso   1.00
O653   O     0.74130   0.49766   0.82446   0.00000  Uiso   1.00
O654   O     0.94258   0.42962   0.75577   0.00000  Uiso   1.00
O655   O     0.70231   0.42037   0.74643   0.00000  Uiso   1.00
O656   O     0.92537   0.50234   0.67554   0.00000  Uiso   1.00
O657   O     0.68510   0.49309   0.66620   0.00000  Uiso   1.00
Zn658  Zn    0.93786   0.50618   0.75624   0.00000  Uiso   1.00
Zn659  Zn    0.72881   0.49382   0.74377   0.00000  Uiso   1.00
Br660  Br    0.87590   0.37029   0.88315   0.00000  Uiso   1.00
C661   C     0.01493   0.93159   0.74880   0.00000  Uiso   1.00
C662   C     0.13178   0.82608   0.99492   0.00000  Uiso   1.00
C663   C     0.10339   0.81004   0.93979   0.00000  Uiso   1.00
C664   C     0.18936   0.81277   0.51320   0.00000  Uiso   1.00
C665   C     0.21416   0.77626   0.98094   0.00000  Uiso   1.00
C666   C     0.18130   0.75465   0.92941   0.00000  Uiso   1.00
C667   C     0.12656   0.77153   0.90936   0.00000  Uiso   1.00
C668   C     0.22343   0.83626   0.56242   0.00000  Uiso   1.00
C669   C     0.30121   0.78179   0.55450   0.00000  Uiso   1.00
C670   C     0.05302   0.83397   0.91597   0.00000  Uiso   1.00
C671   C     0.02277   0.98619   0.74836   0.00000  Uiso   1.00
C672   C     0.03535   0.83446   0.85513   0.00000  Uiso   1.00
C673   C     0.31090   0.68055   0.75275   0.00000  Uiso   1.00
C674   C     0.31852   0.73510   0.75159   0.00000  Uiso   1.00
C675   C     0.29740   0.82927   0.64484   0.00000  Uiso   1.00
C676   C     0.27084   0.76196   0.50174   0.00000  Uiso   1.00
C677   C     0.27643   0.81817   0.58510   0.00000  Uiso   1.00
C678   C     0.02438   0.86390   0.95007   0.00000  Uiso   1.00
C679   C     0.04791   0.87308   0.50702   0.00000  Uiso   1.00
C680   C     0.10163   0.85524   0.52938   0.00000  Uiso   1.00
H681   H     0.00936   0.76732   0.57217   0.00000  Uiso   1.00
H682   H     0.26835   0.99670   0.75698   0.00000  Uiso   1.00
H683   H     0.15656   0.79170   0.70818   0.00000  Uiso   1.00
H684   H     0.17678   0.87494   0.79184   0.00000  Uiso   1.00
H685   H     0.29110   0.73409   0.97878   0.00000  Uiso   1.00
H686   H     0.20854   0.86755   0.58560   0.00000  Uiso   1.00
H687   H     0.31817   0.88155   0.93238   0.00000  Uiso   1.00
H688   H     0.11784   0.86370   0.57390   0.00000  Uiso   1.00
H689   H     0.02548   0.89563   0.53353   0.00000  Uiso   1.00
H690   H     0.10201   0.75375   0.86978   0.00000  Uiso   1.00
H691   H     0.06536   0.67005   0.74426   0.00000  Uiso   1.00
N692   N     0.14493   0.81890   0.73543   0.00000  Uiso   1.00
N693   N     0.18840   0.84777   0.76458   0.00000  Uiso   1.00
O694   O     0.29769   0.91296   0.75358   0.00000  Uiso   1.00
O695   O     0.05742   0.90371   0.74424   0.00000  Uiso   1.00
O696   O     0.31490   0.84024   0.83380   0.00000  Uiso   1.00
O697   O     0.07463   0.83099   0.82446   0.00000  Uiso   1.00
O698   O     0.27592   0.76296   0.75577   0.00000  Uiso   1.00
O699   O     0.03565   0.75371   0.74643   0.00000  Uiso   1.00
O700   O     0.25870   0.83567   0.67554   0.00000  Uiso   1.00
O701   O     0.01843   0.82642   0.66620   0.00000  Uiso   1.00
Zn702  Zn    0.27119   0.83951   0.75624   0.00000  Uiso   1.00
Zn703  Zn    0.06214   0.82716   0.74377   0.00000  Uiso   1.00
Br704  Br    0.20924   0.70362   0.88315   0.00000  Uiso   1.00
C705   C     0.34827   0.93159   0.74880   0.00000  Uiso   1.00
C706   C     0.46512   0.82608   0.99492   0.00000  Uiso   1.00
C707   C     0.43672   0.81004   0.93979   0.00000  Uiso   1.00
C708   C     0.52269   0.81277   0.51320   0.00000  Uiso   1.00
C709   C     0.54750   0.77626   0.98094   0.00000  Uiso   1.00
C710   C     0.51463   0.75465   0.92941   0.00000  Uiso   1.00
C711   C     0.45989   0.77153   0.90936   0.00000  Uiso   1.00
C712   C     0.55676   0.83626   0.56242   0.00000  Uiso   1.00
C713   C     0.63455   0.78179   0.55450   0.00000  Uiso   1.00
C714   C     0.38636   0.83397   0.91597   0.00000  Uiso   1.00
C715   C     0.35610   0.98619   0.74836   0.00000  Uiso   1.00
C716   C     0.36868   0.83446   0.85513   0.00000  Uiso   1.00
C717   C     0.64424   0.68055   0.75275   0.00000  Uiso   1.00
C718   C     0.65186   0.73510   0.75159   0.00000  Uiso   1.00
C719   C     0.63073   0.82927   0.64484   0.00000  Uiso   1.00
C720   C     0.60418   0.76196   0.50174   0.00000  Uiso   1.00
C721   C     0.60976   0.81817   0.58510   0.00000  Uiso   1.00
C722   C     0.35771   0.86390   0.95007   0.00000  Uiso   1.00
C723   C     0.38124   0.87308   0.50702   0.00000  Uiso   1.00
C724   C     0.43496   0.85524   0.52938   0.00000  Uiso   1.00
H725   H     0.34269   0.76732   0.57217   0.00000  Uiso   1.00
H726   H     0.60168   0.99670   0.75698   0.00000  Uiso   1.00
H727   H     0.48989   0.79170   0.70818   0.00000  Uiso   1.00
H728   H     0.51011   0.87494   0.79184   0.00000  Uiso   1.00
H729   H     0.62443   0.73409   0.97878   0.00000  Uiso   1.00
H730   H     0.54187   0.86755   0.58560   0.00000  Uiso   1.00
H731   H     0.65151   0.88155   0.93238   0.00000  Uiso   1.00
H732   H     0.45117   0.86370   0.57390   0.00000  Uiso   1.00
H733   H     0.35882   0.89563   0.53353   0.00000  Uiso   1.00
H734   H     0.43534   0.75375   0.86978   0.00000  Uiso   1.00
H735   H     0.39869   0.67005   0.74426   0.00000  Uiso   1.00
N736   N     0.47827   0.81890   0.73543   0.00000  Uiso   1.00
N737   N     0.52173   0.84777   0.76458   0.00000  Uiso   1.00
O738   O     0.63102   0.91296   0.75358   0.00000  Uiso   1.00
O739   O     0.39075   0.90371   0.74424   0.00000  Uiso   1.00
O740   O     0.64823   0.84024   0.83380   0.00000  Uiso   1.00
O741   O     0.40796   0.83099   0.82446   0.00000  Uiso   1.00
O742   O     0.60925   0.76296   0.75577   0.00000  Uiso   1.00
O743   O     0.36898   0.75371   0.74643   0.00000  Uiso   1.00
O744   O     0.59204   0.83567   0.67554   0.00000  Uiso   1.00
O745   O     0.35177   0.82642   0.66620   0.00000  Uiso   1.00
Zn746  Zn    0.60453   0.83951   0.75624   0.00000  Uiso   1.00
Zn747  Zn    0.39547   0.82716   0.74377   0.00000  Uiso   1.00
Br748  Br    0.54257   0.70362   0.88315   0.00000  Uiso   1.00
C749   C     0.68160   0.93159   0.74880   0.00000  Uiso   1.00
C750   C     0.79845   0.82608   0.99492   0.00000  Uiso   1.00
C751   C     0.77005   0.81004   0.93979   0.00000  Uiso   1.00
C752   C     0.85603   0.81277   0.51320   0.00000  Uiso   1.00
C753   C     0.88083   0.77626   0.98094   0.00000  Uiso   1.00
C754   C     0.84796   0.75465   0.92941   0.00000  Uiso   1.00
C755   C     0.79322   0.77153   0.90936   0.00000  Uiso   1.00
C756   C     0.89009   0.83626   0.56242   0.00000  Uiso   1.00
C757   C     0.96788   0.78179   0.55450   0.00000  Uiso   1.00
C758   C     0.71969   0.83397   0.91597   0.00000  Uiso   1.00
C759   C     0.68944   0.98619   0.74836   0.00000  Uiso   1.00
C760   C     0.70201   0.83446   0.85513   0.00000  Uiso   1.00
C761   C     0.97757   0.68055   0.75275   0.00000  Uiso   1.00
C762   C     0.98519   0.73510   0.75159   0.00000  Uiso   1.00
C763   C     0.96407   0.82927   0.64484   0.00000  Uiso   1.00
C764   C     0.93751   0.76196   0.50174   0.00000  Uiso   1.00
C765   C     0.94310   0.81817   0.58510   0.00000  Uiso   1.00
C766   C     0.69104   0.86390   0.95007   0.00000  Uiso   1.00
C767   C     0.71457   0.87308   0.50702   0.00000  Uiso   1.00
C768   C     0.76829   0.85524   0.52938   0.00000  Uiso   1.00
H769   H     0.67602   0.76732   0.57217   0.00000  Uiso   1.00
H770   H     0.93501   0.99670   0.75698   0.00000  Uiso   1.00
H771   H     0.82322   0.79170   0.70818   0.00000  Uiso   1.00
H772   H     0.84345   0.87494   0.79184   0.00000  Uiso   1.00
H773   H     0.95777   0.73409   0.97878   0.00000  Uiso   1.00
H774   H     0.87521   0.86755   0.58560   0.00000  Uiso   1.00
H775   H     0.98484   0.88155   0.93238   0.00000  Uiso   1.00
H776   H     0.78451   0.86370   0.57390   0.00000  Uiso   1.00
H777   H     0.69215   0.89563   0.53353   0.00000  Uiso   1.00
H778   H     0.76867   0.75375   0.86978   0.00000  Uiso   1.00
H779   H     0.73203   0.67005   0.74426   0.00000  Uiso   1.00
N780   N     0.81160   0.81890   0.73543   0.00000  Uiso   1.00
N781   N     0.85507   0.84777   0.76458   0.00000  Uiso   1.00
O782   O     0.96435   0.91296   0.75358   0.00000  Uiso   1.00
O783   O     0.72408   0.90371   0.74424   0.00000  Uiso   1.00
O784   O     0.98157   0.84024   0.83380   0.00000  Uiso   1.00
O785   O     0.74130   0.83099   0.82446   0.00000  Uiso   1.00
O786   O     0.94258   0.76296   0.75577   0.00000  Uiso   1.00
O787   O     0.70231   0.75371   0.74643   0.00000  Uiso   1.00
O788   O     0.92537   0.83567   0.67554   0.00000  Uiso   1.00
O789   O     0.68510   0.82642   0.66620   0.00000  Uiso   1.00
Zn790  Zn    0.93786   0.83951   0.75624   0.00000  Uiso   1.00
Zn791  Zn    0.72881   0.82716   0.74377   0.00000  Uiso   1.00
Br792  Br    0.87590   0.70362   0.88315   0.00000  Uiso   1.00
loop_
_geom_bond_atom_site_label_1
_geom_bond_atom_site_label_2
_geom_bond_distance
_geom_bond_site_symmetry_2
_ccdc_geom_bond_type
C1     O35     1.289   .     A
C1     C11     1.403   .     S
C1     O122    1.276   1_455 S
C2     C3      1.402   .     A
C2     C400    1.410   .     S
C2     C416    1.420   .     S
C3     C10     1.407   .     A
C3     C7      1.413   .     A
C4     C8      1.387   .     A
C4     C398    1.410   1_554 S
C4     C401    1.425   1_554 S
C5     C6      1.403   .     A
C5     C400    1.425   .     S
C5     C412    1.409   .     S
C6     C7      1.390   .     A
C6     Br44    1.924   .     S
C7     H30     1.082   .     S
C8     H26     1.080   .     S
C8     C17     1.380   .     A
C9     C17     1.398   .     A
C9     C16     1.393   .     A
C9     H65     1.083   .     S
C10    C12     1.452   .     S
C10    C18     1.403   .     A
C11    C233    1.339   1_455 S
C11    H163    1.088   .     S
C12    O37     1.298   .     A
C12    O124    1.290   1_455 S
C13    C14     1.403   .     S
C13    C319    1.339   1_545 S
C13    H286    1.088   1_545 S
C14    O38     1.289   .     A
C14    O83     1.276   .     S
C15    O40     1.297   .     A
C15    C17     1.444   .     S
C15    O85     1.289   .     S
C16    C401    1.409   1_554 S
C16    H421    1.081   1_554 S
C18    C415    1.386   .     S
C18    H115    1.083   1_455 S
C19    H29     1.083   .     S
C19    C20     1.390   .     A
C19    C414    1.386   1_554 S
C20    H28     1.079   .     S
C20    C398    1.420   1_554 S
H21    C97     1.083   1_455 S
H22    C145    1.088   .     S
H23    N32     1.029   .     S
H24    N33     1.029   .     S
H25    C412    1.081   .     S
H27    C62     1.083   .     S
H31    C275    1.088   1_545 S
N32    N33     1.287   .     D
N32    Zn43    2.019   .     S
N33    Zn42    2.019   .     S
O34    Zn42    1.952   .     S
O34    C45     1.276   .     S
O35    Zn43    1.979   .     S
O36    Zn42    1.956   .     S
O36    C56     1.290   .     S
O37    Zn43    1.917   .     S
O38    Zn42    1.979   .     S
O39    Zn43    1.952   .     S
O39    C102    1.276   1_455 S
O40    Zn42    1.917   .     S
O41    Zn43    1.956   .     S
O41    C103    1.289   1_455 S
C45    O79     1.289   .     A
C45    C55     1.403   .     S
C46    C47     1.402   .     A
C46    C444    1.410   .     S
C46    C460    1.420   .     S
C47    C54     1.407   .     A
C47    C51     1.413   .     A
C48    C52     1.387   .     A
C48    C442    1.410   1_554 S
C48    C445    1.425   1_554 S
C49    C50     1.403   .     A
C49    C444    1.425   .     S
C49    C456    1.409   .     S
C50    C51     1.390   .     A
C50    Br88    1.924   .     S
C51    H74     1.082   .     S
C52    H70     1.080   .     S
C52    C61     1.380   .     A
C53    C61     1.398   .     A
C53    C60     1.393   .     A
C53    H109    1.083   .     S
C54    C56     1.452   .     S
C54    C62     1.403   .     A
C55    C145    1.339   .     S
C55    H207    1.088   .     S
C56    O81     1.298   .     A
C57    C58     1.403   .     S
C57    C363    1.339   1_545 S
C57    H330    1.088   1_545 S
C58    O82     1.289   .     A
C58    O127    1.276   .     S
C59    O84     1.297   .     A
C59    C61     1.444   .     S
C59    O129    1.289   .     S
C60    C445    1.409   1_554 S
C60    H465    1.081   1_554 S
C62    C459    1.386   .     S
C63    H73     1.083   .     S
C63    C64     1.390   .     A
C63    C458    1.386   1_554 S
C64    H72     1.079   .     S
C64    C442    1.420   1_554 S
H66    C189    1.088   .     S
H67    N76     1.029   .     S
H68    N77     1.029   .     S
H69    C456    1.081   .     S
H71    C106    1.083   .     S
H75    C319    1.088   1_545 S
N76    N77     1.287   .     D
N76    Zn87    2.019   .     S
N77    Zn86    2.019   .     S
O78    Zn86    1.952   .     S
O78    C89     1.276   .     S
O79    Zn87    1.979   .     S
O80    Zn86    1.956   .     S
O80    C100    1.290   .     S
O81    Zn87    1.917   .     S
O82    Zn86    1.979   .     S
O83    Zn87    1.952   .     S
O84    Zn86    1.917   .     S
O85    Zn87    1.956   .     S
C89    O123    1.289   .     A
C89    C99     1.403   .     S
C90    C91     1.402   .     A
C90    C488    1.410   .     S
C90    C504    1.420   .     S
C91    C98     1.407   .     A
C91    C95     1.413   .     A
C92    C96     1.387   .     A
C92    C486    1.410   1_554 S
C92    C489    1.425   1_554 S
C93    C94     1.403   .     A
C93    C488    1.425   .     S
C93    C500    1.409   .     S
C94    C95     1.390   .     A
C94    Br132   1.924   .     S
C95    H118    1.082   .     S
C96    H114    1.080   .     S
C96    C105    1.380   .     A
C97    C105    1.398   .     A
C97    C104    1.393   .     A
C97    H21     1.083   1_655 S
C98    C100    1.452   .     S
C98    C106    1.403   .     A
C99    C189    1.339   .     S
C99    H251    1.088   .     S
C100   O125    1.298   .     A
C101   C102    1.403   .     S
C101   C275    1.339   1_645 S
C101   H374    1.088   1_545 S
C102   O126    1.289   .     A
C102   O39     1.276   1_655 S
C103   O128    1.297   .     A
C103   C105    1.444   .     S
C103   O41     1.289   1_655 S
C104   C489    1.409   1_554 S
C104   H509    1.081   1_554 S
C106   C503    1.386   .     S
C107   H117    1.083   .     S
C107   C108    1.390   .     A
C107   C502    1.386   1_554 S
C108   H116    1.079   .     S
C108   C486    1.420   1_554 S
H110   C233    1.088   .     S
H111   N120    1.029   .     S
H112   N121    1.029   .     S
H113   C500    1.081   .     S
H115   C18     1.083   1_655 S
H119   C363    1.088   1_545 S
N120   N121    1.287   .     D
N120   Zn131   2.019   .     S
N121   Zn130   2.019   .     S
O122   Zn130   1.952   .     S
O122   C1      1.276   1_655 S
O123   Zn131   1.979   .     S
O124   Zn130   1.956   .     S
O124   C12     1.290   1_655 S
O125   Zn131   1.917   .     S
O126   Zn130   1.979   .     S
O127   Zn131   1.952   .     S
O128   Zn130   1.917   .     S
O129   Zn131   1.956   .     S
C133   O167    1.289   .     A
C133   C143    1.403   .     S
C133   O254    1.276   1_455 S
C134   C135    1.402   .     A
C134   C532    1.410   .     S
C134   C548    1.420   .     S
C135   C142    1.407   .     A
C135   C139    1.413   .     A
C136   C140    1.387   .     A
C136   C530    1.410   1_554 S
C136   C533    1.425   1_554 S
C137   C138    1.403   .     A
C137   C532    1.425   .     S
C137   C544    1.409   .     S
C138   C139    1.390   .     A
C138   Br176   1.924   .     S
C139   H162    1.082   .     S
C140   H158    1.080   .     S
C140   C149    1.380   .     A
C141   C149    1.398   .     A
C141   C148    1.393   .     A
C141   H197    1.083   .     S
C142   C144    1.452   .     S
C142   C150    1.403   .     A
C143   C365    1.339   1_455 S
C143   H295    1.088   .     S
C144   O169    1.298   .     A
C144   O256    1.290   1_455 S
C145   C146    1.403   .     S
C146   O170    1.289   .     A
C146   O215    1.276   .     S
C147   O172    1.297   .     A
C147   C149    1.444   .     S
C147   O217    1.289   .     S
C148   C533    1.409   1_554 S
C148   H553    1.081   1_554 S
C150   C547    1.386   .     S
C150   H247    1.083   1_455 S
C151   H161    1.083   .     S
C151   C152    1.390   .     A
C151   C546    1.386   1_554 S
C152   H160    1.079   .     S
C152   C530    1.420   1_554 S
H153   C229    1.083   1_455 S
H154   C277    1.088   .     S
H155   N164    1.029   .     S
H156   N165    1.029   .     S
H157   C544    1.081   .     S
H159   C194    1.083   .     S
N164   N165    1.287   .     D
N164   Zn175   2.019   .     S
N165   Zn174   2.019   .     S
O166   Zn174   1.952   .     S
O166   C177    1.276   .     S
O167   Zn175   1.979   .     S
O168   Zn174   1.956   .     S
O168   C188    1.290   .     S
O169   Zn175   1.917   .     S
O170   Zn174   1.979   .     S
O171   Zn175   1.952   .     S
O171   C234    1.276   1_455 S
O172   Zn174   1.917   .     S
O173   Zn175   1.956   .     S
O173   C235    1.289   1_455 S
C177   O211    1.289   .     A
C177   C187    1.403   .     S
C178   C179    1.402   .     A
C178   C576    1.410   .     S
C178   C592    1.420   .     S
C179   C186    1.407   .     A
C179   C183    1.413   .     A
C180   C184    1.387   .     A
C180   C574    1.410   1_554 S
C180   C577    1.425   1_554 S
C181   C182    1.403   .     A
C181   C576    1.425   .     S
C181   C588    1.409   .     S
C182   C183    1.390   .     A
C182   Br220   1.924   .     S
C183   H206    1.082   .     S
C184   H202    1.080   .     S
C184   C193    1.380   .     A
C185   C193    1.398   .     A
C185   C192    1.393   .     A
C185   H241    1.083   .     S
C186   C188    1.452   .     S
C186   C194    1.403   .     A
C187   C277    1.339   .     S
C187   H339    1.088   .     S
C188   O213    1.298   .     A
C189   C190    1.403   .     S
C190   O214    1.289   .     A
C190   O259    1.276   .     S
C191   O216    1.297   .     A
C191   C193    1.444   .     S
C191   O261    1.289   .     S
C192   C577    1.409   1_554 S
C192   H597    1.081   1_554 S
C194   C591    1.386   .     S
C195   H205    1.083   .     S
C195   C196    1.390   .     A
C195   C590    1.386   1_554 S
C196   H204    1.079   .     S
C196   C574    1.420   1_554 S
H198   C321    1.088   .     S
H199   N208    1.029   .     S
H200   N209    1.029   .     S
H201   C588    1.081   .     S
H203   C238    1.083   .     S
N208   N209    1.287   .     D
N208   Zn219   2.019   .     S
N209   Zn218   2.019   .     S
O210   Zn218   1.952   .     S
O210   C221    1.276   .     S
O211   Zn219   1.979   .     S
O212   Zn218   1.956   .     S
O212   C232    1.290   .     S
O213   Zn219   1.917   .     S
O214   Zn218   1.979   .     S
O215   Zn219   1.952   .     S
O216   Zn218   1.917   .     S
O217   Zn219   1.956   .     S
C221   O255    1.289   .     A
C221   C231    1.403   .     S
C222   C223    1.402   .     A
C222   C620    1.410   .     S
C222   C636    1.420   .     S
C223   C230    1.407   .     A
C223   C227    1.413   .     A
C224   C228    1.387   .     A
C224   C618    1.410   1_554 S
C224   C621    1.425   1_554 S
C225   C226    1.403   .     A
C225   C620    1.425   .     S
C225   C632    1.409   .     S
C226   C227    1.390   .     A
C226   Br264   1.924   .     S
C227   H250    1.082   .     S
C228   H246    1.080   .     S
C228   C237    1.380   .     A
C229   C237    1.398   .     A
C229   C236    1.393   .     A
C229   H153    1.083   1_655 S
C230   C232    1.452   .     S
C230   C238    1.403   .     A
C231   C321    1.339   .     S
C231   H383    1.088   .     S
C232   O257    1.298   .     A
C233   C234    1.403   .     S
C233   C11     1.339   1_655 S
C234   O258    1.289   .     A
C234   O171    1.276   1_655 S
C235   O260    1.297   .     A
C235   C237    1.444   .     S
C235   O173    1.289   1_655 S
C236   C621    1.409   1_554 S
C236   H641    1.081   1_554 S
C238   C635    1.386   .     S
C239   H249    1.083   .     S
C239   C240    1.390   .     A
C239   C634    1.386   1_554 S
C240   H248    1.079   .     S
C240   C618    1.420   1_554 S
H242   C365    1.088   .     S
H243   N252    1.029   .     S
H244   N253    1.029   .     S
H245   C632    1.081   .     S
H247   C150    1.083   1_655 S
N252   N253    1.287   .     D
N252   Zn263   2.019   .     S
N253   Zn262   2.019   .     S
O254   Zn262   1.952   .     S
O254   C133    1.276   1_655 S
O255   Zn263   1.979   .     S
O256   Zn262   1.956   .     S
O256   C144    1.290   1_655 S
O257   Zn263   1.917   .     S
O258   Zn262   1.979   .     S
O259   Zn263   1.952   .     S
O260   Zn262   1.917   .     S
O261   Zn263   1.956   .     S
C265   O299    1.289   .     A
C265   C275    1.403   .     S
C265   O386    1.276   1_455 S
C266   C267    1.402   .     A
C266   C664    1.410   .     S
C266   C680    1.420   .     S
C267   C274    1.407   .     A
C267   C271    1.413   .     A
C268   C272    1.387   .     A
C268   C662    1.410   1_554 S
C268   C665    1.425   1_554 S
C269   C270    1.403   .     A
C269   C664    1.425   .     S
C269   C676    1.409   .     S
C270   C271    1.390   .     A
C270   Br308   1.924   .     S
C271   H294    1.082   .     S
C272   H290    1.080   .     S
C272   C281    1.380   .     A
C273   C281    1.398   .     A
C273   C280    1.393   .     A
C273   H329    1.083   .     S
C274   C276    1.452   .     S
C274   C282    1.403   .     A
C275   C101    1.339   1_465 S
C275   H31     1.088   1_565 S
C276   O301    1.298   .     A
C276   O388    1.290   1_455 S
C277   C278    1.403   .     S
C278   O302    1.289   .     A
C278   O347    1.276   .     S
C279   O304    1.297   .     A
C279   C281    1.444   .     S
C279   O349    1.289   .     S
C280   C665    1.409   1_554 S
C280   H685    1.081   1_554 S
C282   C679    1.386   .     S
C282   H379    1.083   1_455 S
C283   H293    1.083   .     S
C283   C284    1.390   .     A
C283   C678    1.386   1_554 S
C284   H292    1.079   .     S
C284   C662    1.420   1_554 S
H285   C361    1.083   1_455 S
H286   C13     1.088   1_565 S
H287   N296    1.029   .     S
H288   N297    1.029   .     S
H289   C676    1.081   .     S
H291   C326    1.083   .     S
N296   N297    1.287   .     D
N296   Zn307   2.019   .     S
N297   Zn306   2.019   .     S
O298   Zn306   1.952   .     S
O298   C309    1.276   .     S
O299   Zn307   1.979   .     S
O300   Zn306   1.956   .     S
O300   C320    1.290   .     S
O301   Zn307   1.917   .     S
O302   Zn306   1.979   .     S
O303   Zn307   1.952   .     S
O303   C366    1.276   1_455 S
O304   Zn306   1.917   .     S
O305   Zn307   1.956   .     S
O305   C367    1.289   1_455 S
C309   O343    1.289   .     A
C309   C319    1.403   .     S
C310   C311    1.402   .     A
C310   C708    1.410   .     S
C310   C724    1.420   .     S
C311   C318    1.407   .     A
C311   C315    1.413   .     A
C312   C316    1.387   .     A
C312   C706    1.410   1_554 S
C312   C709    1.425   1_554 S
C313   C314    1.403   .     A
C313   C708    1.425   .     S
C313   C720    1.409   .     S
C314   C315    1.390   .     A
C314   Br352   1.924   .     S
C315   H338    1.082   .     S
C316   H334    1.080   .     S
C316   C325    1.380   .     A
C317   C325    1.398   .     A
C317   C324    1.393   .     A
C317   H373    1.083   .     S
C318   C320    1.452   .     S
C318   C326    1.403   .     A
C319   C13     1.339   1_565 S
C319   H75     1.088   1_565 S
C320   O345    1.298   .     A
C321   C322    1.403   .     S
C322   O346    1.289   .     A
C322   O391    1.276   .     S
C323   O348    1.297   .     A
C323   C325    1.444   .     S
C323   O393    1.289   .     S
C324   C709    1.409   1_554 S
C324   H729    1.081   1_554 S
C326   C723    1.386   .     S
C327   H337    1.083   .     S
C327   C328    1.390   .     A
C327   C722    1.386   1_554 S
C328   H336    1.079   .     S
C328   C706    1.420   1_554 S
H330   C57     1.088   1_565 S
H331   N340    1.029   .     S
H332   N341    1.029   .     S
H333   C720    1.081   .     S
H335   C370    1.083   .     S
N340   N341    1.287   .     D
N340   Zn351   2.019   .     S
N341   Zn350   2.019   .     S
O342   Zn350   1.952   .     S
O342   C353    1.276   .     S
O343   Zn351   1.979   .     S
O344   Zn350   1.956   .     S
O344   C364    1.290   .     S
O345   Zn351   1.917   .     S
O346   Zn350   1.979   .     S
O347   Zn351   1.952   .     S
O348   Zn350   1.917   .     S
O349   Zn351   1.956   .     S
C353   O387    1.289   .     A
C353   C363    1.403   .     S
C354   C355    1.402   .     A
C354   C752    1.410   .     S
C354   C768    1.420   .     S
C355   C362    1.407   .     A
C355   C359    1.413   .     A
C356   C360    1.387   .     A
C356   C750    1.410   1_554 S
C356   C753    1.425   1_554 S
C357   C358    1.403   .     A
C357   C752    1.425   .     S
C357   C764    1.409   .     S
C358   C359    1.390   .     A
C358   Br396   1.924   .     S
C359   H382    1.082   .     S
C360   H378    1.080   .     S
C360   C369    1.380   .     A
C361   C369    1.398   .     A
C361   C368    1.393   .     A
C361   H285    1.083   1_655 S
C362   C364    1.452   .     S
C362   C370    1.403   .     A
C363   C57     1.339   1_565 S
C363   H119    1.088   1_565 S
C364   O389    1.298   .     A
C365   C366    1.403   .     S
C365   C143    1.339   1_655 S
C366   O390    1.289   .     A
C366   O303    1.276   1_655 S
C367   O392    1.297   .     A
C367   C369    1.444   .     S
C367   O305    1.289   1_655 S
C368   C753    1.409   1_554 S
C368   H773    1.081   1_554 S
C370   C767    1.386   .     S
C371   H381    1.083   .     S
C371   C372    1.390   .     A
C371   C766    1.386   1_554 S
C372   H380    1.079   .     S
C372   C750    1.420   1_554 S
H374   C101    1.088   1_565 S
H375   N384    1.029   .     S
H376   N385    1.029   .     S
H377   C764    1.081   .     S
H379   C282    1.083   1_655 S
N384   N385    1.287   .     D
N384   Zn395   2.019   .     S
N385   Zn394   2.019   .     S
O386   Zn394   1.952   .     S
O386   C265    1.276   1_655 S
O387   Zn395   1.979   .     S
O388   Zn394   1.956   .     S
O388   C276    1.290   1_655 S
O389   Zn395   1.917   .     S
O390   Zn394   1.979   .     S
O391   Zn395   1.952   .     S
O392   Zn394   1.917   .     S
O393   Zn395   1.956   .     S
C397   O431    1.289   .     A
C397   C407    1.403   .     S
C397   O518    1.276   1_455 S
C398   C399    1.402   .     A
C398   C4      1.410   1_556 S
C398   C20     1.420   1_556 S
C399   C406    1.407   .     A
C399   C403    1.413   .     A
C400   C404    1.387   .     A
C401   C402    1.403   .     A
C401   C4      1.425   1_556 S
C401   C16     1.409   1_556 S
C402   C403    1.390   .     A
C402   Br440   1.924   .     S
C403   H426    1.082   .     S
C404   H422    1.080   .     S
C404   C413    1.380   .     A
C405   C413    1.398   .     A
C405   C412    1.393   .     A
C405   H461    1.083   .     S
C406   C408    1.452   .     S
C406   C414    1.403   .     A
C407   C629    1.339   1_455 S
C407   H559    1.088   .     S
C408   O433    1.298   .     A
C408   O520    1.290   1_455 S
C409   C410    1.403   .     S
C409   C715    1.339   1_545 S
C409   H682    1.088   1_545 S
C410   O434    1.289   .     A
C410   O479    1.276   .     S
C411   O436    1.297   .     A
C411   C413    1.444   .     S
C411   O481    1.289   .     S
C414   C19     1.386   1_556 S
C414   H511    1.083   1_455 S
C415   H425    1.083   .     S
C415   C416    1.390   .     A
C416   H424    1.079   .     S
H417   C493    1.083   1_455 S
H418   C541    1.088   .     S
H419   N428    1.029   .     S
H420   N429    1.029   .     S
H421   C16     1.081   1_556 S
H423   C458    1.083   .     S
H427   C671    1.088   1_545 S
N428   N429    1.287   .     D
N428   Zn439   2.019   .     S
N429   Zn438   2.019   .     S
O430   Zn438   1.952   .     S
O430   C441    1.276   .     S
O431   Zn439   1.979   .     S
O432   Zn438   1.956   .     S
O432   C452    1.290   .     S
O433   Zn439   1.917   .     S
O434   Zn438   1.979   .     S
O435   Zn439   1.952   .     S
O435   C498    1.276   1_455 S
O436   Zn438   1.917   .     S
O437   Zn439   1.956   .     S
O437   C499    1.289   1_455 S
C441   O475    1.289   .     A
C441   C451    1.403   .     S
C442   C443    1.402   .     A
C442   C48     1.410   1_556 S
C442   C64     1.420   1_556 S
C443   C450    1.407   .     A
C443   C447    1.413   .     A
C444   C448    1.387   .     A
C445   C446    1.403   .     A
C445   C48     1.425   1_556 S
C445   C60     1.409   1_556 S
C446   C447    1.390   .     A
C446   Br484   1.924   .     S
C447   H470    1.082   .     S
C448   H466    1.080   .     S
C448   C457    1.380   .     A
C449   C457    1.398   .     A
C449   C456    1.393   .     A
C449   H505    1.083   .     S
C450   C452    1.452   .     S
C450   C458    1.403   .     A
C451   C541    1.339   .     S
C451   H603    1.088   .     S
C452   O477    1.298   .     A
C453   C454    1.403   .     S
C453   C759    1.339   1_545 S
C453   H726    1.088   1_545 S
C454   O478    1.289   .     A
C454   O523    1.276   .     S
C455   O480    1.297   .     A
C455   C457    1.444   .     S
C455   O525    1.289   .     S
C458   C63     1.386   1_556 S
C459   H469    1.083   .     S
C459   C460    1.390   .     A
C460   H468    1.079   .     S
H462   C585    1.088   .     S
H463   N472    1.029   .     S
H464   N473    1.029   .     S
H465   C60     1.081   1_556 S
H467   C502    1.083   .     S
H471   C715    1.088   1_545 S
N472   N473    1.287   .     D
N472   Zn483   2.019   .     S
N473   Zn482   2.019   .     S
O474   Zn482   1.952   .     S
O474   C485    1.276   .     S
O475   Zn483   1.979   .     S
O476   Zn482   1.956   .     S
O476   C496    1.290   .     S
O477   Zn483   1.917   .     S
O478   Zn482   1.979   .     S
O479   Zn483   1.952   .     S
O480   Zn482   1.917   .     S
O481   Zn483   1.956   .     S
C485   O519    1.289   .     A
C485   C495    1.403   .     S
C486   C487    1.402   .     A
C486   C92     1.410   1_556 S
C486   C108    1.420   1_556 S
C487   C494    1.407   .     A
C487   C491    1.413   .     A
C488   C492    1.387   .     A
C489   C490    1.403   .     A
C489   C92     1.425   1_556 S
C489   C104    1.409   1_556 S
C490   C491    1.390   .     A
C490   Br528   1.924   .     S
C491   H514    1.082   .     S
C492   H510    1.080   .     S
C492   C501    1.380   .     A
C493   C501    1.398   .     A
C493   C500    1.393   .     A
C493   H417    1.083   1_655 S
C494   C496    1.452   .     S
C494   C502    1.403   .     A
C495   C585    1.339   .     S
C495   H647    1.088   .     S
C496   O521    1.298   .     A
C497   C498    1.403   .     S
C497   C671    1.339   1_645 S
C497   H770    1.088   1_545 S
C498   O522    1.289   .     A
C498   O435    1.276   1_655 S
C499   O524    1.297   .     A
C499   C501    1.444   .     S
C499   O437    1.289   1_655 S
C502   C107    1.386   1_556 S
C503   H513    1.083   .     S
C503   C504    1.390   .     A
C504   H512    1.079   .     S
H506   C629    1.088   .     S
H507   N516    1.029   .     S
H508   N517    1.029   .     S
H509   C104    1.081   1_556 S
H511   C414    1.083   1_655 S
H515   C759    1.088   1_545 S
N516   N517    1.287   .     D
N516   Zn527   2.019   .     S
N517   Zn526   2.019   .     S
O518   Zn526   1.952   .     S
O518   C397    1.276   1_655 S
O519   Zn527   1.979   .     S
O520   Zn526   1.956   .     S
O520   C408    1.290   1_655 S
O521   Zn527   1.917   .     S
O522   Zn526   1.979   .     S
O523   Zn527   1.952   .     S
O524   Zn526   1.917   .     S
O525   Zn527   1.956   .     S
C529   O563    1.289   .     A
C529   C539    1.403   .     S
C529   O650    1.276   1_455 S
C530   C531    1.402   .     A
C530   C136    1.410   1_556 S
C530   C152    1.420   1_556 S
C531   C538    1.407   .     A
C531   C535    1.413   .     A
C532   C536    1.387   .     A
C533   C534    1.403   .     A
C533   C136    1.425   1_556 S
C533   C148    1.409   1_556 S
C534   C535    1.390   .     A
C534   Br572   1.924   .     S
C535   H558    1.082   .     S
C536   H554    1.080   .     S
C536   C545    1.380   .     A
C537   C545    1.398   .     A
C537   C544    1.393   .     A
C537   H593    1.083   .     S
C538   C540    1.452   .     S
C538   C546    1.403   .     A
C539   C761    1.339   1_455 S
C539   H691    1.088   .     S
C540   O565    1.298   .     A
C540   O652    1.290   1_455 S
C541   C542    1.403   .     S
C542   O566    1.289   .     A
C542   O611    1.276   .     S
C543   O568    1.297   .     A
C543   C545    1.444   .     S
C543   O613    1.289   .     S
C546   C151    1.386   1_556 S
C546   H643    1.083   1_455 S
C547   H557    1.083   .     S
C547   C548    1.390   .     A
C548   H556    1.079   .     S
H549   C625    1.083   1_455 S
H550   C673    1.088   .     S
H551   N560    1.029   .     S
H552   N561    1.029   .     S
H553   C148    1.081   1_556 S
H555   C590    1.083   .     S
N560   N561    1.287   .     D
N560   Zn571   2.019   .     S
N561   Zn570   2.019   .     S
O562   Zn570   1.952   .     S
O562   C573    1.276   .     S
O563   Zn571   1.979   .     S
O564   Zn570   1.956   .     S
O564   C584    1.290   .     S
O565   Zn571   1.917   .     S
O566   Zn570   1.979   .     S
O567   Zn571   1.952   .     S
O567   C630    1.276   1_455 S
O568   Zn570   1.917   .     S
O569   Zn571   1.956   .     S
O569   C631    1.289   1_455 S
C573   O607    1.289   .     A
C573   C583    1.403   .     S
C574   C575    1.402   .     A
C574   C180    1.410   1_556 S
C574   C196    1.420   1_556 S
C575   C582    1.407   .     A
C575   C579    1.413   .     A
C576   C580    1.387   .     A
C577   C578    1.403   .     A
C577   C180    1.425   1_556 S
C577   C192    1.409   1_556 S
C578   C579    1.390   .     A
C578   Br616   1.924   .     S
C579   H602    1.082   .     S
C580   H598    1.080   .     S
C580   C589    1.380   .     A
C581   C589    1.398   .     A
C581   C588    1.393   .     A
C581   H637    1.083   .     S
C582   C584    1.452   .     S
C582   C590    1.403   .     A
C583   C673    1.339   .     S
C583   H735    1.088   .     S
C584   O609    1.298   .     A
C585   C586    1.403   .     S
C586   O610    1.289   .     A
C586   O655    1.276   .     S
C587   O612    1.297   .     A
C587   C589    1.444   .     S
C587   O657    1.289   .     S
C590   C195    1.386   1_556 S
C591   H601    1.083   .     S
C591   C592    1.390   .     A
C592   H600    1.079   .     S
H594   C717    1.088   .     S
H595   N604    1.029   .     S
H596   N605    1.029   .     S
H597   C192    1.081   1_556 S
H599   C634    1.083   .     S
N604   N605    1.287   .     D
N604   Zn615   2.019   .     S
N605   Zn614   2.019   .     S
O606   Zn614   1.952   .     S
O606   C617    1.276   .     S
O607   Zn615   1.979   .     S
O608   Zn614   1.956   .     S
O608   C628    1.290   .     S
O609   Zn615   1.917   .     S
O610   Zn614   1.979   .     S
O611   Zn615   1.952   .     S
O612   Zn614   1.917   .     S
O613   Zn615   1.956   .     S
C617   O651    1.289   .     A
C617   C627    1.403   .     S
C618   C619    1.402   .     A
C618   C224    1.410   1_556 S
C618   C240    1.420   1_556 S
C619   C626    1.407   .     A
C619   C623    1.413   .     A
C620   C624    1.387   .     A
C621   C622    1.403   .     A
C621   C224    1.425   1_556 S
C621   C236    1.409   1_556 S
C622   C623    1.390   .     A
C622   Br660   1.924   .     S
C623   H646    1.082   .     S
C624   H642    1.080   .     S
C624   C633    1.380   .     A
C625   C633    1.398   .     A
C625   C632    1.393   .     A
C625   H549    1.083   1_655 S
C626   C628    1.452   .     S
C626   C634    1.403   .     A
C627   C717    1.339   .     S
C627   H779    1.088   .     S
C628   O653    1.298   .     A
C629   C630    1.403   .     S
C629   C407    1.339   1_655 S
C630   O654    1.289   .     A
C630   O567    1.276   1_655 S
C631   O656    1.297   .     A
C631   C633    1.444   .     S
C631   O569    1.289   1_655 S
C634   C239    1.386   1_556 S
C635   H645    1.083   .     S
C635   C636    1.390   .     A
C636   H644    1.079   .     S
H638   C761    1.088   .     S
H639   N648    1.029   .     S
H640   N649    1.029   .     S
H641   C236    1.081   1_556 S
H643   C546    1.083   1_655 S
N648   N649    1.287   .     D
N648   Zn659   2.019   .     S
N649   Zn658   2.019   .     S
O650   Zn658   1.952   .     S
O650   C529    1.276   1_655 S
O651   Zn659   1.979   .     S
O652   Zn658   1.956   .     S
O652   C540    1.290   1_655 S
O653   Zn659   1.917   .     S
O654   Zn658   1.979   .     S
O655   Zn659   1.952   .     S
O656   Zn658   1.917   .     S
O657   Zn659   1.956   .     S
C661   O695    1.289   .     A
C661   C671    1.403   .     S
C661   O782    1.276   1_455 S
C662   C663    1.402   .     A
C662   C268    1.410   1_556 S
C662   C284    1.420   1_556 S
C663   C670    1.407   .     A
C663   C667    1.413   .     A
C664   C668    1.387   .     A
C665   C666    1.403   .     A
C665   C268    1.425   1_556 S
C665   C280    1.409   1_556 S
C666   C667    1.390   .     A
C666   Br704   1.924   .     S
C667   H690    1.082   .     S
C668   H686    1.080   .     S
C668   C677    1.380   .     A
C669   C677    1.398   .     A
C669   C676    1.393   .     A
C669   H725    1.083   .     S
C670   C672    1.452   .     S
C670   C678    1.403   .     A
C671   C497    1.339   1_465 S
C671   H427    1.088   1_565 S
C672   O697    1.298   .     A
C672   O784    1.290   1_455 S
C673   C674    1.403   .     S
C674   O698    1.289   .     A
C674   O743    1.276   .     S
C675   O700    1.297   .     A
C675   C677    1.444   .     S
C675   O745    1.289   .     S
C678   C283    1.386   1_556 S
C678   H775    1.083   1_455 S
C679   H689    1.083   .     S
C679   C680    1.390   .     A
C680   H688    1.079   .     S
H681   C757    1.083   1_455 S
H682   C409    1.088   1_565 S
H683   N692    1.029   .     S
H684   N693    1.029   .     S
H685   C280    1.081   1_556 S
H687   C722    1.083   .     S
N692   N693    1.287   .     D
N692   Zn703   2.019   .     S
N693   Zn702   2.019   .     S
O694   Zn702   1.952   .     S
O694   C705    1.276   .     S
O695   Zn703   1.979   .     S
O696   Zn702   1.956   .     S
O696   C716    1.290   .     S
O697   Zn703   1.917   .     S
O698   Zn702   1.979   .     S
O699   Zn703   1.952   .     S
O699   C762    1.276   1_455 S
O700   Zn702   1.917   .     S
O701   Zn703   1.956   .     S
O701   C763    1.289   1_455 S
C705   O739    1.289   .     A
C705   C715    1.403   .     S
C706   C707    1.402   .     A
C706   C312    1.410   1_556 S
C706   C328    1.420   1_556 S
C707   C714    1.407   .     A
C707   C711    1.413   .     A
C708   C712    1.387   .     A
C709   C710    1.403   .     A
C709   C312    1.425   1_556 S
C709   C324    1.409   1_556 S
C710   C711    1.390   .     A
C710   Br748   1.924   .     S
C711   H734    1.082   .     S
C712   H730    1.080   .     S
C712   C721    1.380   .     A
C713   C721    1.398   .     A
C713   C720    1.393   .     A
C713   H769    1.083   .     S
C714   C716    1.452   .     S
C714   C722    1.403   .     A
C715   C409    1.339   1_565 S
C715   H471    1.088   1_565 S
C716   O741    1.298   .     A
C717   C718    1.403   .     S
C718   O742    1.289   .     A
C718   O787    1.276   .     S
C719   O744    1.297   .     A
C719   C721    1.444   .     S
C719   O789    1.289   .     S
C722   C327    1.386   1_556 S
C723   H733    1.083   .     S
C723   C724    1.390   .     A
C724   H732    1.079   .     S
H726   C453    1.088   1_565 S
H727   N736    1.029   .     S
H728   N737    1.029   .     S
H729   C324    1.081   1_556 S
H731   C766    1.083   .     S
N736   N737    1.287   .     D
N736   Zn747   2.019   .     S
N737   Zn746   2.019   .     S
O738   Zn746   1.952   .     S
O738   C749    1.276   .     S
O739   Zn747   1.979   .     S
O740   Zn746   1.956   .     S
O740   C760    1.290   .     S
O741   Zn747   1.917   .     S
O742   Zn746   1.979   .     S
O743   Zn747   1.952   .     S
O744   Zn746   1.917   .     S
O745   Zn747   1.956   .     S
C749   O783    1.289   .     A
C749   C759    1.403   .     S
C750   C751    1.402   .     A
C750   C356    1.410   1_556 S
C750   C372    1.420   1_556 S
C751   C758    1.407   .     A
C751   C755    1.413   .     A
C752   C756    1.387   .     A
C753   C754    1.403   .     A
C753   C356    1.425   1_556 S
C753   C368    1.409   1_556 S
C754   C755    1.390   .     A
C754   Br792   1.924   .     S
C755   H778    1.082   .     S
C756   H774    1.080   .     S
C756   C765    1.380   .     A
C757   C765    1.398   .     A
C757   C764    1.393   .     A
C757   H681    1.083   1_655 S
C758   C760    1.452   .     S
C758   C766    1.403   .     A
C759   C453    1.339   1_565 S
C759   H515    1.088   1_565 S
C760   O785    1.298   .     A
C761   C762    1.403   .     S
C761   C539    1.339   1_655 S
C762   O786    1.289   .     A
C762   O699    1.276   1_655 S
C763   O788    1.297   .     A
C763   C765    1.444   .     S
C763   O701    1.289   1_655 S
C766   C371    1.386   1_556 S
C767   H777    1.083   .     S
C767   C768    1.390   .     A
C768   H776    1.079   .     S
H770   C497    1.088   1_565 S
H771   N780    1.029   .     S
H772   N781    1.029   .     S
H773   C368    1.081   1_556 S
H775   C678    1.083   1_655 S
N780   N781    1.287   .     D
N780   Zn791   2.019   .     S
N781   Zn790   2.019   .     S
O782   Zn790   1.952   .     S
O782   C661    1.276   1_655 S
O783   Zn791   1.979   .     S
O784   Zn790   1.956   .     S
O784   C672    1.290   1_655 S
O785   Zn791   1.917   .     S
O786   Zn790   1.979   .     S
O787   Zn791   1.952   .     S
O788   Zn790   1.917   .     S
O789   Zn791   1.956   .     S
