data_str_m2_o2_o10_pcu_sym.64
_audit_creation_date              2020-01-03
_audit_creation_method            'Materials Studio'
_symmetry_space_group_name_H-M    'P1'
_symmetry_Int_Tables_number       1
_symmetry_cell_setting            triclinic
loop_
_symmetry_equiv_pos_as_xyz
  x,y,z
_cell_length_a                    26.5307
_cell_length_b                    30.3153
_cell_length_c                    27.8744
_cell_angle_alpha                 90.2627
_cell_angle_beta                  97.4431
_cell_angle_gamma                 91.9123
loop_
_atom_site_label
_atom_site_type_symbol
_atom_site_fract_x
_atom_site_fract_y
_atom_site_fract_z
_atom_site_U_iso_or_equiv
_atom_site_adp_type
_atom_site_occupancy
Br1    Br    0.32236   0.28183   0.17121   0.00000  Uiso   1.00
Br2    Br    0.01186   0.21985   0.33001   0.00000  Uiso   1.00
Br3    Br    0.06489   0.12110   0.27833   0.00000  Uiso   1.00
Br4    Br    0.24352   0.38173   0.18320   0.00000  Uiso   1.00
Br5    Br    0.26755   0.12732   0.21999   0.00000  Uiso   1.00
Br6    Br    0.09273   0.37642   0.32046   0.00000  Uiso   1.00
Br7    Br    0.08698   0.18144   0.12439   0.00000  Uiso   1.00
Br8    Br    0.24118   0.32282   0.37546   0.00000  Uiso   1.00
C9     C     0.16644   0.16527   0.24988   0.00000  Uiso   1.00
C10    C     0.19455   0.28156   0.44976   0.00000  Uiso   1.00
C11    C     0.16690   0.24995   0.02735   0.00000  Uiso   1.00
C12    C     0.16666   0.24952   0.47260   0.00000  Uiso   1.00
C13    C     0.06823   0.24995   0.23799   0.00000  Uiso   1.00
C14    C     0.26516   0.25014   0.26209   0.00000  Uiso   1.00
C15    C     0.01412   0.25492   0.23201   0.00000  Uiso   1.00
C16    C     0.31942   0.24547   0.26839   0.00000  Uiso   1.00
C17    C     0.12414   0.04727   0.26148   0.00000  Uiso   1.00
C18    C     0.19548   0.45360   0.22058   0.00000  Uiso   1.00
C19    C     0.12414   0.09312   0.26201   0.00000  Uiso   1.00
C20    C     0.16684   0.33502   0.25017   0.00000  Uiso   1.00
C21    C     0.19683   0.40785   0.22112   0.00000  Uiso   1.00
C22    C     0.16648   0.11745   0.24977   0.00000  Uiso   1.00
C23    C     0.16701   0.38338   0.25069   0.00000  Uiso   1.00
C24    C     0.20913   0.09567   0.23803   0.00000  Uiso   1.00
C25    C     0.13763   0.40598   0.28106   0.00000  Uiso   1.00
C26    C     0.20986   0.04986   0.24008   0.00000  Uiso   1.00
C27    C     0.13896   0.45193   0.28200   0.00000  Uiso   1.00
C28    C     0.16715   0.02506   0.25115   0.00000  Uiso   1.00
C29    C     0.16721   0.47624   0.25133   0.00000  Uiso   1.00
C30    C     0.20031   0.27788   0.05869   0.00000  Uiso   1.00
C31    C     0.13925   0.21707   0.44193   0.00000  Uiso   1.00
C32    C     0.19873   0.27794   0.10891   0.00000  Uiso   1.00
C33    C     0.13936   0.21825   0.39145   0.00000  Uiso   1.00
C34    C     0.13394   0.22230   0.09996   0.00000  Uiso   1.00
C35    C     0.19538   0.28073   0.39964   0.00000  Uiso   1.00
C36    C     0.13315   0.22251   0.04956   0.00000  Uiso   1.00
Cu37   Cu    0.16667   0.24999   0.29821   0.00000  Uiso   1.00
Cu38   Cu    0.16667   0.25000   0.20178   0.00000  Uiso   1.00
H39    H     0.24417   0.03397   0.23327   0.00000  Uiso   1.00
H40    H     0.21649   0.30761   0.46999   0.00000  Uiso   1.00
H41    H     0.11761   0.46841   0.30691   0.00000  Uiso   1.00
H42    H     0.22815   0.29984   0.04560   0.00000  Uiso   1.00
H43    H     0.11801   0.19022   0.45593   0.00000  Uiso   1.00
H44    H     0.22342   0.30045   0.13161   0.00000  Uiso   1.00
H45    H     0.11809   0.19309   0.36896   0.00000  Uiso   1.00
H46    H     0.09007   0.02927   0.26869   0.00000  Uiso   1.00
H47    H     0.21697   0.47127   0.19590   0.00000  Uiso   1.00
H48    H     0.10539   0.20102   0.02858   0.00000  Uiso   1.00
N49    N     0.16667   0.25001   0.12934   0.00000  Uiso   1.00
N50    N     0.16667   0.24999   0.37065   0.00000  Uiso   1.00
O51    O     0.16667   0.18572   0.29071   0.00000  Uiso   1.00
O52    O     0.16666   0.31427   0.20928   0.00000  Uiso   1.00
O53    O     0.16667   0.18573   0.20928   0.00000  Uiso   1.00
O54    O     0.16666   0.31427   0.29072   0.00000  Uiso   1.00
O55    O     0.09161   0.24999   0.28132   0.00000  Uiso   1.00
O56    O     0.24172   0.25000   0.21868   0.00000  Uiso   1.00
O57    O     0.09161   0.25000   0.19988   0.00000  Uiso   1.00
O58    O     0.24172   0.25000   0.30011   0.00000  Uiso   1.00
Br59   Br    0.65570   0.28183   0.17121   0.00000  Uiso   1.00
Br60   Br    0.34520   0.21985   0.33001   0.00000  Uiso   1.00
Br61   Br    0.39822   0.12110   0.27833   0.00000  Uiso   1.00
Br62   Br    0.57685   0.38173   0.18320   0.00000  Uiso   1.00
Br63   Br    0.60089   0.12732   0.21999   0.00000  Uiso   1.00
Br64   Br    0.42606   0.37642   0.32046   0.00000  Uiso   1.00
Br65   Br    0.42031   0.18144   0.12439   0.00000  Uiso   1.00
Br66   Br    0.57451   0.32282   0.37546   0.00000  Uiso   1.00
C67    C     0.49978   0.16527   0.24988   0.00000  Uiso   1.00
C68    C     0.52788   0.28156   0.44976   0.00000  Uiso   1.00
C69    C     0.50023   0.24995   0.02735   0.00000  Uiso   1.00
C70    C     0.49999   0.24952   0.47260   0.00000  Uiso   1.00
C71    C     0.40156   0.24995   0.23799   0.00000  Uiso   1.00
C72    C     0.59849   0.25014   0.26209   0.00000  Uiso   1.00
C73    C     0.34745   0.25492   0.23201   0.00000  Uiso   1.00
C74    C     0.65276   0.24547   0.26839   0.00000  Uiso   1.00
C75    C     0.45747   0.04727   0.26148   0.00000  Uiso   1.00
C76    C     0.52881   0.45360   0.22058   0.00000  Uiso   1.00
C77    C     0.45748   0.09312   0.26201   0.00000  Uiso   1.00
C78    C     0.50017   0.33502   0.25017   0.00000  Uiso   1.00
C79    C     0.53016   0.40785   0.22112   0.00000  Uiso   1.00
C80    C     0.49982   0.11745   0.24977   0.00000  Uiso   1.00
C81    C     0.50035   0.38338   0.25069   0.00000  Uiso   1.00
C82    C     0.54246   0.09567   0.23803   0.00000  Uiso   1.00
C83    C     0.47096   0.40598   0.28106   0.00000  Uiso   1.00
C84    C     0.54319   0.04986   0.24008   0.00000  Uiso   1.00
C85    C     0.47229   0.45193   0.28200   0.00000  Uiso   1.00
C86    C     0.50049   0.02506   0.25115   0.00000  Uiso   1.00
C87    C     0.50055   0.47624   0.25133   0.00000  Uiso   1.00
C88    C     0.53365   0.27788   0.05869   0.00000  Uiso   1.00
C89    C     0.47258   0.21707   0.44193   0.00000  Uiso   1.00
C90    C     0.53206   0.27794   0.10891   0.00000  Uiso   1.00
C91    C     0.47269   0.21825   0.39145   0.00000  Uiso   1.00
C92    C     0.46728   0.22230   0.09996   0.00000  Uiso   1.00
C93    C     0.52871   0.28073   0.39964   0.00000  Uiso   1.00
C94    C     0.46648   0.22251   0.04956   0.00000  Uiso   1.00
Cu95   Cu    0.50000   0.24999   0.29821   0.00000  Uiso   1.00
Cu96   Cu    0.50000   0.25000   0.20178   0.00000  Uiso   1.00
H97    H     0.57750   0.03397   0.23327   0.00000  Uiso   1.00
H98    H     0.54982   0.30761   0.46999   0.00000  Uiso   1.00
H99    H     0.45094   0.46841   0.30691   0.00000  Uiso   1.00
H100   H     0.56149   0.29984   0.04560   0.00000  Uiso   1.00
H101   H     0.45134   0.19022   0.45593   0.00000  Uiso   1.00
H102   H     0.55675   0.30045   0.13161   0.00000  Uiso   1.00
H103   H     0.45143   0.19309   0.36896   0.00000  Uiso   1.00
H104   H     0.42340   0.02927   0.26869   0.00000  Uiso   1.00
H105   H     0.55030   0.47127   0.19590   0.00000  Uiso   1.00
H106   H     0.43873   0.20102   0.02858   0.00000  Uiso   1.00
N107   N     0.50000   0.25001   0.12934   0.00000  Uiso   1.00
N108   N     0.50000   0.24999   0.37065   0.00000  Uiso   1.00
O109   O     0.50000   0.18572   0.29071   0.00000  Uiso   1.00
O110   O     0.50000   0.31427   0.20928   0.00000  Uiso   1.00
O111   O     0.50000   0.18573   0.20928   0.00000  Uiso   1.00
O112   O     0.50000   0.31427   0.29072   0.00000  Uiso   1.00
O113   O     0.42495   0.24999   0.28132   0.00000  Uiso   1.00
O114   O     0.57505   0.25000   0.21868   0.00000  Uiso   1.00
O115   O     0.42495   0.25000   0.19988   0.00000  Uiso   1.00
O116   O     0.57505   0.25000   0.30011   0.00000  Uiso   1.00
Br117  Br    0.98903   0.28183   0.17121   0.00000  Uiso   1.00
Br118  Br    0.67853   0.21985   0.33001   0.00000  Uiso   1.00
Br119  Br    0.73155   0.12110   0.27833   0.00000  Uiso   1.00
Br120  Br    0.91018   0.38173   0.18320   0.00000  Uiso   1.00
Br121  Br    0.93422   0.12732   0.21999   0.00000  Uiso   1.00
Br122  Br    0.75939   0.37642   0.32046   0.00000  Uiso   1.00
Br123  Br    0.75365   0.18144   0.12439   0.00000  Uiso   1.00
Br124  Br    0.90785   0.32282   0.37546   0.00000  Uiso   1.00
C125   C     0.83311   0.16527   0.24988   0.00000  Uiso   1.00
C126   C     0.86121   0.28156   0.44976   0.00000  Uiso   1.00
C127   C     0.83356   0.24995   0.02735   0.00000  Uiso   1.00
C128   C     0.83333   0.24952   0.47260   0.00000  Uiso   1.00
C129   C     0.73489   0.24995   0.23799   0.00000  Uiso   1.00
C130   C     0.93183   0.25014   0.26209   0.00000  Uiso   1.00
C131   C     0.68078   0.25492   0.23201   0.00000  Uiso   1.00
C132   C     0.98609   0.24547   0.26839   0.00000  Uiso   1.00
C133   C     0.79080   0.04727   0.26148   0.00000  Uiso   1.00
C134   C     0.86215   0.45360   0.22058   0.00000  Uiso   1.00
C135   C     0.79081   0.09312   0.26201   0.00000  Uiso   1.00
C136   C     0.83350   0.33502   0.25017   0.00000  Uiso   1.00
C137   C     0.86349   0.40785   0.22112   0.00000  Uiso   1.00
C138   C     0.83315   0.11745   0.24977   0.00000  Uiso   1.00
C139   C     0.83368   0.38338   0.25069   0.00000  Uiso   1.00
C140   C     0.87579   0.09567   0.23803   0.00000  Uiso   1.00
C141   C     0.80430   0.40598   0.28106   0.00000  Uiso   1.00
C142   C     0.87653   0.04986   0.24008   0.00000  Uiso   1.00
C143   C     0.80562   0.45193   0.28200   0.00000  Uiso   1.00
C144   C     0.83382   0.02506   0.25115   0.00000  Uiso   1.00
C145   C     0.83388   0.47624   0.25133   0.00000  Uiso   1.00
C146   C     0.86698   0.27788   0.05869   0.00000  Uiso   1.00
C147   C     0.80592   0.21707   0.44193   0.00000  Uiso   1.00
C148   C     0.86539   0.27794   0.10891   0.00000  Uiso   1.00
C149   C     0.80603   0.21825   0.39145   0.00000  Uiso   1.00
C150   C     0.80061   0.22230   0.09996   0.00000  Uiso   1.00
C151   C     0.86205   0.28073   0.39964   0.00000  Uiso   1.00
C152   C     0.79981   0.22251   0.04956   0.00000  Uiso   1.00
Cu153  Cu    0.83333   0.24999   0.29821   0.00000  Uiso   1.00
Cu154  Cu    0.83333   0.25000   0.20178   0.00000  Uiso   1.00
H155   H     0.91084   0.03397   0.23327   0.00000  Uiso   1.00
H156   H     0.88315   0.30761   0.46999   0.00000  Uiso   1.00
H157   H     0.78428   0.46841   0.30691   0.00000  Uiso   1.00
H158   H     0.89482   0.29984   0.04560   0.00000  Uiso   1.00
H159   H     0.78468   0.19022   0.45593   0.00000  Uiso   1.00
H160   H     0.89009   0.30045   0.13161   0.00000  Uiso   1.00
H161   H     0.78476   0.19309   0.36896   0.00000  Uiso   1.00
H162   H     0.75674   0.02927   0.26869   0.00000  Uiso   1.00
H163   H     0.88364   0.47127   0.19590   0.00000  Uiso   1.00
H164   H     0.77206   0.20102   0.02858   0.00000  Uiso   1.00
N165   N     0.83333   0.25001   0.12934   0.00000  Uiso   1.00
N166   N     0.83333   0.24999   0.37065   0.00000  Uiso   1.00
O167   O     0.83334   0.18572   0.29071   0.00000  Uiso   1.00
O168   O     0.83333   0.31427   0.20928   0.00000  Uiso   1.00
O169   O     0.83334   0.18573   0.20928   0.00000  Uiso   1.00
O170   O     0.83333   0.31427   0.29072   0.00000  Uiso   1.00
O171   O     0.75828   0.24999   0.28132   0.00000  Uiso   1.00
O172   O     0.90839   0.25000   0.21868   0.00000  Uiso   1.00
O173   O     0.75828   0.25000   0.19988   0.00000  Uiso   1.00
O174   O     0.90839   0.25000   0.30011   0.00000  Uiso   1.00
Br175  Br    0.32236   0.78183   0.17121   0.00000  Uiso   1.00
Br176  Br    0.01186   0.71985   0.33001   0.00000  Uiso   1.00
Br177  Br    0.06489   0.62110   0.27833   0.00000  Uiso   1.00
Br178  Br    0.24352   0.88173   0.18320   0.00000  Uiso   1.00
Br179  Br    0.26755   0.62732   0.21999   0.00000  Uiso   1.00
Br180  Br    0.09273   0.87642   0.32046   0.00000  Uiso   1.00
Br181  Br    0.08698   0.68144   0.12439   0.00000  Uiso   1.00
Br182  Br    0.24118   0.82282   0.37546   0.00000  Uiso   1.00
C183   C     0.16644   0.66527   0.24988   0.00000  Uiso   1.00
C184   C     0.19455   0.78156   0.44976   0.00000  Uiso   1.00
C185   C     0.16690   0.74995   0.02735   0.00000  Uiso   1.00
C186   C     0.16666   0.74952   0.47260   0.00000  Uiso   1.00
C187   C     0.06823   0.74995   0.23799   0.00000  Uiso   1.00
C188   C     0.26516   0.75014   0.26209   0.00000  Uiso   1.00
C189   C     0.01412   0.75492   0.23201   0.00000  Uiso   1.00
C190   C     0.31942   0.74547   0.26839   0.00000  Uiso   1.00
C191   C     0.12414   0.54727   0.26148   0.00000  Uiso   1.00
C192   C     0.19548   0.95360   0.22058   0.00000  Uiso   1.00
C193   C     0.12414   0.59312   0.26201   0.00000  Uiso   1.00
C194   C     0.16684   0.83502   0.25017   0.00000  Uiso   1.00
C195   C     0.19683   0.90785   0.22112   0.00000  Uiso   1.00
C196   C     0.16648   0.61745   0.24977   0.00000  Uiso   1.00
C197   C     0.16701   0.88338   0.25069   0.00000  Uiso   1.00
C198   C     0.20913   0.59567   0.23803   0.00000  Uiso   1.00
C199   C     0.13763   0.90598   0.28106   0.00000  Uiso   1.00
C200   C     0.20986   0.54986   0.24008   0.00000  Uiso   1.00
C201   C     0.13896   0.95193   0.28200   0.00000  Uiso   1.00
C202   C     0.16715   0.52506   0.25115   0.00000  Uiso   1.00
C203   C     0.16721   0.97624   0.25133   0.00000  Uiso   1.00
C204   C     0.20031   0.77788   0.05869   0.00000  Uiso   1.00
C205   C     0.13925   0.71707   0.44193   0.00000  Uiso   1.00
C206   C     0.19873   0.77794   0.10891   0.00000  Uiso   1.00
C207   C     0.13936   0.71825   0.39145   0.00000  Uiso   1.00
C208   C     0.13394   0.72230   0.09996   0.00000  Uiso   1.00
C209   C     0.19538   0.78073   0.39964   0.00000  Uiso   1.00
C210   C     0.13315   0.72251   0.04956   0.00000  Uiso   1.00
Cu211  Cu    0.16667   0.74999   0.29821   0.00000  Uiso   1.00
Cu212  Cu    0.16667   0.75000   0.20178   0.00000  Uiso   1.00
H213   H     0.24417   0.53397   0.23327   0.00000  Uiso   1.00
H214   H     0.21649   0.80761   0.46999   0.00000  Uiso   1.00
H215   H     0.11761   0.96841   0.30691   0.00000  Uiso   1.00
H216   H     0.22815   0.79984   0.04560   0.00000  Uiso   1.00
H217   H     0.11801   0.69022   0.45593   0.00000  Uiso   1.00
H218   H     0.22342   0.80045   0.13161   0.00000  Uiso   1.00
H219   H     0.11809   0.69309   0.36896   0.00000  Uiso   1.00
H220   H     0.09007   0.52927   0.26869   0.00000  Uiso   1.00
H221   H     0.21697   0.97127   0.19590   0.00000  Uiso   1.00
H222   H     0.10539   0.70102   0.02858   0.00000  Uiso   1.00
N223   N     0.16667   0.75001   0.12934   0.00000  Uiso   1.00
N224   N     0.16667   0.74999   0.37065   0.00000  Uiso   1.00
O225   O     0.16667   0.68572   0.29071   0.00000  Uiso   1.00
O226   O     0.16666   0.81427   0.20928   0.00000  Uiso   1.00
O227   O     0.16667   0.68573   0.20928   0.00000  Uiso   1.00
O228   O     0.16666   0.81427   0.29072   0.00000  Uiso   1.00
O229   O     0.09161   0.74999   0.28132   0.00000  Uiso   1.00
O230   O     0.24172   0.75000   0.21868   0.00000  Uiso   1.00
O231   O     0.09161   0.75000   0.19988   0.00000  Uiso   1.00
O232   O     0.24172   0.75000   0.30011   0.00000  Uiso   1.00
Br233  Br    0.65570   0.78183   0.17121   0.00000  Uiso   1.00
Br234  Br    0.34520   0.71985   0.33001   0.00000  Uiso   1.00
Br235  Br    0.39822   0.62110   0.27833   0.00000  Uiso   1.00
Br236  Br    0.57685   0.88173   0.18320   0.00000  Uiso   1.00
Br237  Br    0.60089   0.62732   0.21999   0.00000  Uiso   1.00
Br238  Br    0.42606   0.87642   0.32046   0.00000  Uiso   1.00
Br239  Br    0.42031   0.68144   0.12439   0.00000  Uiso   1.00
Br240  Br    0.57451   0.82282   0.37546   0.00000  Uiso   1.00
C241   C     0.49978   0.66527   0.24988   0.00000  Uiso   1.00
C242   C     0.52788   0.78156   0.44976   0.00000  Uiso   1.00
C243   C     0.50023   0.74995   0.02735   0.00000  Uiso   1.00
C244   C     0.49999   0.74952   0.47260   0.00000  Uiso   1.00
C245   C     0.40156   0.74995   0.23799   0.00000  Uiso   1.00
C246   C     0.59849   0.75014   0.26209   0.00000  Uiso   1.00
C247   C     0.34745   0.75492   0.23201   0.00000  Uiso   1.00
C248   C     0.65276   0.74547   0.26839   0.00000  Uiso   1.00
C249   C     0.45747   0.54727   0.26148   0.00000  Uiso   1.00
C250   C     0.52881   0.95360   0.22058   0.00000  Uiso   1.00
C251   C     0.45748   0.59312   0.26201   0.00000  Uiso   1.00
C252   C     0.50017   0.83502   0.25017   0.00000  Uiso   1.00
C253   C     0.53016   0.90785   0.22112   0.00000  Uiso   1.00
C254   C     0.49982   0.61745   0.24977   0.00000  Uiso   1.00
C255   C     0.50035   0.88338   0.25069   0.00000  Uiso   1.00
C256   C     0.54246   0.59567   0.23803   0.00000  Uiso   1.00
C257   C     0.47096   0.90598   0.28106   0.00000  Uiso   1.00
C258   C     0.54319   0.54986   0.24008   0.00000  Uiso   1.00
C259   C     0.47229   0.95193   0.28200   0.00000  Uiso   1.00
C260   C     0.50049   0.52506   0.25115   0.00000  Uiso   1.00
C261   C     0.50055   0.97624   0.25133   0.00000  Uiso   1.00
C262   C     0.53365   0.77788   0.05869   0.00000  Uiso   1.00
C263   C     0.47258   0.71707   0.44193   0.00000  Uiso   1.00
C264   C     0.53206   0.77794   0.10891   0.00000  Uiso   1.00
C265   C     0.47269   0.71825   0.39145   0.00000  Uiso   1.00
C266   C     0.46728   0.72230   0.09996   0.00000  Uiso   1.00
C267   C     0.52871   0.78073   0.39964   0.00000  Uiso   1.00
C268   C     0.46648   0.72251   0.04956   0.00000  Uiso   1.00
Cu269  Cu    0.50000   0.74999   0.29821   0.00000  Uiso   1.00
Cu270  Cu    0.50000   0.75000   0.20178   0.00000  Uiso   1.00
H271   H     0.57750   0.53397   0.23327   0.00000  Uiso   1.00
H272   H     0.54982   0.80761   0.46999   0.00000  Uiso   1.00
H273   H     0.45094   0.96841   0.30691   0.00000  Uiso   1.00
H274   H     0.56149   0.79984   0.04560   0.00000  Uiso   1.00
H275   H     0.45134   0.69022   0.45593   0.00000  Uiso   1.00
H276   H     0.55675   0.80045   0.13161   0.00000  Uiso   1.00
H277   H     0.45143   0.69309   0.36896   0.00000  Uiso   1.00
H278   H     0.42340   0.52927   0.26869   0.00000  Uiso   1.00
H279   H     0.55030   0.97127   0.19590   0.00000  Uiso   1.00
H280   H     0.43873   0.70102   0.02858   0.00000  Uiso   1.00
N281   N     0.50000   0.75001   0.12934   0.00000  Uiso   1.00
N282   N     0.50000   0.74999   0.37065   0.00000  Uiso   1.00
O283   O     0.50000   0.68572   0.29071   0.00000  Uiso   1.00
O284   O     0.50000   0.81427   0.20928   0.00000  Uiso   1.00
O285   O     0.50000   0.68573   0.20928   0.00000  Uiso   1.00
O286   O     0.50000   0.81427   0.29072   0.00000  Uiso   1.00
O287   O     0.42495   0.74999   0.28132   0.00000  Uiso   1.00
O288   O     0.57505   0.75000   0.21868   0.00000  Uiso   1.00
O289   O     0.42495   0.75000   0.19988   0.00000  Uiso   1.00
O290   O     0.57505   0.75000   0.30011   0.00000  Uiso   1.00
Br291  Br    0.98903   0.78183   0.17121   0.00000  Uiso   1.00
Br292  Br    0.67853   0.71985   0.33001   0.00000  Uiso   1.00
Br293  Br    0.73155   0.62110   0.27833   0.00000  Uiso   1.00
Br294  Br    0.91018   0.88173   0.18320   0.00000  Uiso   1.00
Br295  Br    0.93422   0.62732   0.21999   0.00000  Uiso   1.00
Br296  Br    0.75939   0.87642   0.32046   0.00000  Uiso   1.00
Br297  Br    0.75365   0.68144   0.12439   0.00000  Uiso   1.00
Br298  Br    0.90785   0.82282   0.37546   0.00000  Uiso   1.00
C299   C     0.83311   0.66527   0.24988   0.00000  Uiso   1.00
C300   C     0.86121   0.78156   0.44976   0.00000  Uiso   1.00
C301   C     0.83356   0.74995   0.02735   0.00000  Uiso   1.00
C302   C     0.83333   0.74952   0.47260   0.00000  Uiso   1.00
C303   C     0.73489   0.74995   0.23799   0.00000  Uiso   1.00
C304   C     0.93183   0.75014   0.26209   0.00000  Uiso   1.00
C305   C     0.68078   0.75492   0.23201   0.00000  Uiso   1.00
C306   C     0.98609   0.74547   0.26839   0.00000  Uiso   1.00
C307   C     0.79080   0.54727   0.26148   0.00000  Uiso   1.00
C308   C     0.86215   0.95360   0.22058   0.00000  Uiso   1.00
C309   C     0.79081   0.59312   0.26201   0.00000  Uiso   1.00
C310   C     0.83350   0.83502   0.25017   0.00000  Uiso   1.00
C311   C     0.86349   0.90785   0.22112   0.00000  Uiso   1.00
C312   C     0.83315   0.61745   0.24977   0.00000  Uiso   1.00
C313   C     0.83368   0.88338   0.25069   0.00000  Uiso   1.00
C314   C     0.87579   0.59567   0.23803   0.00000  Uiso   1.00
C315   C     0.80430   0.90598   0.28106   0.00000  Uiso   1.00
C316   C     0.87653   0.54986   0.24008   0.00000  Uiso   1.00
C317   C     0.80562   0.95193   0.28200   0.00000  Uiso   1.00
C318   C     0.83382   0.52506   0.25115   0.00000  Uiso   1.00
C319   C     0.83388   0.97624   0.25133   0.00000  Uiso   1.00
C320   C     0.86698   0.77788   0.05869   0.00000  Uiso   1.00
C321   C     0.80592   0.71707   0.44193   0.00000  Uiso   1.00
C322   C     0.86539   0.77794   0.10891   0.00000  Uiso   1.00
C323   C     0.80603   0.71825   0.39145   0.00000  Uiso   1.00
C324   C     0.80061   0.72230   0.09996   0.00000  Uiso   1.00
C325   C     0.86205   0.78073   0.39964   0.00000  Uiso   1.00
C326   C     0.79981   0.72251   0.04956   0.00000  Uiso   1.00
Cu327  Cu    0.83333   0.74999   0.29821   0.00000  Uiso   1.00
Cu328  Cu    0.83333   0.75000   0.20178   0.00000  Uiso   1.00
H329   H     0.91084   0.53397   0.23327   0.00000  Uiso   1.00
H330   H     0.88315   0.80761   0.46999   0.00000  Uiso   1.00
H331   H     0.78428   0.96841   0.30691   0.00000  Uiso   1.00
H332   H     0.89482   0.79984   0.04560   0.00000  Uiso   1.00
H333   H     0.78468   0.69022   0.45593   0.00000  Uiso   1.00
H334   H     0.89009   0.80045   0.13161   0.00000  Uiso   1.00
H335   H     0.78476   0.69309   0.36896   0.00000  Uiso   1.00
H336   H     0.75674   0.52927   0.26869   0.00000  Uiso   1.00
H337   H     0.88364   0.97127   0.19590   0.00000  Uiso   1.00
H338   H     0.77206   0.70102   0.02858   0.00000  Uiso   1.00
N339   N     0.83333   0.75001   0.12934   0.00000  Uiso   1.00
N340   N     0.83333   0.74999   0.37065   0.00000  Uiso   1.00
O341   O     0.83334   0.68572   0.29071   0.00000  Uiso   1.00
O342   O     0.83333   0.81427   0.20928   0.00000  Uiso   1.00
O343   O     0.83334   0.68573   0.20928   0.00000  Uiso   1.00
O344   O     0.83333   0.81427   0.29072   0.00000  Uiso   1.00
O345   O     0.75828   0.74999   0.28132   0.00000  Uiso   1.00
O346   O     0.90839   0.75000   0.21868   0.00000  Uiso   1.00
O347   O     0.75828   0.75000   0.19988   0.00000  Uiso   1.00
O348   O     0.90839   0.75000   0.30011   0.00000  Uiso   1.00
Br349  Br    0.32236   0.28183   0.67121   0.00000  Uiso   1.00
Br350  Br    0.01186   0.21985   0.83001   0.00000  Uiso   1.00
Br351  Br    0.06489   0.12110   0.77833   0.00000  Uiso   1.00
Br352  Br    0.24352   0.38173   0.68320   0.00000  Uiso   1.00
Br353  Br    0.26755   0.12732   0.71999   0.00000  Uiso   1.00
Br354  Br    0.09273   0.37642   0.82046   0.00000  Uiso   1.00
Br355  Br    0.08698   0.18144   0.62439   0.00000  Uiso   1.00
Br356  Br    0.24118   0.32282   0.87546   0.00000  Uiso   1.00
C357   C     0.16644   0.16527   0.74988   0.00000  Uiso   1.00
C358   C     0.19455   0.28156   0.94976   0.00000  Uiso   1.00
C359   C     0.16690   0.24995   0.52735   0.00000  Uiso   1.00
C360   C     0.16666   0.24952   0.97260   0.00000  Uiso   1.00
C361   C     0.06823   0.24995   0.73799   0.00000  Uiso   1.00
C362   C     0.26516   0.25014   0.76209   0.00000  Uiso   1.00
C363   C     0.01412   0.25492   0.73201   0.00000  Uiso   1.00
C364   C     0.31942   0.24547   0.76839   0.00000  Uiso   1.00
C365   C     0.12414   0.04727   0.76148   0.00000  Uiso   1.00
C366   C     0.19548   0.45360   0.72058   0.00000  Uiso   1.00
C367   C     0.12414   0.09312   0.76201   0.00000  Uiso   1.00
C368   C     0.16684   0.33502   0.75017   0.00000  Uiso   1.00
C369   C     0.19683   0.40785   0.72112   0.00000  Uiso   1.00
C370   C     0.16648   0.11745   0.74977   0.00000  Uiso   1.00
C371   C     0.16701   0.38338   0.75069   0.00000  Uiso   1.00
C372   C     0.20913   0.09567   0.73803   0.00000  Uiso   1.00
C373   C     0.13763   0.40598   0.78106   0.00000  Uiso   1.00
C374   C     0.20986   0.04986   0.74008   0.00000  Uiso   1.00
C375   C     0.13896   0.45193   0.78200   0.00000  Uiso   1.00
C376   C     0.16715   0.02506   0.75115   0.00000  Uiso   1.00
C377   C     0.16721   0.47624   0.75133   0.00000  Uiso   1.00
C378   C     0.20031   0.27788   0.55869   0.00000  Uiso   1.00
C379   C     0.13925   0.21707   0.94193   0.00000  Uiso   1.00
C380   C     0.19873   0.27794   0.60891   0.00000  Uiso   1.00
C381   C     0.13936   0.21825   0.89145   0.00000  Uiso   1.00
C382   C     0.13394   0.22230   0.59996   0.00000  Uiso   1.00
C383   C     0.19538   0.28073   0.89964   0.00000  Uiso   1.00
C384   C     0.13315   0.22251   0.54956   0.00000  Uiso   1.00
Cu385  Cu    0.16667   0.24999   0.79821   0.00000  Uiso   1.00
Cu386  Cu    0.16667   0.25000   0.70178   0.00000  Uiso   1.00
H387   H     0.24417   0.03397   0.73327   0.00000  Uiso   1.00
H388   H     0.21649   0.30761   0.96999   0.00000  Uiso   1.00
H389   H     0.11761   0.46841   0.80691   0.00000  Uiso   1.00
H390   H     0.22815   0.29984   0.54560   0.00000  Uiso   1.00
H391   H     0.11801   0.19022   0.95593   0.00000  Uiso   1.00
H392   H     0.22342   0.30045   0.63161   0.00000  Uiso   1.00
H393   H     0.11809   0.19309   0.86896   0.00000  Uiso   1.00
H394   H     0.09007   0.02927   0.76869   0.00000  Uiso   1.00
H395   H     0.21697   0.47127   0.69590   0.00000  Uiso   1.00
H396   H     0.10539   0.20102   0.52858   0.00000  Uiso   1.00
N397   N     0.16667   0.25001   0.62934   0.00000  Uiso   1.00
N398   N     0.16667   0.24999   0.87065   0.00000  Uiso   1.00
O399   O     0.16667   0.18572   0.79071   0.00000  Uiso   1.00
O400   O     0.16666   0.31427   0.70928   0.00000  Uiso   1.00
O401   O     0.16667   0.18573   0.70928   0.00000  Uiso   1.00
O402   O     0.16666   0.31427   0.79072   0.00000  Uiso   1.00
O403   O     0.09161   0.24999   0.78132   0.00000  Uiso   1.00
O404   O     0.24172   0.25000   0.71868   0.00000  Uiso   1.00
O405   O     0.09161   0.25000   0.69988   0.00000  Uiso   1.00
O406   O     0.24172   0.25000   0.80011   0.00000  Uiso   1.00
Br407  Br    0.65570   0.28183   0.67121   0.00000  Uiso   1.00
Br408  Br    0.34520   0.21985   0.83001   0.00000  Uiso   1.00
Br409  Br    0.39822   0.12110   0.77833   0.00000  Uiso   1.00
Br410  Br    0.57685   0.38173   0.68320   0.00000  Uiso   1.00
Br411  Br    0.60089   0.12732   0.71999   0.00000  Uiso   1.00
Br412  Br    0.42606   0.37642   0.82046   0.00000  Uiso   1.00
Br413  Br    0.42031   0.18144   0.62439   0.00000  Uiso   1.00
Br414  Br    0.57451   0.32282   0.87546   0.00000  Uiso   1.00
C415   C     0.49978   0.16527   0.74988   0.00000  Uiso   1.00
C416   C     0.52788   0.28156   0.94976   0.00000  Uiso   1.00
C417   C     0.50023   0.24995   0.52735   0.00000  Uiso   1.00
C418   C     0.49999   0.24952   0.97260   0.00000  Uiso   1.00
C419   C     0.40156   0.24995   0.73799   0.00000  Uiso   1.00
C420   C     0.59849   0.25014   0.76209   0.00000  Uiso   1.00
C421   C     0.34745   0.25492   0.73201   0.00000  Uiso   1.00
C422   C     0.65276   0.24547   0.76839   0.00000  Uiso   1.00
C423   C     0.45747   0.04727   0.76148   0.00000  Uiso   1.00
C424   C     0.52881   0.45360   0.72058   0.00000  Uiso   1.00
C425   C     0.45748   0.09312   0.76201   0.00000  Uiso   1.00
C426   C     0.50017   0.33502   0.75017   0.00000  Uiso   1.00
C427   C     0.53016   0.40785   0.72112   0.00000  Uiso   1.00
C428   C     0.49982   0.11745   0.74977   0.00000  Uiso   1.00
C429   C     0.50035   0.38338   0.75069   0.00000  Uiso   1.00
C430   C     0.54246   0.09567   0.73803   0.00000  Uiso   1.00
C431   C     0.47096   0.40598   0.78106   0.00000  Uiso   1.00
C432   C     0.54319   0.04986   0.74008   0.00000  Uiso   1.00
C433   C     0.47229   0.45193   0.78200   0.00000  Uiso   1.00
C434   C     0.50049   0.02506   0.75115   0.00000  Uiso   1.00
C435   C     0.50055   0.47624   0.75133   0.00000  Uiso   1.00
C436   C     0.53365   0.27788   0.55869   0.00000  Uiso   1.00
C437   C     0.47258   0.21707   0.94193   0.00000  Uiso   1.00
C438   C     0.53206   0.27794   0.60891   0.00000  Uiso   1.00
C439   C     0.47269   0.21825   0.89145   0.00000  Uiso   1.00
C440   C     0.46728   0.22230   0.59996   0.00000  Uiso   1.00
C441   C     0.52871   0.28073   0.89964   0.00000  Uiso   1.00
C442   C     0.46648   0.22251   0.54956   0.00000  Uiso   1.00
Cu443  Cu    0.50000   0.24999   0.79821   0.00000  Uiso   1.00
Cu444  Cu    0.50000   0.25000   0.70178   0.00000  Uiso   1.00
H445   H     0.57750   0.03397   0.73327   0.00000  Uiso   1.00
H446   H     0.54982   0.30761   0.96999   0.00000  Uiso   1.00
H447   H     0.45094   0.46841   0.80691   0.00000  Uiso   1.00
H448   H     0.56149   0.29984   0.54560   0.00000  Uiso   1.00
H449   H     0.45134   0.19022   0.95593   0.00000  Uiso   1.00
H450   H     0.55675   0.30045   0.63161   0.00000  Uiso   1.00
H451   H     0.45143   0.19309   0.86896   0.00000  Uiso   1.00
H452   H     0.42340   0.02927   0.76869   0.00000  Uiso   1.00
H453   H     0.55030   0.47127   0.69590   0.00000  Uiso   1.00
H454   H     0.43873   0.20102   0.52858   0.00000  Uiso   1.00
N455   N     0.50000   0.25001   0.62934   0.00000  Uiso   1.00
N456   N     0.50000   0.24999   0.87065   0.00000  Uiso   1.00
O457   O     0.50000   0.18572   0.79071   0.00000  Uiso   1.00
O458   O     0.50000   0.31427   0.70928   0.00000  Uiso   1.00
O459   O     0.50000   0.18573   0.70928   0.00000  Uiso   1.00
O460   O     0.50000   0.31427   0.79072   0.00000  Uiso   1.00
O461   O     0.42495   0.24999   0.78132   0.00000  Uiso   1.00
O462   O     0.57505   0.25000   0.71868   0.00000  Uiso   1.00
O463   O     0.42495   0.25000   0.69988   0.00000  Uiso   1.00
O464   O     0.57505   0.25000   0.80011   0.00000  Uiso   1.00
Br465  Br    0.98903   0.28183   0.67121   0.00000  Uiso   1.00
Br466  Br    0.67853   0.21985   0.83001   0.00000  Uiso   1.00
Br467  Br    0.73155   0.12110   0.77833   0.00000  Uiso   1.00
Br468  Br    0.91018   0.38173   0.68320   0.00000  Uiso   1.00
Br469  Br    0.93422   0.12732   0.71999   0.00000  Uiso   1.00
Br470  Br    0.75939   0.37642   0.82046   0.00000  Uiso   1.00
Br471  Br    0.75365   0.18144   0.62439   0.00000  Uiso   1.00
Br472  Br    0.90785   0.32282   0.87546   0.00000  Uiso   1.00
C473   C     0.83311   0.16527   0.74988   0.00000  Uiso   1.00
C474   C     0.86121   0.28156   0.94976   0.00000  Uiso   1.00
C475   C     0.83356   0.24995   0.52735   0.00000  Uiso   1.00
C476   C     0.83333   0.24952   0.97260   0.00000  Uiso   1.00
C477   C     0.73489   0.24995   0.73799   0.00000  Uiso   1.00
C478   C     0.93183   0.25014   0.76209   0.00000  Uiso   1.00
C479   C     0.68078   0.25492   0.73201   0.00000  Uiso   1.00
C480   C     0.98609   0.24547   0.76839   0.00000  Uiso   1.00
C481   C     0.79080   0.04727   0.76148   0.00000  Uiso   1.00
C482   C     0.86215   0.45360   0.72058   0.00000  Uiso   1.00
C483   C     0.79081   0.09312   0.76201   0.00000  Uiso   1.00
C484   C     0.83350   0.33502   0.75017   0.00000  Uiso   1.00
C485   C     0.86349   0.40785   0.72112   0.00000  Uiso   1.00
C486   C     0.83315   0.11745   0.74977   0.00000  Uiso   1.00
C487   C     0.83368   0.38338   0.75069   0.00000  Uiso   1.00
C488   C     0.87579   0.09567   0.73803   0.00000  Uiso   1.00
C489   C     0.80430   0.40598   0.78106   0.00000  Uiso   1.00
C490   C     0.87653   0.04986   0.74008   0.00000  Uiso   1.00
C491   C     0.80562   0.45193   0.78200   0.00000  Uiso   1.00
C492   C     0.83382   0.02506   0.75115   0.00000  Uiso   1.00
C493   C     0.83388   0.47624   0.75133   0.00000  Uiso   1.00
C494   C     0.86698   0.27788   0.55869   0.00000  Uiso   1.00
C495   C     0.80592   0.21707   0.94193   0.00000  Uiso   1.00
C496   C     0.86539   0.27794   0.60891   0.00000  Uiso   1.00
C497   C     0.80603   0.21825   0.89145   0.00000  Uiso   1.00
C498   C     0.80061   0.22230   0.59996   0.00000  Uiso   1.00
C499   C     0.86205   0.28073   0.89964   0.00000  Uiso   1.00
C500   C     0.79981   0.22251   0.54956   0.00000  Uiso   1.00
Cu501  Cu    0.83333   0.24999   0.79821   0.00000  Uiso   1.00
Cu502  Cu    0.83333   0.25000   0.70178   0.00000  Uiso   1.00
H503   H     0.91084   0.03397   0.73327   0.00000  Uiso   1.00
H504   H     0.88315   0.30761   0.96999   0.00000  Uiso   1.00
H505   H     0.78428   0.46841   0.80691   0.00000  Uiso   1.00
H506   H     0.89482   0.29984   0.54560   0.00000  Uiso   1.00
H507   H     0.78468   0.19022   0.95593   0.00000  Uiso   1.00
H508   H     0.89009   0.30045   0.63161   0.00000  Uiso   1.00
H509   H     0.78476   0.19309   0.86896   0.00000  Uiso   1.00
H510   H     0.75674   0.02927   0.76869   0.00000  Uiso   1.00
H511   H     0.88364   0.47127   0.69590   0.00000  Uiso   1.00
H512   H     0.77206   0.20102   0.52858   0.00000  Uiso   1.00
N513   N     0.83333   0.25001   0.62934   0.00000  Uiso   1.00
N514   N     0.83333   0.24999   0.87065   0.00000  Uiso   1.00
O515   O     0.83334   0.18572   0.79071   0.00000  Uiso   1.00
O516   O     0.83333   0.31427   0.70928   0.00000  Uiso   1.00
O517   O     0.83334   0.18573   0.70928   0.00000  Uiso   1.00
O518   O     0.83333   0.31427   0.79072   0.00000  Uiso   1.00
O519   O     0.75828   0.24999   0.78132   0.00000  Uiso   1.00
O520   O     0.90839   0.25000   0.71868   0.00000  Uiso   1.00
O521   O     0.75828   0.25000   0.69988   0.00000  Uiso   1.00
O522   O     0.90839   0.25000   0.80011   0.00000  Uiso   1.00
Br523  Br    0.32236   0.78183   0.67121   0.00000  Uiso   1.00
Br524  Br    0.01186   0.71985   0.83001   0.00000  Uiso   1.00
Br525  Br    0.06489   0.62110   0.77833   0.00000  Uiso   1.00
Br526  Br    0.24352   0.88173   0.68320   0.00000  Uiso   1.00
Br527  Br    0.26755   0.62732   0.71999   0.00000  Uiso   1.00
Br528  Br    0.09273   0.87642   0.82046   0.00000  Uiso   1.00
Br529  Br    0.08698   0.68144   0.62439   0.00000  Uiso   1.00
Br530  Br    0.24118   0.82282   0.87546   0.00000  Uiso   1.00
C531   C     0.16644   0.66527   0.74988   0.00000  Uiso   1.00
C532   C     0.19455   0.78156   0.94976   0.00000  Uiso   1.00
C533   C     0.16690   0.74995   0.52735   0.00000  Uiso   1.00
C534   C     0.16666   0.74952   0.97260   0.00000  Uiso   1.00
C535   C     0.06823   0.74995   0.73799   0.00000  Uiso   1.00
C536   C     0.26516   0.75014   0.76209   0.00000  Uiso   1.00
C537   C     0.01412   0.75492   0.73201   0.00000  Uiso   1.00
C538   C     0.31942   0.74547   0.76839   0.00000  Uiso   1.00
C539   C     0.12414   0.54727   0.76148   0.00000  Uiso   1.00
C540   C     0.19548   0.95360   0.72058   0.00000  Uiso   1.00
C541   C     0.12414   0.59312   0.76201   0.00000  Uiso   1.00
C542   C     0.16684   0.83502   0.75017   0.00000  Uiso   1.00
C543   C     0.19683   0.90785   0.72112   0.00000  Uiso   1.00
C544   C     0.16648   0.61745   0.74977   0.00000  Uiso   1.00
C545   C     0.16701   0.88338   0.75069   0.00000  Uiso   1.00
C546   C     0.20913   0.59567   0.73803   0.00000  Uiso   1.00
C547   C     0.13763   0.90598   0.78106   0.00000  Uiso   1.00
C548   C     0.20986   0.54986   0.74008   0.00000  Uiso   1.00
C549   C     0.13896   0.95193   0.78200   0.00000  Uiso   1.00
C550   C     0.16715   0.52506   0.75115   0.00000  Uiso   1.00
C551   C     0.16721   0.97624   0.75133   0.00000  Uiso   1.00
C552   C     0.20031   0.77788   0.55869   0.00000  Uiso   1.00
C553   C     0.13925   0.71707   0.94193   0.00000  Uiso   1.00
C554   C     0.19873   0.77794   0.60891   0.00000  Uiso   1.00
C555   C     0.13936   0.71825   0.89145   0.00000  Uiso   1.00
C556   C     0.13394   0.72230   0.59996   0.00000  Uiso   1.00
C557   C     0.19538   0.78073   0.89964   0.00000  Uiso   1.00
C558   C     0.13315   0.72251   0.54956   0.00000  Uiso   1.00
Cu559  Cu    0.16667   0.74999   0.79821   0.00000  Uiso   1.00
Cu560  Cu    0.16667   0.75000   0.70178   0.00000  Uiso   1.00
H561   H     0.24417   0.53397   0.73327   0.00000  Uiso   1.00
H562   H     0.21649   0.80761   0.96999   0.00000  Uiso   1.00
H563   H     0.11761   0.96841   0.80691   0.00000  Uiso   1.00
H564   H     0.22815   0.79984   0.54560   0.00000  Uiso   1.00
H565   H     0.11801   0.69022   0.95593   0.00000  Uiso   1.00
H566   H     0.22342   0.80045   0.63161   0.00000  Uiso   1.00
H567   H     0.11809   0.69309   0.86896   0.00000  Uiso   1.00
H568   H     0.09007   0.52927   0.76869   0.00000  Uiso   1.00
H569   H     0.21697   0.97127   0.69590   0.00000  Uiso   1.00
H570   H     0.10539   0.70102   0.52858   0.00000  Uiso   1.00
N571   N     0.16667   0.75001   0.62934   0.00000  Uiso   1.00
N572   N     0.16667   0.74999   0.87065   0.00000  Uiso   1.00
O573   O     0.16667   0.68572   0.79071   0.00000  Uiso   1.00
O574   O     0.16666   0.81427   0.70928   0.00000  Uiso   1.00
O575   O     0.16667   0.68573   0.70928   0.00000  Uiso   1.00
O576   O     0.16666   0.81427   0.79072   0.00000  Uiso   1.00
O577   O     0.09161   0.74999   0.78132   0.00000  Uiso   1.00
O578   O     0.24172   0.75000   0.71868   0.00000  Uiso   1.00
O579   O     0.09161   0.75000   0.69988   0.00000  Uiso   1.00
O580   O     0.24172   0.75000   0.80011   0.00000  Uiso   1.00
Br581  Br    0.65570   0.78183   0.67121   0.00000  Uiso   1.00
Br582  Br    0.34520   0.71985   0.83001   0.00000  Uiso   1.00
Br583  Br    0.39822   0.62110   0.77833   0.00000  Uiso   1.00
Br584  Br    0.57685   0.88173   0.68320   0.00000  Uiso   1.00
Br585  Br    0.60089   0.62732   0.71999   0.00000  Uiso   1.00
Br586  Br    0.42606   0.87642   0.82046   0.00000  Uiso   1.00
Br587  Br    0.42031   0.68144   0.62439   0.00000  Uiso   1.00
Br588  Br    0.57451   0.82282   0.87546   0.00000  Uiso   1.00
C589   C     0.49978   0.66527   0.74988   0.00000  Uiso   1.00
C590   C     0.52788   0.78156   0.94976   0.00000  Uiso   1.00
C591   C     0.50023   0.74995   0.52735   0.00000  Uiso   1.00
C592   C     0.49999   0.74952   0.97260   0.00000  Uiso   1.00
C593   C     0.40156   0.74995   0.73799   0.00000  Uiso   1.00
C594   C     0.59849   0.75014   0.76209   0.00000  Uiso   1.00
C595   C     0.34745   0.75492   0.73201   0.00000  Uiso   1.00
C596   C     0.65276   0.74547   0.76839   0.00000  Uiso   1.00
C597   C     0.45747   0.54727   0.76148   0.00000  Uiso   1.00
C598   C     0.52881   0.95360   0.72058   0.00000  Uiso   1.00
C599   C     0.45748   0.59312   0.76201   0.00000  Uiso   1.00
C600   C     0.50017   0.83502   0.75017   0.00000  Uiso   1.00
C601   C     0.53016   0.90785   0.72112   0.00000  Uiso   1.00
C602   C     0.49982   0.61745   0.74977   0.00000  Uiso   1.00
C603   C     0.50035   0.88338   0.75069   0.00000  Uiso   1.00
C604   C     0.54246   0.59567   0.73803   0.00000  Uiso   1.00
C605   C     0.47096   0.90598   0.78106   0.00000  Uiso   1.00
C606   C     0.54319   0.54986   0.74008   0.00000  Uiso   1.00
C607   C     0.47229   0.95193   0.78200   0.00000  Uiso   1.00
C608   C     0.50049   0.52506   0.75115   0.00000  Uiso   1.00
C609   C     0.50055   0.97624   0.75133   0.00000  Uiso   1.00
C610   C     0.53365   0.77788   0.55869   0.00000  Uiso   1.00
C611   C     0.47258   0.71707   0.94193   0.00000  Uiso   1.00
C612   C     0.53206   0.77794   0.60891   0.00000  Uiso   1.00
C613   C     0.47269   0.71825   0.89145   0.00000  Uiso   1.00
C614   C     0.46728   0.72230   0.59996   0.00000  Uiso   1.00
C615   C     0.52871   0.78073   0.89964   0.00000  Uiso   1.00
C616   C     0.46648   0.72251   0.54956   0.00000  Uiso   1.00
Cu617  Cu    0.50000   0.74999   0.79821   0.00000  Uiso   1.00
Cu618  Cu    0.50000   0.75000   0.70178   0.00000  Uiso   1.00
H619   H     0.57750   0.53397   0.73327   0.00000  Uiso   1.00
H620   H     0.54982   0.80761   0.96999   0.00000  Uiso   1.00
H621   H     0.45094   0.96841   0.80691   0.00000  Uiso   1.00
H622   H     0.56149   0.79984   0.54560   0.00000  Uiso   1.00
H623   H     0.45134   0.69022   0.95593   0.00000  Uiso   1.00
H624   H     0.55675   0.80045   0.63161   0.00000  Uiso   1.00
H625   H     0.45143   0.69309   0.86896   0.00000  Uiso   1.00
H626   H     0.42340   0.52927   0.76869   0.00000  Uiso   1.00
H627   H     0.55030   0.97127   0.69590   0.00000  Uiso   1.00
H628   H     0.43873   0.70102   0.52858   0.00000  Uiso   1.00
N629   N     0.50000   0.75001   0.62934   0.00000  Uiso   1.00
N630   N     0.50000   0.74999   0.87065   0.00000  Uiso   1.00
O631   O     0.50000   0.68572   0.79071   0.00000  Uiso   1.00
O632   O     0.50000   0.81427   0.70928   0.00000  Uiso   1.00
O633   O     0.50000   0.68573   0.70928   0.00000  Uiso   1.00
O634   O     0.50000   0.81427   0.79072   0.00000  Uiso   1.00
O635   O     0.42495   0.74999   0.78132   0.00000  Uiso   1.00
O636   O     0.57505   0.75000   0.71868   0.00000  Uiso   1.00
O637   O     0.42495   0.75000   0.69988   0.00000  Uiso   1.00
O638   O     0.57505   0.75000   0.80011   0.00000  Uiso   1.00
Br639  Br    0.98903   0.78183   0.67121   0.00000  Uiso   1.00
Br640  Br    0.67853   0.71985   0.83001   0.00000  Uiso   1.00
Br641  Br    0.73155   0.62110   0.77833   0.00000  Uiso   1.00
Br642  Br    0.91018   0.88173   0.68320   0.00000  Uiso   1.00
Br643  Br    0.93422   0.62732   0.71999   0.00000  Uiso   1.00
Br644  Br    0.75939   0.87642   0.82046   0.00000  Uiso   1.00
Br645  Br    0.75365   0.68144   0.62439   0.00000  Uiso   1.00
Br646  Br    0.90785   0.82282   0.87546   0.00000  Uiso   1.00
C647   C     0.83311   0.66527   0.74988   0.00000  Uiso   1.00
C648   C     0.86121   0.78156   0.94976   0.00000  Uiso   1.00
C649   C     0.83356   0.74995   0.52735   0.00000  Uiso   1.00
C650   C     0.83333   0.74952   0.97260   0.00000  Uiso   1.00
C651   C     0.73489   0.74995   0.73799   0.00000  Uiso   1.00
C652   C     0.93183   0.75014   0.76209   0.00000  Uiso   1.00
C653   C     0.68078   0.75492   0.73201   0.00000  Uiso   1.00
C654   C     0.98609   0.74547   0.76839   0.00000  Uiso   1.00
C655   C     0.79080   0.54727   0.76148   0.00000  Uiso   1.00
C656   C     0.86215   0.95360   0.72058   0.00000  Uiso   1.00
C657   C     0.79081   0.59312   0.76201   0.00000  Uiso   1.00
C658   C     0.83350   0.83502   0.75017   0.00000  Uiso   1.00
C659   C     0.86349   0.90785   0.72112   0.00000  Uiso   1.00
C660   C     0.83315   0.61745   0.74977   0.00000  Uiso   1.00
C661   C     0.83368   0.88338   0.75069   0.00000  Uiso   1.00
C662   C     0.87579   0.59567   0.73803   0.00000  Uiso   1.00
C663   C     0.80430   0.90598   0.78106   0.00000  Uiso   1.00
C664   C     0.87653   0.54986   0.74008   0.00000  Uiso   1.00
C665   C     0.80562   0.95193   0.78200   0.00000  Uiso   1.00
C666   C     0.83382   0.52506   0.75115   0.00000  Uiso   1.00
C667   C     0.83388   0.97624   0.75133   0.00000  Uiso   1.00
C668   C     0.86698   0.77788   0.55869   0.00000  Uiso   1.00
C669   C     0.80592   0.71707   0.94193   0.00000  Uiso   1.00
C670   C     0.86539   0.77794   0.60891   0.00000  Uiso   1.00
C671   C     0.80603   0.71825   0.89145   0.00000  Uiso   1.00
C672   C     0.80061   0.72230   0.59996   0.00000  Uiso   1.00
C673   C     0.86205   0.78073   0.89964   0.00000  Uiso   1.00
C674   C     0.79981   0.72251   0.54956   0.00000  Uiso   1.00
Cu675  Cu    0.83333   0.74999   0.79821   0.00000  Uiso   1.00
Cu676  Cu    0.83333   0.75000   0.70178   0.00000  Uiso   1.00
H677   H     0.91084   0.53397   0.73327   0.00000  Uiso   1.00
H678   H     0.88315   0.80761   0.96999   0.00000  Uiso   1.00
H679   H     0.78428   0.96841   0.80691   0.00000  Uiso   1.00
H680   H     0.89482   0.79984   0.54560   0.00000  Uiso   1.00
H681   H     0.78468   0.69022   0.95593   0.00000  Uiso   1.00
H682   H     0.89009   0.80045   0.63161   0.00000  Uiso   1.00
H683   H     0.78476   0.69309   0.86896   0.00000  Uiso   1.00
H684   H     0.75674   0.52927   0.76869   0.00000  Uiso   1.00
H685   H     0.88364   0.97127   0.69590   0.00000  Uiso   1.00
H686   H     0.77206   0.70102   0.52858   0.00000  Uiso   1.00
N687   N     0.83333   0.75001   0.62934   0.00000  Uiso   1.00
N688   N     0.83333   0.74999   0.87065   0.00000  Uiso   1.00
O689   O     0.83334   0.68572   0.79071   0.00000  Uiso   1.00
O690   O     0.83333   0.81427   0.70928   0.00000  Uiso   1.00
O691   O     0.83334   0.68573   0.70928   0.00000  Uiso   1.00
O692   O     0.83333   0.81427   0.79072   0.00000  Uiso   1.00
O693   O     0.75828   0.74999   0.78132   0.00000  Uiso   1.00
O694   O     0.90839   0.75000   0.71868   0.00000  Uiso   1.00
O695   O     0.75828   0.75000   0.69988   0.00000  Uiso   1.00
O696   O     0.90839   0.75000   0.80011   0.00000  Uiso   1.00
loop_
_geom_bond_atom_site_label_1
_geom_bond_atom_site_label_2
_geom_bond_distance
_geom_bond_site_symmetry_2
_ccdc_geom_bond_type
Br1    C73     1.933   .     S
Br2    C132    1.940   1_455 S
Br3    C19     1.915   .     S
Br4    C21     1.917   .     S
Br5    C24     1.919   .     S
Br6    C25     1.925   .     S
Br7    C34     1.917   .     S
Br8    C35     1.917   .     S
C9     O51     1.293   .     A
C9     O53     1.294   .     A
C9     C22     1.450   .     S
C10    C35     1.400   .     A
C10    C12     1.406   .     A
C10    H40     1.077   .     S
C11    C36     1.406   .     A
C11    C30     1.417   .     A
C11    C360    1.525   1_554 S
C12    C31     1.418   .     A
C12    C359    1.525   .     S
C13    C15     1.437   .     S
C13    O57     1.298   .     A
C13    O55     1.284   .     A
C14    O56     1.287   .     A
C14    C16     1.439   .     S
C14    O58     1.297   .     A
C15    Br117   1.933   1_455 S
C15    C132    1.359   1_455 S
C16    Br60    1.940   .     S
C16    C73     1.359   .     S
C17    C28     1.405   .     A
C17    C19     1.390   .     A
C17    H46     1.082   .     S
C18    H47     1.082   .     S
C18    C21     1.389   .     A
C18    C29     1.401   .     A
C19    C22     1.403   .     A
C20    C23     1.466   .     S
C20    O52     1.298   .     A
C20    O54     1.297   .     A
C21    C23     1.411   .     A
C22    C24     1.402   .     A
C23    C25     1.413   .     A
C24    C26     1.391   .     A
C25    C27     1.392   .     A
C26    C28     1.407   .     A
C26    H39     1.082   .     S
C27    H41     1.082   .     S
C27    C29     1.404   .     A
C28    C203    1.480   1_545 S
C29    C202    1.480   .     S
C30    C32     1.406   .     A
C30    H42     1.077   .     S
C31    C33     1.408   .     A
C31    H43     1.078   .     S
C32    H44     1.074   .     S
C32    N49     1.359   .     A
C33    H45     1.081   .     S
C33    N50     1.362   .     A
C34    C36     1.402   .     A
C34    N49     1.375   .     A
C35    N50     1.374   .     A
C36    H48     1.078   .     S
Cu37   O58     1.985   .     S
Cu37   Cu38    2.688   .     S
Cu37   O51     1.959   .     S
Cu37   O54     1.961   .     S
Cu37   N50     2.019   .     S
Cu37   O55     1.986   .     S
Cu38   O57     1.985   .     S
Cu38   O56     1.986   .     S
Cu38   N49     2.019   .     S
Cu38   O53     1.961   .     S
Cu38   O52     1.959   .     S
Br59   C131    1.933   .     S
Br61   C77     1.915   .     S
Br62   C79     1.917   .     S
Br63   C82     1.919   .     S
Br64   C83     1.925   .     S
Br65   C92     1.917   .     S
Br66   C93     1.917   .     S
C67    O109    1.293   .     A
C67    O111    1.294   .     A
C67    C80     1.450   .     S
C68    C93     1.400   .     A
C68    C70     1.406   .     A
C68    H98     1.077   .     S
C69    C94     1.406   .     A
C69    C88     1.417   .     A
C69    C418    1.525   1_554 S
C70    C89     1.418   .     A
C70    C417    1.525   .     S
C71    C73     1.437   .     S
C71    O115    1.298   .     A
C71    O113    1.284   .     A
C72    O114    1.287   .     A
C72    C74     1.439   .     S
C72    O116    1.297   .     A
C74    Br118   1.940   .     S
C74    C131    1.359   .     S
C75    C86     1.405   .     A
C75    C77     1.390   .     A
C75    H104    1.082   .     S
C76    H105    1.082   .     S
C76    C79     1.389   .     A
C76    C87     1.401   .     A
C77    C80     1.403   .     A
C78    C81     1.466   .     S
C78    O110    1.298   .     A
C78    O112    1.297   .     A
C79    C81     1.411   .     A
C80    C82     1.402   .     A
C81    C83     1.413   .     A
C82    C84     1.391   .     A
C83    C85     1.392   .     A
C84    C86     1.407   .     A
C84    H97     1.082   .     S
C85    H99     1.082   .     S
C85    C87     1.404   .     A
C86    C261    1.480   1_545 S
C87    C260    1.480   .     S
C88    C90     1.406   .     A
C88    H100    1.077   .     S
C89    C91     1.408   .     A
C89    H101    1.078   .     S
C90    H102    1.074   .     S
C90    N107    1.359   .     A
C91    H103    1.081   .     S
C91    N108    1.362   .     A
C92    C94     1.402   .     A
C92    N107    1.375   .     A
C93    N108    1.374   .     A
C94    H106    1.078   .     S
Cu95   O116    1.985   .     S
Cu95   Cu96    2.688   .     S
Cu95   O109    1.959   .     S
Cu95   O112    1.961   .     S
Cu95   N108    2.019   .     S
Cu95   O113    1.986   .     S
Cu96   O115    1.985   .     S
Cu96   O114    1.986   .     S
Cu96   N107    2.019   .     S
Cu96   O111    1.961   .     S
Cu96   O110    1.959   .     S
Br117  C15     1.933   1_655 S
Br119  C135    1.915   .     S
Br120  C137    1.917   .     S
Br121  C140    1.919   .     S
Br122  C141    1.925   .     S
Br123  C150    1.917   .     S
Br124  C151    1.917   .     S
C125   O167    1.293   .     A
C125   O169    1.294   .     A
C125   C138    1.450   .     S
C126   C151    1.400   .     A
C126   C128    1.406   .     A
C126   H156    1.077   .     S
C127   C152    1.406   .     A
C127   C146    1.417   .     A
C127   C476    1.525   1_554 S
C128   C147    1.418   .     A
C128   C475    1.525   .     S
C129   C131    1.437   .     S
C129   O173    1.298   .     A
C129   O171    1.284   .     A
C130   O172    1.287   .     A
C130   C132    1.439   .     S
C130   O174    1.297   .     A
C132   Br2     1.940   1_655 S
C132   C15     1.359   1_655 S
C133   C144    1.405   .     A
C133   C135    1.390   .     A
C133   H162    1.082   .     S
C134   H163    1.082   .     S
C134   C137    1.389   .     A
C134   C145    1.401   .     A
C135   C138    1.403   .     A
C136   C139    1.466   .     S
C136   O168    1.298   .     A
C136   O170    1.297   .     A
C137   C139    1.411   .     A
C138   C140    1.402   .     A
C139   C141    1.413   .     A
C140   C142    1.391   .     A
C141   C143    1.392   .     A
C142   C144    1.407   .     A
C142   H155    1.082   .     S
C143   H157    1.082   .     S
C143   C145    1.404   .     A
C144   C319    1.480   1_545 S
C145   C318    1.480   .     S
C146   C148    1.406   .     A
C146   H158    1.077   .     S
C147   C149    1.408   .     A
C147   H159    1.078   .     S
C148   H160    1.074   .     S
C148   N165    1.359   .     A
C149   H161    1.081   .     S
C149   N166    1.362   .     A
C150   C152    1.402   .     A
C150   N165    1.375   .     A
C151   N166    1.374   .     A
C152   H164    1.078   .     S
Cu153  O174    1.985   .     S
Cu153  Cu154   2.688   .     S
Cu153  O167    1.959   .     S
Cu153  O170    1.961   .     S
Cu153  N166    2.019   .     S
Cu153  O171    1.986   .     S
Cu154  O173    1.985   .     S
Cu154  O172    1.986   .     S
Cu154  N165    2.019   .     S
Cu154  O169    1.961   .     S
Cu154  O168    1.959   .     S
Br175  C247    1.933   .     S
Br176  C306    1.940   1_455 S
Br177  C193    1.915   .     S
Br178  C195    1.917   .     S
Br179  C198    1.919   .     S
Br180  C199    1.925   .     S
Br181  C208    1.917   .     S
Br182  C209    1.917   .     S
C183   O225    1.293   .     A
C183   O227    1.294   .     A
C183   C196    1.450   .     S
C184   C209    1.400   .     A
C184   C186    1.406   .     A
C184   H214    1.077   .     S
C185   C210    1.406   .     A
C185   C204    1.417   .     A
C185   C534    1.525   1_554 S
C186   C205    1.418   .     A
C186   C533    1.525   .     S
C187   C189    1.437   .     S
C187   O231    1.298   .     A
C187   O229    1.284   .     A
C188   O230    1.287   .     A
C188   C190    1.439   .     S
C188   O232    1.297   .     A
C189   Br291   1.933   1_455 S
C189   C306    1.359   1_455 S
C190   Br234   1.940   .     S
C190   C247    1.359   .     S
C191   C202    1.405   .     A
C191   C193    1.390   .     A
C191   H220    1.082   .     S
C192   H221    1.082   .     S
C192   C195    1.389   .     A
C192   C203    1.401   .     A
C193   C196    1.403   .     A
C194   C197    1.466   .     S
C194   O226    1.298   .     A
C194   O228    1.297   .     A
C195   C197    1.411   .     A
C196   C198    1.402   .     A
C197   C199    1.413   .     A
C198   C200    1.391   .     A
C199   C201    1.392   .     A
C200   C202    1.407   .     A
C200   H213    1.082   .     S
C201   H215    1.082   .     S
C201   C203    1.404   .     A
C203   C28     1.480   1_565 S
C204   C206    1.406   .     A
C204   H216    1.077   .     S
C205   C207    1.408   .     A
C205   H217    1.078   .     S
C206   H218    1.074   .     S
C206   N223    1.359   .     A
C207   H219    1.081   .     S
C207   N224    1.362   .     A
C208   C210    1.402   .     A
C208   N223    1.375   .     A
C209   N224    1.374   .     A
C210   H222    1.078   .     S
Cu211  O232    1.985   .     S
Cu211  Cu212   2.688   .     S
Cu211  O225    1.959   .     S
Cu211  O228    1.961   .     S
Cu211  N224    2.019   .     S
Cu211  O229    1.986   .     S
Cu212  O231    1.985   .     S
Cu212  O230    1.986   .     S
Cu212  N223    2.019   .     S
Cu212  O227    1.961   .     S
Cu212  O226    1.959   .     S
Br233  C305    1.933   .     S
Br235  C251    1.915   .     S
Br236  C253    1.917   .     S
Br237  C256    1.919   .     S
Br238  C257    1.925   .     S
Br239  C266    1.917   .     S
Br240  C267    1.917   .     S
C241   O283    1.293   .     A
C241   O285    1.294   .     A
C241   C254    1.450   .     S
C242   C267    1.400   .     A
C242   C244    1.406   .     A
C242   H272    1.077   .     S
C243   C268    1.406   .     A
C243   C262    1.417   .     A
C243   C592    1.525   1_554 S
C244   C263    1.418   .     A
C244   C591    1.525   .     S
C245   C247    1.437   .     S
C245   O289    1.298   .     A
C245   O287    1.284   .     A
C246   O288    1.287   .     A
C246   C248    1.439   .     S
C246   O290    1.297   .     A
C248   Br292   1.940   .     S
C248   C305    1.359   .     S
C249   C260    1.405   .     A
C249   C251    1.390   .     A
C249   H278    1.082   .     S
C250   H279    1.082   .     S
C250   C253    1.389   .     A
C250   C261    1.401   .     A
C251   C254    1.403   .     A
C252   C255    1.466   .     S
C252   O284    1.298   .     A
C252   O286    1.297   .     A
C253   C255    1.411   .     A
C254   C256    1.402   .     A
C255   C257    1.413   .     A
C256   C258    1.391   .     A
C257   C259    1.392   .     A
C258   C260    1.407   .     A
C258   H271    1.082   .     S
C259   H273    1.082   .     S
C259   C261    1.404   .     A
C261   C86     1.480   1_565 S
C262   C264    1.406   .     A
C262   H274    1.077   .     S
C263   C265    1.408   .     A
C263   H275    1.078   .     S
C264   H276    1.074   .     S
C264   N281    1.359   .     A
C265   H277    1.081   .     S
C265   N282    1.362   .     A
C266   C268    1.402   .     A
C266   N281    1.375   .     A
C267   N282    1.374   .     A
C268   H280    1.078   .     S
Cu269  O290    1.985   .     S
Cu269  Cu270   2.688   .     S
Cu269  O283    1.959   .     S
Cu269  O286    1.961   .     S
Cu269  N282    2.019   .     S
Cu269  O287    1.986   .     S
Cu270  O289    1.985   .     S
Cu270  O288    1.986   .     S
Cu270  N281    2.019   .     S
Cu270  O285    1.961   .     S
Cu270  O284    1.959   .     S
Br291  C189    1.933   1_655 S
Br293  C309    1.915   .     S
Br294  C311    1.917   .     S
Br295  C314    1.919   .     S
Br296  C315    1.925   .     S
Br297  C324    1.917   .     S
Br298  C325    1.917   .     S
C299   O341    1.293   .     A
C299   O343    1.294   .     A
C299   C312    1.450   .     S
C300   C325    1.400   .     A
C300   C302    1.406   .     A
C300   H330    1.077   .     S
C301   C326    1.406   .     A
C301   C320    1.417   .     A
C301   C650    1.525   1_554 S
C302   C321    1.418   .     A
C302   C649    1.525   .     S
C303   C305    1.437   .     S
C303   O347    1.298   .     A
C303   O345    1.284   .     A
C304   O346    1.287   .     A
C304   C306    1.439   .     S
C304   O348    1.297   .     A
C306   Br176   1.940   1_655 S
C306   C189    1.359   1_655 S
C307   C318    1.405   .     A
C307   C309    1.390   .     A
C307   H336    1.082   .     S
C308   H337    1.082   .     S
C308   C311    1.389   .     A
C308   C319    1.401   .     A
C309   C312    1.403   .     A
C310   C313    1.466   .     S
C310   O342    1.298   .     A
C310   O344    1.297   .     A
C311   C313    1.411   .     A
C312   C314    1.402   .     A
C313   C315    1.413   .     A
C314   C316    1.391   .     A
C315   C317    1.392   .     A
C316   C318    1.407   .     A
C316   H329    1.082   .     S
C317   H331    1.082   .     S
C317   C319    1.404   .     A
C319   C144    1.480   1_565 S
C320   C322    1.406   .     A
C320   H332    1.077   .     S
C321   C323    1.408   .     A
C321   H333    1.078   .     S
C322   H334    1.074   .     S
C322   N339    1.359   .     A
C323   H335    1.081   .     S
C323   N340    1.362   .     A
C324   C326    1.402   .     A
C324   N339    1.375   .     A
C325   N340    1.374   .     A
C326   H338    1.078   .     S
Cu327  O348    1.985   .     S
Cu327  Cu328   2.688   .     S
Cu327  O341    1.959   .     S
Cu327  O344    1.961   .     S
Cu327  N340    2.019   .     S
Cu327  O345    1.986   .     S
Cu328  O347    1.985   .     S
Cu328  O346    1.986   .     S
Cu328  N339    2.019   .     S
Cu328  O343    1.961   .     S
Cu328  O342    1.959   .     S
Br349  C421    1.933   .     S
Br350  C480    1.940   1_455 S
Br351  C367    1.915   .     S
Br352  C369    1.917   .     S
Br353  C372    1.919   .     S
Br354  C373    1.925   .     S
Br355  C382    1.917   .     S
Br356  C383    1.917   .     S
C357   O399    1.293   .     A
C357   O401    1.294   .     A
C357   C370    1.450   .     S
C358   C383    1.400   .     A
C358   C360    1.406   .     A
C358   H388    1.077   .     S
C359   C384    1.406   .     A
C359   C378    1.417   .     A
C360   C379    1.418   .     A
C360   C11     1.525   1_556 S
C361   C363    1.437   .     S
C361   O405    1.298   .     A
C361   O403    1.284   .     A
C362   O404    1.287   .     A
C362   C364    1.439   .     S
C362   O406    1.297   .     A
C363   Br465   1.933   1_455 S
C363   C480    1.359   1_455 S
C364   Br408   1.940   .     S
C364   C421    1.359   .     S
C365   C376    1.405   .     A
C365   C367    1.390   .     A
C365   H394    1.082   .     S
C366   H395    1.082   .     S
C366   C369    1.389   .     A
C366   C377    1.401   .     A
C367   C370    1.403   .     A
C368   C371    1.466   .     S
C368   O400    1.298   .     A
C368   O402    1.297   .     A
C369   C371    1.411   .     A
C370   C372    1.402   .     A
C371   C373    1.413   .     A
C372   C374    1.391   .     A
C373   C375    1.392   .     A
C374   C376    1.407   .     A
C374   H387    1.082   .     S
C375   H389    1.082   .     S
C375   C377    1.404   .     A
C376   C551    1.480   1_545 S
C377   C550    1.480   .     S
C378   C380    1.406   .     A
C378   H390    1.077   .     S
C379   C381    1.408   .     A
C379   H391    1.078   .     S
C380   H392    1.074   .     S
C380   N397    1.359   .     A
C381   H393    1.081   .     S
C381   N398    1.362   .     A
C382   C384    1.402   .     A
C382   N397    1.375   .     A
C383   N398    1.374   .     A
C384   H396    1.078   .     S
Cu385  O406    1.985   .     S
Cu385  Cu386   2.688   .     S
Cu385  O399    1.959   .     S
Cu385  O402    1.961   .     S
Cu385  N398    2.019   .     S
Cu385  O403    1.986   .     S
Cu386  O405    1.985   .     S
Cu386  O404    1.986   .     S
Cu386  N397    2.019   .     S
Cu386  O401    1.961   .     S
Cu386  O400    1.959   .     S
Br407  C479    1.933   .     S
Br409  C425    1.915   .     S
Br410  C427    1.917   .     S
Br411  C430    1.919   .     S
Br412  C431    1.925   .     S
Br413  C440    1.917   .     S
Br414  C441    1.917   .     S
C415   O457    1.293   .     A
C415   O459    1.294   .     A
C415   C428    1.450   .     S
C416   C441    1.400   .     A
C416   C418    1.406   .     A
C416   H446    1.077   .     S
C417   C442    1.406   .     A
C417   C436    1.417   .     A
C418   C437    1.418   .     A
C418   C69     1.525   1_556 S
C419   C421    1.437   .     S
C419   O463    1.298   .     A
C419   O461    1.284   .     A
C420   O462    1.287   .     A
C420   C422    1.439   .     S
C420   O464    1.297   .     A
C422   Br466   1.940   .     S
C422   C479    1.359   .     S
C423   C434    1.405   .     A
C423   C425    1.390   .     A
C423   H452    1.082   .     S
C424   H453    1.082   .     S
C424   C427    1.389   .     A
C424   C435    1.401   .     A
C425   C428    1.403   .     A
C426   C429    1.466   .     S
C426   O458    1.298   .     A
C426   O460    1.297   .     A
C427   C429    1.411   .     A
C428   C430    1.402   .     A
C429   C431    1.413   .     A
C430   C432    1.391   .     A
C431   C433    1.392   .     A
C432   C434    1.407   .     A
C432   H445    1.082   .     S
C433   H447    1.082   .     S
C433   C435    1.404   .     A
C434   C609    1.480   1_545 S
C435   C608    1.480   .     S
C436   C438    1.406   .     A
C436   H448    1.077   .     S
C437   C439    1.408   .     A
C437   H449    1.078   .     S
C438   H450    1.074   .     S
C438   N455    1.359   .     A
C439   H451    1.081   .     S
C439   N456    1.362   .     A
C440   C442    1.402   .     A
C440   N455    1.375   .     A
C441   N456    1.374   .     A
C442   H454    1.078   .     S
Cu443  O464    1.985   .     S
Cu443  Cu444   2.688   .     S
Cu443  O457    1.959   .     S
Cu443  O460    1.961   .     S
Cu443  N456    2.019   .     S
Cu443  O461    1.986   .     S
Cu444  O463    1.985   .     S
Cu444  O462    1.986   .     S
Cu444  N455    2.019   .     S
Cu444  O459    1.961   .     S
Cu444  O458    1.959   .     S
Br465  C363    1.933   1_655 S
Br467  C483    1.915   .     S
Br468  C485    1.917   .     S
Br469  C488    1.919   .     S
Br470  C489    1.925   .     S
Br471  C498    1.917   .     S
Br472  C499    1.917   .     S
C473   O515    1.293   .     A
C473   O517    1.294   .     A
C473   C486    1.450   .     S
C474   C499    1.400   .     A
C474   C476    1.406   .     A
C474   H504    1.077   .     S
C475   C500    1.406   .     A
C475   C494    1.417   .     A
C476   C495    1.418   .     A
C476   C127    1.525   1_556 S
C477   C479    1.437   .     S
C477   O521    1.298   .     A
C477   O519    1.284   .     A
C478   O520    1.287   .     A
C478   C480    1.439   .     S
C478   O522    1.297   .     A
C480   Br350   1.940   1_655 S
C480   C363    1.359   1_655 S
C481   C492    1.405   .     A
C481   C483    1.390   .     A
C481   H510    1.082   .     S
C482   H511    1.082   .     S
C482   C485    1.389   .     A
C482   C493    1.401   .     A
C483   C486    1.403   .     A
C484   C487    1.466   .     S
C484   O516    1.298   .     A
C484   O518    1.297   .     A
C485   C487    1.411   .     A
C486   C488    1.402   .     A
C487   C489    1.413   .     A
C488   C490    1.391   .     A
C489   C491    1.392   .     A
C490   C492    1.407   .     A
C490   H503    1.082   .     S
C491   H505    1.082   .     S
C491   C493    1.404   .     A
C492   C667    1.480   1_545 S
C493   C666    1.480   .     S
C494   C496    1.406   .     A
C494   H506    1.077   .     S
C495   C497    1.408   .     A
C495   H507    1.078   .     S
C496   H508    1.074   .     S
C496   N513    1.359   .     A
C497   H509    1.081   .     S
C497   N514    1.362   .     A
C498   C500    1.402   .     A
C498   N513    1.375   .     A
C499   N514    1.374   .     A
C500   H512    1.078   .     S
Cu501  O522    1.985   .     S
Cu501  Cu502   2.688   .     S
Cu501  O515    1.959   .     S
Cu501  O518    1.961   .     S
Cu501  N514    2.019   .     S
Cu501  O519    1.986   .     S
Cu502  O521    1.985   .     S
Cu502  O520    1.986   .     S
Cu502  N513    2.019   .     S
Cu502  O517    1.961   .     S
Cu502  O516    1.959   .     S
Br523  C595    1.933   .     S
Br524  C654    1.940   1_455 S
Br525  C541    1.915   .     S
Br526  C543    1.917   .     S
Br527  C546    1.919   .     S
Br528  C547    1.925   .     S
Br529  C556    1.917   .     S
Br530  C557    1.917   .     S
C531   O573    1.293   .     A
C531   O575    1.294   .     A
C531   C544    1.450   .     S
C532   C557    1.400   .     A
C532   C534    1.406   .     A
C532   H562    1.077   .     S
C533   C558    1.406   .     A
C533   C552    1.417   .     A
C534   C553    1.418   .     A
C534   C185    1.525   1_556 S
C535   C537    1.437   .     S
C535   O579    1.298   .     A
C535   O577    1.284   .     A
C536   O578    1.287   .     A
C536   C538    1.439   .     S
C536   O580    1.297   .     A
C537   Br639   1.933   1_455 S
C537   C654    1.359   1_455 S
C538   Br582   1.940   .     S
C538   C595    1.359   .     S
C539   C550    1.405   .     A
C539   C541    1.390   .     A
C539   H568    1.082   .     S
C540   H569    1.082   .     S
C540   C543    1.389   .     A
C540   C551    1.401   .     A
C541   C544    1.403   .     A
C542   C545    1.466   .     S
C542   O574    1.298   .     A
C542   O576    1.297   .     A
C543   C545    1.411   .     A
C544   C546    1.402   .     A
C545   C547    1.413   .     A
C546   C548    1.391   .     A
C547   C549    1.392   .     A
C548   C550    1.407   .     A
C548   H561    1.082   .     S
C549   H563    1.082   .     S
C549   C551    1.404   .     A
C551   C376    1.480   1_565 S
C552   C554    1.406   .     A
C552   H564    1.077   .     S
C553   C555    1.408   .     A
C553   H565    1.078   .     S
C554   H566    1.074   .     S
C554   N571    1.359   .     A
C555   H567    1.081   .     S
C555   N572    1.362   .     A
C556   C558    1.402   .     A
C556   N571    1.375   .     A
C557   N572    1.374   .     A
C558   H570    1.078   .     S
Cu559  O580    1.985   .     S
Cu559  Cu560   2.688   .     S
Cu559  O573    1.959   .     S
Cu559  O576    1.961   .     S
Cu559  N572    2.019   .     S
Cu559  O577    1.986   .     S
Cu560  O579    1.985   .     S
Cu560  O578    1.986   .     S
Cu560  N571    2.019   .     S
Cu560  O575    1.961   .     S
Cu560  O574    1.959   .     S
Br581  C653    1.933   .     S
Br583  C599    1.915   .     S
Br584  C601    1.917   .     S
Br585  C604    1.919   .     S
Br586  C605    1.925   .     S
Br587  C614    1.917   .     S
Br588  C615    1.917   .     S
C589   O631    1.293   .     A
C589   O633    1.294   .     A
C589   C602    1.450   .     S
C590   C615    1.400   .     A
C590   C592    1.406   .     A
C590   H620    1.077   .     S
C591   C616    1.406   .     A
C591   C610    1.417   .     A
C592   C611    1.418   .     A
C592   C243    1.525   1_556 S
C593   C595    1.437   .     S
C593   O637    1.298   .     A
C593   O635    1.284   .     A
C594   O636    1.287   .     A
C594   C596    1.439   .     S
C594   O638    1.297   .     A
C596   Br640   1.940   .     S
C596   C653    1.359   .     S
C597   C608    1.405   .     A
C597   C599    1.390   .     A
C597   H626    1.082   .     S
C598   H627    1.082   .     S
C598   C601    1.389   .     A
C598   C609    1.401   .     A
C599   C602    1.403   .     A
C600   C603    1.466   .     S
C600   O632    1.298   .     A
C600   O634    1.297   .     A
C601   C603    1.411   .     A
C602   C604    1.402   .     A
C603   C605    1.413   .     A
C604   C606    1.391   .     A
C605   C607    1.392   .     A
C606   C608    1.407   .     A
C606   H619    1.082   .     S
C607   H621    1.082   .     S
C607   C609    1.404   .     A
C609   C434    1.480   1_565 S
C610   C612    1.406   .     A
C610   H622    1.077   .     S
C611   C613    1.408   .     A
C611   H623    1.078   .     S
C612   H624    1.074   .     S
C612   N629    1.359   .     A
C613   H625    1.081   .     S
C613   N630    1.362   .     A
C614   C616    1.402   .     A
C614   N629    1.375   .     A
C615   N630    1.374   .     A
C616   H628    1.078   .     S
Cu617  O638    1.985   .     S
Cu617  Cu618   2.688   .     S
Cu617  O631    1.959   .     S
Cu617  O634    1.961   .     S
Cu617  N630    2.019   .     S
Cu617  O635    1.986   .     S
Cu618  O637    1.985   .     S
Cu618  O636    1.986   .     S
Cu618  N629    2.019   .     S
Cu618  O633    1.961   .     S
Cu618  O632    1.959   .     S
Br639  C537    1.933   1_655 S
Br641  C657    1.915   .     S
Br642  C659    1.917   .     S
Br643  C662    1.919   .     S
Br644  C663    1.925   .     S
Br645  C672    1.917   .     S
Br646  C673    1.917   .     S
C647   O689    1.293   .     A
C647   O691    1.294   .     A
C647   C660    1.450   .     S
C648   C673    1.400   .     A
C648   C650    1.406   .     A
C648   H678    1.077   .     S
C649   C674    1.406   .     A
C649   C668    1.417   .     A
C650   C669    1.418   .     A
C650   C301    1.525   1_556 S
C651   C653    1.437   .     S
C651   O695    1.298   .     A
C651   O693    1.284   .     A
C652   O694    1.287   .     A
C652   C654    1.439   .     S
C652   O696    1.297   .     A
C654   Br524   1.940   1_655 S
C654   C537    1.359   1_655 S
C655   C666    1.405   .     A
C655   C657    1.390   .     A
C655   H684    1.082   .     S
C656   H685    1.082   .     S
C656   C659    1.389   .     A
C656   C667    1.401   .     A
C657   C660    1.403   .     A
C658   C661    1.466   .     S
C658   O690    1.298   .     A
C658   O692    1.297   .     A
C659   C661    1.411   .     A
C660   C662    1.402   .     A
C661   C663    1.413   .     A
C662   C664    1.391   .     A
C663   C665    1.392   .     A
C664   C666    1.407   .     A
C664   H677    1.082   .     S
C665   H679    1.082   .     S
C665   C667    1.404   .     A
C667   C492    1.480   1_565 S
C668   C670    1.406   .     A
C668   H680    1.077   .     S
C669   C671    1.408   .     A
C669   H681    1.078   .     S
C670   H682    1.074   .     S
C670   N687    1.359   .     A
C671   H683    1.081   .     S
C671   N688    1.362   .     A
C672   C674    1.402   .     A
C672   N687    1.375   .     A
C673   N688    1.374   .     A
C674   H686    1.078   .     S
Cu675  O696    1.985   .     S
Cu675  Cu676   2.688   .     S
Cu675  O689    1.959   .     S
Cu675  O692    1.961   .     S
Cu675  N688    2.019   .     S
Cu675  O693    1.986   .     S
Cu676  O695    1.985   .     S
Cu676  O694    1.986   .     S
Cu676  N687    2.019   .     S
Cu676  O691    1.961   .     S
Cu676  O690    1.959   .     S
