data_str_m2_o1_o16_pcu_sym.236
_audit_creation_date              2020-01-03
_audit_creation_method            'Materials Studio'
_symmetry_space_group_name_H-M    'P1'
_symmetry_Int_Tables_number       1
_symmetry_cell_setting            triclinic
loop_
_symmetry_equiv_pos_as_xyz
  x,y,z
_cell_length_a                    28.8823
_cell_length_b                    32.3659
_cell_length_c                    27.0875
_cell_angle_alpha                 92.5186
_cell_angle_beta                  72.7261
_cell_angle_gamma                 89.5876
loop_
_atom_site_label
_atom_site_type_symbol
_atom_site_fract_x
_atom_site_fract_y
_atom_site_fract_z
_atom_site_U_iso_or_equiv
_atom_site_adp_type
_atom_site_occupancy
C1     C     0.16669   0.24574   0.24949   0.00000  Uiso   1.00
C2     C     0.14403   0.16342   0.49129   0.00000  Uiso   1.00
C3     C     0.16030   0.16642   0.43689   0.00000  Uiso   1.00
C4     C     0.17903   0.15459   0.01709   0.00000  Uiso   1.00
C5     C     0.22280   0.13375   0.48903   0.00000  Uiso   1.00
C6     C     0.23869   0.13737   0.43498   0.00000  Uiso   1.00
C7     C     0.21102   0.16220   0.41306   0.00000  Uiso   1.00
C8     C     0.17515   0.17125   0.06689   0.00000  Uiso   1.00
C9     C     0.24366   0.12748   0.06933   0.00000  Uiso   1.00
C10    C     0.12648   0.17478   0.40882   0.00000  Uiso   1.00
C11    C     0.20581   0.31021   0.21496   0.00000  Uiso   1.00
C12    C     0.14077   0.16969   0.35045   0.00000  Uiso   1.00
C13    C     0.20443   0.02037   0.21422   0.00000  Uiso   1.00
C14    C     0.16685   0.04281   0.25104   0.00000  Uiso   1.00
C15    C     0.12863   0.02221   0.28596   0.00000  Uiso   1.00
C16    C     0.12814   0.31275   0.28266   0.00000  Uiso   1.00
C17    C     0.16672   0.29030   0.24844   0.00000  Uiso   1.00
C18    C     0.30168   0.19920   0.27242   0.00000  Uiso   1.00
C19    C     0.01726   0.19839   0.27432   0.00000  Uiso   1.00
C20    C     0.03250   0.13579   0.22442   0.00000  Uiso   1.00
C21    C     0.31653   0.13544   0.22481   0.00000  Uiso   1.00
C22    C     0.16666   0.08755   0.25044   0.00000  Uiso   1.00
C23    C     0.19257   0.16454   0.15032   0.00000  Uiso   1.00
C24    C     0.25246   0.11629   0.01633   0.00000  Uiso   1.00
C25    C     0.20626   0.15636   0.09395   0.00000  Uiso   1.00
C26    C     0.07851   0.18720   0.43806   0.00000  Uiso   1.00
C27    C     0.06234   0.18311   0.49163   0.00000  Uiso   1.00
C28    C     0.09401   0.16842   0.01784   0.00000  Uiso   1.00
Cu29   Cu    0.11978   0.16666   0.25000   0.00000  Uiso   1.00
Cu30   Cu    0.21355   0.16667   0.25000   0.00000  Uiso   1.00
H31    H     0.09871   0.29684   0.30903   0.00000  Uiso   1.00
N32    N     0.04931   0.16666   0.24998   0.00000  Uiso   1.00
N33    N     0.28402   0.16669   0.24999   0.00000  Uiso   1.00
O34    O     0.12708   0.22678   0.25000   0.00000  Uiso   1.00
O35    O     0.20627   0.22679   0.25000   0.00000  Uiso   1.00
O36    O     0.10775   0.16665   0.32549   0.00000  Uiso   1.00
O37    O     0.18694   0.16666   0.32549   0.00000  Uiso   1.00
O38    O     0.12706   0.10654   0.24999   0.00000  Uiso   1.00
O39    O     0.20625   0.10655   0.24999   0.00000  Uiso   1.00
O40    O     0.14640   0.16667   0.17451   0.00000  Uiso   1.00
O41    O     0.22559   0.16668   0.17451   0.00000  Uiso   1.00
O42    O     0.27062   0.11051   0.09809   0.00000  Uiso   1.00
H43    H     0.29558   0.09092   0.07628   0.00000  Uiso   1.00
O44    O     0.23760   0.04162   0.17688   0.00000  Uiso   1.00
H45    H     0.25007   0.02335   0.14531   0.00000  Uiso   1.00
O46    O     0.09155   0.04236   0.32400   0.00000  Uiso   1.00
H47    H     0.10199   0.07032   0.33173   0.00000  Uiso   1.00
O48    O     0.27100   0.23245   0.29363   0.00000  Uiso   1.00
H49    H     0.28881   0.25520   0.30488   0.00000  Uiso   1.00
O50    O     0.03126   0.23048   0.30110   0.00000  Uiso   1.00
H51    H     0.05667   0.21968   0.31446   0.00000  Uiso   1.00
N52    N     0.06551   0.10427   0.19506   0.00000  Uiso   1.00
H53    H     0.06572   0.10487   0.15645   0.00000  Uiso   1.00
H54    H     0.05272   0.07557   0.20895   0.00000  Uiso   1.00
O55    O     0.30321   0.10338   0.19756   0.00000  Uiso   1.00
H56    H     0.27741   0.11411   0.18472   0.00000  Uiso   1.00
N57    N     0.28644   0.12389   0.40450   0.00000  Uiso   1.00
H58    H     0.30550   0.14926   0.38712   0.00000  Uiso   1.00
H59    H     0.28273   0.10370   0.37477   0.00000  Uiso   1.00
O60    O     0.28941   0.08817   0.49284   0.00000  Uiso   1.00
H61    H     0.27877   0.07076   0.46736   0.00000  Uiso   1.00
O62    O     0.14416   0.20492   0.08592   0.00000  Uiso   1.00
H63    H     0.15619   0.22164   0.11092   0.00000  Uiso   1.00
N64    N     0.04585   0.20651   0.41506   0.00000  Uiso   1.00
H65    H     0.03575   0.18493   0.39084   0.00000  Uiso   1.00
H66    H     0.06336   0.23134   0.39441   0.00000  Uiso   1.00
N67    N     0.07506   0.15590   0.07016   0.00000  Uiso   1.00
H68    H     0.05103   0.13180   0.07073   0.00000  Uiso   1.00
H69    H     0.05583   0.18072   0.09344   0.00000  Uiso   1.00
N70    N     0.01289   0.19406   0.01909   0.00000  Uiso   1.00
H71    H     0.01260   0.21758   0.04690   0.00000  Uiso   1.00
H72    H     0.32953   0.16830   0.03801   0.00000  Uiso   1.00
O73    O     0.23607   0.19096   0.37992   0.00000  Uiso   1.00
H74    H     0.21451   0.21560   0.38310   0.00000  Uiso   1.00
O75    O     0.24396   0.28652   0.18313   0.00000  Uiso   1.00
H76    H     0.27381   0.30300   0.17573   0.00000  Uiso   1.00
C77    C     0.50002   0.24574   0.24949   0.00000  Uiso   1.00
C78    C     0.47737   0.16342   0.49129   0.00000  Uiso   1.00
C79    C     0.49363   0.16642   0.43689   0.00000  Uiso   1.00
C80    C     0.51236   0.15459   0.01709   0.00000  Uiso   1.00
C81    C     0.55614   0.13375   0.48903   0.00000  Uiso   1.00
C82    C     0.57202   0.13737   0.43498   0.00000  Uiso   1.00
C83    C     0.54436   0.16220   0.41306   0.00000  Uiso   1.00
C84    C     0.50849   0.17125   0.06689   0.00000  Uiso   1.00
C85    C     0.57699   0.12748   0.06933   0.00000  Uiso   1.00
C86    C     0.45981   0.17478   0.40882   0.00000  Uiso   1.00
C87    C     0.53915   0.31021   0.21496   0.00000  Uiso   1.00
C88    C     0.47411   0.16969   0.35045   0.00000  Uiso   1.00
C89    C     0.53776   0.02037   0.21422   0.00000  Uiso   1.00
C90    C     0.50018   0.04281   0.25104   0.00000  Uiso   1.00
C91    C     0.46196   0.02221   0.28596   0.00000  Uiso   1.00
C92    C     0.46147   0.31275   0.28266   0.00000  Uiso   1.00
C93    C     0.50005   0.29030   0.24844   0.00000  Uiso   1.00
C94    C     0.63501   0.19920   0.27242   0.00000  Uiso   1.00
C95    C     0.35059   0.19839   0.27432   0.00000  Uiso   1.00
C96    C     0.36584   0.13579   0.22442   0.00000  Uiso   1.00
C97    C     0.64986   0.13544   0.22481   0.00000  Uiso   1.00
C98    C     0.49999   0.08755   0.25044   0.00000  Uiso   1.00
C99    C     0.52590   0.16454   0.15032   0.00000  Uiso   1.00
C100   C     0.58579   0.11629   0.01633   0.00000  Uiso   1.00
C101   C     0.53959   0.15636   0.09395   0.00000  Uiso   1.00
C102   C     0.41185   0.18720   0.43806   0.00000  Uiso   1.00
C103   C     0.39567   0.18311   0.49163   0.00000  Uiso   1.00
C104   C     0.42734   0.16842   0.01784   0.00000  Uiso   1.00
Cu105  Cu    0.45311   0.16666   0.25000   0.00000  Uiso   1.00
Cu106  Cu    0.54689   0.16667   0.25000   0.00000  Uiso   1.00
H107   H     0.43204   0.29684   0.30903   0.00000  Uiso   1.00
N108   N     0.38265   0.16666   0.24998   0.00000  Uiso   1.00
N109   N     0.61735   0.16669   0.24999   0.00000  Uiso   1.00
O110   O     0.46042   0.22678   0.25000   0.00000  Uiso   1.00
O111   O     0.53961   0.22679   0.25000   0.00000  Uiso   1.00
O112   O     0.44108   0.16665   0.32549   0.00000  Uiso   1.00
O113   O     0.52027   0.16666   0.32549   0.00000  Uiso   1.00
O114   O     0.46039   0.10654   0.24999   0.00000  Uiso   1.00
O115   O     0.53958   0.10655   0.24999   0.00000  Uiso   1.00
O116   O     0.47973   0.16667   0.17451   0.00000  Uiso   1.00
O117   O     0.55892   0.16668   0.17451   0.00000  Uiso   1.00
O118   O     0.60395   0.11051   0.09809   0.00000  Uiso   1.00
H119   H     0.62892   0.09092   0.07628   0.00000  Uiso   1.00
O120   O     0.57094   0.04162   0.17688   0.00000  Uiso   1.00
H121   H     0.58340   0.02335   0.14531   0.00000  Uiso   1.00
O122   O     0.42489   0.04236   0.32400   0.00000  Uiso   1.00
H123   H     0.43533   0.07032   0.33173   0.00000  Uiso   1.00
O124   O     0.60434   0.23245   0.29363   0.00000  Uiso   1.00
H125   H     0.62214   0.25520   0.30488   0.00000  Uiso   1.00
O126   O     0.36460   0.23048   0.30110   0.00000  Uiso   1.00
H127   H     0.39000   0.21968   0.31446   0.00000  Uiso   1.00
N128   N     0.39884   0.10427   0.19506   0.00000  Uiso   1.00
H129   H     0.39905   0.10487   0.15645   0.00000  Uiso   1.00
H130   H     0.38605   0.07557   0.20895   0.00000  Uiso   1.00
O131   O     0.63654   0.10338   0.19756   0.00000  Uiso   1.00
H132   H     0.61074   0.11411   0.18472   0.00000  Uiso   1.00
N133   N     0.61978   0.12389   0.40450   0.00000  Uiso   1.00
H134   H     0.63883   0.14926   0.38712   0.00000  Uiso   1.00
H135   H     0.61606   0.10370   0.37477   0.00000  Uiso   1.00
O136   O     0.62274   0.08817   0.49284   0.00000  Uiso   1.00
H137   H     0.61210   0.07076   0.46736   0.00000  Uiso   1.00
O138   O     0.47750   0.20492   0.08592   0.00000  Uiso   1.00
H139   H     0.48952   0.22164   0.11092   0.00000  Uiso   1.00
N140   N     0.37919   0.20651   0.41506   0.00000  Uiso   1.00
H141   H     0.36909   0.18493   0.39084   0.00000  Uiso   1.00
H142   H     0.39669   0.23134   0.39441   0.00000  Uiso   1.00
N143   N     0.40839   0.15590   0.07016   0.00000  Uiso   1.00
H144   H     0.38436   0.13180   0.07073   0.00000  Uiso   1.00
H145   H     0.38917   0.18072   0.09344   0.00000  Uiso   1.00
N146   N     0.34623   0.19406   0.01909   0.00000  Uiso   1.00
H147   H     0.34593   0.21758   0.04690   0.00000  Uiso   1.00
H148   H     0.66287   0.16830   0.03801   0.00000  Uiso   1.00
O149   O     0.56941   0.19096   0.37992   0.00000  Uiso   1.00
H150   H     0.54784   0.21560   0.38310   0.00000  Uiso   1.00
O151   O     0.57730   0.28652   0.18313   0.00000  Uiso   1.00
H152   H     0.60714   0.30300   0.17573   0.00000  Uiso   1.00
C153   C     0.83335   0.24574   0.24949   0.00000  Uiso   1.00
C154   C     0.81070   0.16342   0.49129   0.00000  Uiso   1.00
C155   C     0.82697   0.16642   0.43689   0.00000  Uiso   1.00
C156   C     0.84570   0.15459   0.01709   0.00000  Uiso   1.00
C157   C     0.88947   0.13375   0.48903   0.00000  Uiso   1.00
C158   C     0.90535   0.13737   0.43498   0.00000  Uiso   1.00
C159   C     0.87769   0.16220   0.41306   0.00000  Uiso   1.00
C160   C     0.84182   0.17125   0.06689   0.00000  Uiso   1.00
C161   C     0.91033   0.12748   0.06933   0.00000  Uiso   1.00
C162   C     0.79314   0.17478   0.40882   0.00000  Uiso   1.00
C163   C     0.87248   0.31021   0.21496   0.00000  Uiso   1.00
C164   C     0.80744   0.16969   0.35045   0.00000  Uiso   1.00
C165   C     0.87110   0.02037   0.21422   0.00000  Uiso   1.00
C166   C     0.83351   0.04281   0.25104   0.00000  Uiso   1.00
C167   C     0.79529   0.02221   0.28596   0.00000  Uiso   1.00
C168   C     0.79481   0.31275   0.28266   0.00000  Uiso   1.00
C169   C     0.83338   0.29030   0.24844   0.00000  Uiso   1.00
C170   C     0.96835   0.19920   0.27242   0.00000  Uiso   1.00
C171   C     0.68392   0.19839   0.27432   0.00000  Uiso   1.00
C172   C     0.69917   0.13579   0.22442   0.00000  Uiso   1.00
C173   C     0.98319   0.13544   0.22481   0.00000  Uiso   1.00
C174   C     0.83332   0.08755   0.25044   0.00000  Uiso   1.00
C175   C     0.85924   0.16454   0.15032   0.00000  Uiso   1.00
C176   C     0.91913   0.11629   0.01633   0.00000  Uiso   1.00
C177   C     0.87293   0.15636   0.09395   0.00000  Uiso   1.00
C178   C     0.74518   0.18720   0.43806   0.00000  Uiso   1.00
C179   C     0.72900   0.18311   0.49163   0.00000  Uiso   1.00
C180   C     0.76068   0.16842   0.01784   0.00000  Uiso   1.00
Cu181  Cu    0.78645   0.16666   0.25000   0.00000  Uiso   1.00
Cu182  Cu    0.88022   0.16667   0.25000   0.00000  Uiso   1.00
H183   H     0.76537   0.29684   0.30903   0.00000  Uiso   1.00
N184   N     0.71598   0.16666   0.24998   0.00000  Uiso   1.00
N185   N     0.95069   0.16669   0.24999   0.00000  Uiso   1.00
O186   O     0.79375   0.22678   0.25000   0.00000  Uiso   1.00
O187   O     0.87294   0.22679   0.25000   0.00000  Uiso   1.00
O188   O     0.77441   0.16665   0.32549   0.00000  Uiso   1.00
O189   O     0.85360   0.16666   0.32549   0.00000  Uiso   1.00
O190   O     0.79373   0.10654   0.24999   0.00000  Uiso   1.00
O191   O     0.87292   0.10655   0.24999   0.00000  Uiso   1.00
O192   O     0.81306   0.16667   0.17451   0.00000  Uiso   1.00
O193   O     0.89225   0.16668   0.17451   0.00000  Uiso   1.00
O194   O     0.93728   0.11051   0.09809   0.00000  Uiso   1.00
H195   H     0.96225   0.09092   0.07628   0.00000  Uiso   1.00
O196   O     0.90427   0.04162   0.17688   0.00000  Uiso   1.00
H197   H     0.91673   0.02335   0.14531   0.00000  Uiso   1.00
O198   O     0.75822   0.04236   0.32400   0.00000  Uiso   1.00
H199   H     0.76866   0.07032   0.33173   0.00000  Uiso   1.00
O200   O     0.93767   0.23245   0.29363   0.00000  Uiso   1.00
H201   H     0.95547   0.25520   0.30488   0.00000  Uiso   1.00
O202   O     0.69793   0.23048   0.30110   0.00000  Uiso   1.00
H203   H     0.72333   0.21968   0.31446   0.00000  Uiso   1.00
N204   N     0.73217   0.10427   0.19506   0.00000  Uiso   1.00
H205   H     0.73239   0.10487   0.15645   0.00000  Uiso   1.00
H206   H     0.71939   0.07557   0.20895   0.00000  Uiso   1.00
O207   O     0.96988   0.10338   0.19756   0.00000  Uiso   1.00
H208   H     0.94407   0.11411   0.18472   0.00000  Uiso   1.00
N209   N     0.95311   0.12389   0.40450   0.00000  Uiso   1.00
H210   H     0.97217   0.14926   0.38712   0.00000  Uiso   1.00
H211   H     0.94940   0.10370   0.37477   0.00000  Uiso   1.00
O212   O     0.95607   0.08817   0.49284   0.00000  Uiso   1.00
H213   H     0.94544   0.07076   0.46736   0.00000  Uiso   1.00
O214   O     0.81083   0.20492   0.08592   0.00000  Uiso   1.00
H215   H     0.82285   0.22164   0.11092   0.00000  Uiso   1.00
N216   N     0.71252   0.20651   0.41506   0.00000  Uiso   1.00
H217   H     0.70242   0.18493   0.39084   0.00000  Uiso   1.00
H218   H     0.73003   0.23134   0.39441   0.00000  Uiso   1.00
N219   N     0.74173   0.15590   0.07016   0.00000  Uiso   1.00
H220   H     0.71770   0.13180   0.07073   0.00000  Uiso   1.00
H221   H     0.72250   0.18072   0.09344   0.00000  Uiso   1.00
N222   N     0.67956   0.19406   0.01909   0.00000  Uiso   1.00
H223   H     0.67927   0.21758   0.04690   0.00000  Uiso   1.00
H224   H     0.99620   0.16830   0.03801   0.00000  Uiso   1.00
O225   O     0.90274   0.19096   0.37992   0.00000  Uiso   1.00
H226   H     0.88117   0.21560   0.38310   0.00000  Uiso   1.00
O227   O     0.91063   0.28652   0.18313   0.00000  Uiso   1.00
H228   H     0.94048   0.30300   0.17573   0.00000  Uiso   1.00
C229   C     0.16669   0.57907   0.24949   0.00000  Uiso   1.00
C230   C     0.14403   0.49675   0.49129   0.00000  Uiso   1.00
C231   C     0.16030   0.49975   0.43689   0.00000  Uiso   1.00
C232   C     0.17903   0.48792   0.01709   0.00000  Uiso   1.00
C233   C     0.22280   0.46708   0.48903   0.00000  Uiso   1.00
C234   C     0.23869   0.47070   0.43498   0.00000  Uiso   1.00
C235   C     0.21102   0.49554   0.41306   0.00000  Uiso   1.00
C236   C     0.17515   0.50459   0.06689   0.00000  Uiso   1.00
C237   C     0.24366   0.46081   0.06933   0.00000  Uiso   1.00
C238   C     0.12648   0.50812   0.40882   0.00000  Uiso   1.00
C239   C     0.20581   0.64354   0.21496   0.00000  Uiso   1.00
C240   C     0.14077   0.50302   0.35045   0.00000  Uiso   1.00
C241   C     0.20443   0.35370   0.21422   0.00000  Uiso   1.00
C242   C     0.16685   0.37614   0.25104   0.00000  Uiso   1.00
C243   C     0.12863   0.35554   0.28596   0.00000  Uiso   1.00
C244   C     0.12814   0.64608   0.28266   0.00000  Uiso   1.00
C245   C     0.16672   0.62363   0.24844   0.00000  Uiso   1.00
C246   C     0.30168   0.53253   0.27242   0.00000  Uiso   1.00
C247   C     0.01726   0.53173   0.27432   0.00000  Uiso   1.00
C248   C     0.03250   0.46912   0.22442   0.00000  Uiso   1.00
C249   C     0.31653   0.46878   0.22481   0.00000  Uiso   1.00
C250   C     0.16666   0.42089   0.25044   0.00000  Uiso   1.00
C251   C     0.19257   0.49787   0.15032   0.00000  Uiso   1.00
C252   C     0.25246   0.44963   0.01633   0.00000  Uiso   1.00
C253   C     0.20626   0.48969   0.09395   0.00000  Uiso   1.00
C254   C     0.07851   0.52053   0.43806   0.00000  Uiso   1.00
C255   C     0.06234   0.51644   0.49163   0.00000  Uiso   1.00
C256   C     0.09401   0.50175   0.01784   0.00000  Uiso   1.00
Cu257  Cu    0.11978   0.49999   0.25000   0.00000  Uiso   1.00
Cu258  Cu    0.21355   0.50001   0.25000   0.00000  Uiso   1.00
H259   H     0.09871   0.63018   0.30903   0.00000  Uiso   1.00
N260   N     0.04931   0.49999   0.24998   0.00000  Uiso   1.00
N261   N     0.28402   0.50002   0.24999   0.00000  Uiso   1.00
O262   O     0.12708   0.56011   0.25000   0.00000  Uiso   1.00
O263   O     0.20627   0.56012   0.25000   0.00000  Uiso   1.00
O264   O     0.10775   0.49998   0.32549   0.00000  Uiso   1.00
O265   O     0.18694   0.49999   0.32549   0.00000  Uiso   1.00
O266   O     0.12706   0.43988   0.24999   0.00000  Uiso   1.00
O267   O     0.20625   0.43989   0.24999   0.00000  Uiso   1.00
O268   O     0.14640   0.50001   0.17451   0.00000  Uiso   1.00
O269   O     0.22559   0.50002   0.17451   0.00000  Uiso   1.00
O270   O     0.27062   0.44384   0.09809   0.00000  Uiso   1.00
H271   H     0.29558   0.42425   0.07628   0.00000  Uiso   1.00
O272   O     0.23760   0.37495   0.17688   0.00000  Uiso   1.00
H273   H     0.25007   0.35669   0.14531   0.00000  Uiso   1.00
O274   O     0.09155   0.37569   0.32400   0.00000  Uiso   1.00
H275   H     0.10199   0.40366   0.33173   0.00000  Uiso   1.00
O276   O     0.27100   0.56578   0.29363   0.00000  Uiso   1.00
H277   H     0.28881   0.58853   0.30488   0.00000  Uiso   1.00
O278   O     0.03126   0.56381   0.30110   0.00000  Uiso   1.00
H279   H     0.05667   0.55301   0.31446   0.00000  Uiso   1.00
N280   N     0.06551   0.43760   0.19506   0.00000  Uiso   1.00
H281   H     0.06572   0.43820   0.15645   0.00000  Uiso   1.00
H282   H     0.05272   0.40891   0.20895   0.00000  Uiso   1.00
O283   O     0.30321   0.43672   0.19756   0.00000  Uiso   1.00
H284   H     0.27741   0.44744   0.18472   0.00000  Uiso   1.00
N285   N     0.28644   0.45722   0.40450   0.00000  Uiso   1.00
H286   H     0.30550   0.48259   0.38712   0.00000  Uiso   1.00
H287   H     0.28273   0.43703   0.37477   0.00000  Uiso   1.00
O288   O     0.28941   0.42150   0.49284   0.00000  Uiso   1.00
H289   H     0.27877   0.40409   0.46736   0.00000  Uiso   1.00
O290   O     0.14416   0.53826   0.08592   0.00000  Uiso   1.00
H291   H     0.15619   0.55498   0.11092   0.00000  Uiso   1.00
N292   N     0.04585   0.53984   0.41506   0.00000  Uiso   1.00
H293   H     0.03575   0.51826   0.39084   0.00000  Uiso   1.00
H294   H     0.06336   0.56467   0.39441   0.00000  Uiso   1.00
N295   N     0.07506   0.48923   0.07016   0.00000  Uiso   1.00
H296   H     0.05103   0.46514   0.07073   0.00000  Uiso   1.00
H297   H     0.05583   0.51406   0.09344   0.00000  Uiso   1.00
N298   N     0.01289   0.52740   0.01909   0.00000  Uiso   1.00
H299   H     0.01260   0.55092   0.04690   0.00000  Uiso   1.00
H300   H     0.32953   0.50164   0.03801   0.00000  Uiso   1.00
O301   O     0.23607   0.52429   0.37992   0.00000  Uiso   1.00
H302   H     0.21451   0.54893   0.38310   0.00000  Uiso   1.00
O303   O     0.24396   0.61986   0.18313   0.00000  Uiso   1.00
H304   H     0.27381   0.63634   0.17573   0.00000  Uiso   1.00
C305   C     0.50002   0.57907   0.24949   0.00000  Uiso   1.00
C306   C     0.47737   0.49675   0.49129   0.00000  Uiso   1.00
C307   C     0.49363   0.49975   0.43689   0.00000  Uiso   1.00
C308   C     0.51236   0.48792   0.01709   0.00000  Uiso   1.00
C309   C     0.55614   0.46708   0.48903   0.00000  Uiso   1.00
C310   C     0.57202   0.47070   0.43498   0.00000  Uiso   1.00
C311   C     0.54436   0.49554   0.41306   0.00000  Uiso   1.00
C312   C     0.50849   0.50459   0.06689   0.00000  Uiso   1.00
C313   C     0.57699   0.46081   0.06933   0.00000  Uiso   1.00
C314   C     0.45981   0.50812   0.40882   0.00000  Uiso   1.00
C315   C     0.53915   0.64354   0.21496   0.00000  Uiso   1.00
C316   C     0.47411   0.50302   0.35045   0.00000  Uiso   1.00
C317   C     0.53776   0.35370   0.21422   0.00000  Uiso   1.00
C318   C     0.50018   0.37614   0.25104   0.00000  Uiso   1.00
C319   C     0.46196   0.35554   0.28596   0.00000  Uiso   1.00
C320   C     0.46147   0.64608   0.28266   0.00000  Uiso   1.00
C321   C     0.50005   0.62363   0.24844   0.00000  Uiso   1.00
C322   C     0.63501   0.53253   0.27242   0.00000  Uiso   1.00
C323   C     0.35059   0.53173   0.27432   0.00000  Uiso   1.00
C324   C     0.36584   0.46912   0.22442   0.00000  Uiso   1.00
C325   C     0.64986   0.46878   0.22481   0.00000  Uiso   1.00
C326   C     0.49999   0.42089   0.25044   0.00000  Uiso   1.00
C327   C     0.52590   0.49787   0.15032   0.00000  Uiso   1.00
C328   C     0.58579   0.44963   0.01633   0.00000  Uiso   1.00
C329   C     0.53959   0.48969   0.09395   0.00000  Uiso   1.00
C330   C     0.41185   0.52053   0.43806   0.00000  Uiso   1.00
C331   C     0.39567   0.51644   0.49163   0.00000  Uiso   1.00
C332   C     0.42734   0.50175   0.01784   0.00000  Uiso   1.00
Cu333  Cu    0.45311   0.49999   0.25000   0.00000  Uiso   1.00
Cu334  Cu    0.54689   0.50001   0.25000   0.00000  Uiso   1.00
H335   H     0.43204   0.63018   0.30903   0.00000  Uiso   1.00
N336   N     0.38265   0.49999   0.24998   0.00000  Uiso   1.00
N337   N     0.61735   0.50002   0.24999   0.00000  Uiso   1.00
O338   O     0.46042   0.56011   0.25000   0.00000  Uiso   1.00
O339   O     0.53961   0.56012   0.25000   0.00000  Uiso   1.00
O340   O     0.44108   0.49998   0.32549   0.00000  Uiso   1.00
O341   O     0.52027   0.49999   0.32549   0.00000  Uiso   1.00
O342   O     0.46039   0.43988   0.24999   0.00000  Uiso   1.00
O343   O     0.53958   0.43989   0.24999   0.00000  Uiso   1.00
O344   O     0.47973   0.50001   0.17451   0.00000  Uiso   1.00
O345   O     0.55892   0.50002   0.17451   0.00000  Uiso   1.00
O346   O     0.60395   0.44384   0.09809   0.00000  Uiso   1.00
H347   H     0.62892   0.42425   0.07628   0.00000  Uiso   1.00
O348   O     0.57094   0.37495   0.17688   0.00000  Uiso   1.00
H349   H     0.58340   0.35669   0.14531   0.00000  Uiso   1.00
O350   O     0.42489   0.37569   0.32400   0.00000  Uiso   1.00
H351   H     0.43533   0.40366   0.33173   0.00000  Uiso   1.00
O352   O     0.60434   0.56578   0.29363   0.00000  Uiso   1.00
H353   H     0.62214   0.58853   0.30488   0.00000  Uiso   1.00
O354   O     0.36460   0.56381   0.30110   0.00000  Uiso   1.00
H355   H     0.39000   0.55301   0.31446   0.00000  Uiso   1.00
N356   N     0.39884   0.43760   0.19506   0.00000  Uiso   1.00
H357   H     0.39905   0.43820   0.15645   0.00000  Uiso   1.00
H358   H     0.38605   0.40891   0.20895   0.00000  Uiso   1.00
O359   O     0.63654   0.43672   0.19756   0.00000  Uiso   1.00
H360   H     0.61074   0.44744   0.18472   0.00000  Uiso   1.00
N361   N     0.61978   0.45722   0.40450   0.00000  Uiso   1.00
H362   H     0.63883   0.48259   0.38712   0.00000  Uiso   1.00
H363   H     0.61606   0.43703   0.37477   0.00000  Uiso   1.00
O364   O     0.62274   0.42150   0.49284   0.00000  Uiso   1.00
H365   H     0.61210   0.40409   0.46736   0.00000  Uiso   1.00
O366   O     0.47750   0.53826   0.08592   0.00000  Uiso   1.00
H367   H     0.48952   0.55498   0.11092   0.00000  Uiso   1.00
N368   N     0.37919   0.53984   0.41506   0.00000  Uiso   1.00
H369   H     0.36909   0.51826   0.39084   0.00000  Uiso   1.00
H370   H     0.39669   0.56467   0.39441   0.00000  Uiso   1.00
N371   N     0.40839   0.48923   0.07016   0.00000  Uiso   1.00
H372   H     0.38436   0.46514   0.07073   0.00000  Uiso   1.00
H373   H     0.38917   0.51406   0.09344   0.00000  Uiso   1.00
N374   N     0.34623   0.52740   0.01909   0.00000  Uiso   1.00
H375   H     0.34593   0.55092   0.04690   0.00000  Uiso   1.00
H376   H     0.66287   0.50164   0.03801   0.00000  Uiso   1.00
O377   O     0.56941   0.52429   0.37992   0.00000  Uiso   1.00
H378   H     0.54784   0.54893   0.38310   0.00000  Uiso   1.00
O379   O     0.57730   0.61986   0.18313   0.00000  Uiso   1.00
H380   H     0.60714   0.63634   0.17573   0.00000  Uiso   1.00
C381   C     0.83335   0.57907   0.24949   0.00000  Uiso   1.00
C382   C     0.81070   0.49675   0.49129   0.00000  Uiso   1.00
C383   C     0.82697   0.49975   0.43689   0.00000  Uiso   1.00
C384   C     0.84570   0.48792   0.01709   0.00000  Uiso   1.00
C385   C     0.88947   0.46708   0.48903   0.00000  Uiso   1.00
C386   C     0.90535   0.47070   0.43498   0.00000  Uiso   1.00
C387   C     0.87769   0.49554   0.41306   0.00000  Uiso   1.00
C388   C     0.84182   0.50459   0.06689   0.00000  Uiso   1.00
C389   C     0.91033   0.46081   0.06933   0.00000  Uiso   1.00
C390   C     0.79314   0.50812   0.40882   0.00000  Uiso   1.00
C391   C     0.87248   0.64354   0.21496   0.00000  Uiso   1.00
C392   C     0.80744   0.50302   0.35045   0.00000  Uiso   1.00
C393   C     0.87110   0.35370   0.21422   0.00000  Uiso   1.00
C394   C     0.83351   0.37614   0.25104   0.00000  Uiso   1.00
C395   C     0.79529   0.35554   0.28596   0.00000  Uiso   1.00
C396   C     0.79481   0.64608   0.28266   0.00000  Uiso   1.00
C397   C     0.83338   0.62363   0.24844   0.00000  Uiso   1.00
C398   C     0.96835   0.53253   0.27242   0.00000  Uiso   1.00
C399   C     0.68392   0.53173   0.27432   0.00000  Uiso   1.00
C400   C     0.69917   0.46912   0.22442   0.00000  Uiso   1.00
C401   C     0.98319   0.46878   0.22481   0.00000  Uiso   1.00
C402   C     0.83332   0.42089   0.25044   0.00000  Uiso   1.00
C403   C     0.85924   0.49787   0.15032   0.00000  Uiso   1.00
C404   C     0.91913   0.44963   0.01633   0.00000  Uiso   1.00
C405   C     0.87293   0.48969   0.09395   0.00000  Uiso   1.00
C406   C     0.74518   0.52053   0.43806   0.00000  Uiso   1.00
C407   C     0.72900   0.51644   0.49163   0.00000  Uiso   1.00
C408   C     0.76068   0.50175   0.01784   0.00000  Uiso   1.00
Cu409  Cu    0.78645   0.49999   0.25000   0.00000  Uiso   1.00
Cu410  Cu    0.88022   0.50001   0.25000   0.00000  Uiso   1.00
H411   H     0.76537   0.63018   0.30903   0.00000  Uiso   1.00
N412   N     0.71598   0.49999   0.24998   0.00000  Uiso   1.00
N413   N     0.95069   0.50002   0.24999   0.00000  Uiso   1.00
O414   O     0.79375   0.56011   0.25000   0.00000  Uiso   1.00
O415   O     0.87294   0.56012   0.25000   0.00000  Uiso   1.00
O416   O     0.77441   0.49998   0.32549   0.00000  Uiso   1.00
O417   O     0.85360   0.49999   0.32549   0.00000  Uiso   1.00
O418   O     0.79373   0.43988   0.24999   0.00000  Uiso   1.00
O419   O     0.87292   0.43989   0.24999   0.00000  Uiso   1.00
O420   O     0.81306   0.50001   0.17451   0.00000  Uiso   1.00
O421   O     0.89225   0.50002   0.17451   0.00000  Uiso   1.00
O422   O     0.93728   0.44384   0.09809   0.00000  Uiso   1.00
H423   H     0.96225   0.42425   0.07628   0.00000  Uiso   1.00
O424   O     0.90427   0.37495   0.17688   0.00000  Uiso   1.00
H425   H     0.91673   0.35669   0.14531   0.00000  Uiso   1.00
O426   O     0.75822   0.37569   0.32400   0.00000  Uiso   1.00
H427   H     0.76866   0.40366   0.33173   0.00000  Uiso   1.00
O428   O     0.93767   0.56578   0.29363   0.00000  Uiso   1.00
H429   H     0.95547   0.58853   0.30488   0.00000  Uiso   1.00
O430   O     0.69793   0.56381   0.30110   0.00000  Uiso   1.00
H431   H     0.72333   0.55301   0.31446   0.00000  Uiso   1.00
N432   N     0.73217   0.43760   0.19506   0.00000  Uiso   1.00
H433   H     0.73239   0.43820   0.15645   0.00000  Uiso   1.00
H434   H     0.71939   0.40891   0.20895   0.00000  Uiso   1.00
O435   O     0.96988   0.43672   0.19756   0.00000  Uiso   1.00
H436   H     0.94407   0.44744   0.18472   0.00000  Uiso   1.00
N437   N     0.95311   0.45722   0.40450   0.00000  Uiso   1.00
H438   H     0.97217   0.48259   0.38712   0.00000  Uiso   1.00
H439   H     0.94940   0.43703   0.37477   0.00000  Uiso   1.00
O440   O     0.95607   0.42150   0.49284   0.00000  Uiso   1.00
H441   H     0.94544   0.40409   0.46736   0.00000  Uiso   1.00
O442   O     0.81083   0.53826   0.08592   0.00000  Uiso   1.00
H443   H     0.82285   0.55498   0.11092   0.00000  Uiso   1.00
N444   N     0.71252   0.53984   0.41506   0.00000  Uiso   1.00
H445   H     0.70242   0.51826   0.39084   0.00000  Uiso   1.00
H446   H     0.73003   0.56467   0.39441   0.00000  Uiso   1.00
N447   N     0.74173   0.48923   0.07016   0.00000  Uiso   1.00
H448   H     0.71770   0.46514   0.07073   0.00000  Uiso   1.00
H449   H     0.72250   0.51406   0.09344   0.00000  Uiso   1.00
N450   N     0.67956   0.52740   0.01909   0.00000  Uiso   1.00
H451   H     0.67927   0.55092   0.04690   0.00000  Uiso   1.00
H452   H     0.99620   0.50164   0.03801   0.00000  Uiso   1.00
O453   O     0.90274   0.52429   0.37992   0.00000  Uiso   1.00
H454   H     0.88117   0.54893   0.38310   0.00000  Uiso   1.00
O455   O     0.91063   0.61986   0.18313   0.00000  Uiso   1.00
H456   H     0.94048   0.63634   0.17573   0.00000  Uiso   1.00
C457   C     0.16669   0.91241   0.24949   0.00000  Uiso   1.00
C458   C     0.14403   0.83009   0.49129   0.00000  Uiso   1.00
C459   C     0.16030   0.83308   0.43689   0.00000  Uiso   1.00
C460   C     0.17903   0.82125   0.01709   0.00000  Uiso   1.00
C461   C     0.22280   0.80041   0.48903   0.00000  Uiso   1.00
C462   C     0.23869   0.80404   0.43498   0.00000  Uiso   1.00
C463   C     0.21102   0.82887   0.41306   0.00000  Uiso   1.00
C464   C     0.17515   0.83792   0.06689   0.00000  Uiso   1.00
C465   C     0.24366   0.79414   0.06933   0.00000  Uiso   1.00
C466   C     0.12648   0.84145   0.40882   0.00000  Uiso   1.00
C467   C     0.20581   0.97687   0.21496   0.00000  Uiso   1.00
C468   C     0.14077   0.83635   0.35045   0.00000  Uiso   1.00
C469   C     0.20443   0.68704   0.21422   0.00000  Uiso   1.00
C470   C     0.16685   0.70947   0.25104   0.00000  Uiso   1.00
C471   C     0.12863   0.68888   0.28596   0.00000  Uiso   1.00
C472   C     0.12814   0.97941   0.28266   0.00000  Uiso   1.00
C473   C     0.16672   0.95697   0.24844   0.00000  Uiso   1.00
C474   C     0.30168   0.86586   0.27242   0.00000  Uiso   1.00
C475   C     0.01726   0.86506   0.27432   0.00000  Uiso   1.00
C476   C     0.03250   0.80245   0.22442   0.00000  Uiso   1.00
C477   C     0.31653   0.80211   0.22481   0.00000  Uiso   1.00
C478   C     0.16666   0.75422   0.25044   0.00000  Uiso   1.00
C479   C     0.19257   0.83120   0.15032   0.00000  Uiso   1.00
C480   C     0.25246   0.78296   0.01633   0.00000  Uiso   1.00
C481   C     0.20626   0.82303   0.09395   0.00000  Uiso   1.00
C482   C     0.07851   0.85387   0.43806   0.00000  Uiso   1.00
C483   C     0.06234   0.84978   0.49163   0.00000  Uiso   1.00
C484   C     0.09401   0.83508   0.01784   0.00000  Uiso   1.00
Cu485  Cu    0.11978   0.83333   0.25000   0.00000  Uiso   1.00
Cu486  Cu    0.21355   0.83334   0.25000   0.00000  Uiso   1.00
H487   H     0.09871   0.96351   0.30903   0.00000  Uiso   1.00
N488   N     0.04931   0.83332   0.24998   0.00000  Uiso   1.00
N489   N     0.28402   0.83335   0.24999   0.00000  Uiso   1.00
O490   O     0.12708   0.89345   0.25000   0.00000  Uiso   1.00
O491   O     0.20627   0.89346   0.25000   0.00000  Uiso   1.00
O492   O     0.10775   0.83332   0.32549   0.00000  Uiso   1.00
O493   O     0.18694   0.83333   0.32549   0.00000  Uiso   1.00
O494   O     0.12706   0.77321   0.24999   0.00000  Uiso   1.00
O495   O     0.20625   0.77322   0.24999   0.00000  Uiso   1.00
O496   O     0.14640   0.83334   0.17451   0.00000  Uiso   1.00
O497   O     0.22559   0.83335   0.17451   0.00000  Uiso   1.00
O498   O     0.27062   0.77717   0.09809   0.00000  Uiso   1.00
H499   H     0.29558   0.75758   0.07628   0.00000  Uiso   1.00
O500   O     0.23760   0.70829   0.17688   0.00000  Uiso   1.00
H501   H     0.25007   0.69002   0.14531   0.00000  Uiso   1.00
O502   O     0.09155   0.70903   0.32400   0.00000  Uiso   1.00
H503   H     0.10199   0.73699   0.33173   0.00000  Uiso   1.00
O504   O     0.27100   0.89911   0.29363   0.00000  Uiso   1.00
H505   H     0.28881   0.92186   0.30488   0.00000  Uiso   1.00
O506   O     0.03126   0.89714   0.30110   0.00000  Uiso   1.00
H507   H     0.05667   0.88635   0.31446   0.00000  Uiso   1.00
N508   N     0.06551   0.77093   0.19506   0.00000  Uiso   1.00
H509   H     0.06572   0.77153   0.15645   0.00000  Uiso   1.00
H510   H     0.05272   0.74224   0.20895   0.00000  Uiso   1.00
O511   O     0.30321   0.77005   0.19756   0.00000  Uiso   1.00
H512   H     0.27741   0.78077   0.18472   0.00000  Uiso   1.00
N513   N     0.28644   0.79055   0.40450   0.00000  Uiso   1.00
H514   H     0.30550   0.81593   0.38712   0.00000  Uiso   1.00
H515   H     0.28273   0.77036   0.37477   0.00000  Uiso   1.00
O516   O     0.28941   0.75484   0.49284   0.00000  Uiso   1.00
H517   H     0.27877   0.73742   0.46736   0.00000  Uiso   1.00
O518   O     0.14416   0.87159   0.08592   0.00000  Uiso   1.00
H519   H     0.15619   0.88831   0.11092   0.00000  Uiso   1.00
N520   N     0.04585   0.87318   0.41506   0.00000  Uiso   1.00
H521   H     0.03575   0.85160   0.39084   0.00000  Uiso   1.00
H522   H     0.06336   0.89800   0.39441   0.00000  Uiso   1.00
N523   N     0.07506   0.82257   0.07016   0.00000  Uiso   1.00
H524   H     0.05103   0.79847   0.07073   0.00000  Uiso   1.00
H525   H     0.05583   0.84739   0.09344   0.00000  Uiso   1.00
N526   N     0.01289   0.86073   0.01909   0.00000  Uiso   1.00
H527   H     0.01260   0.88425   0.04690   0.00000  Uiso   1.00
H528   H     0.32953   0.83497   0.03801   0.00000  Uiso   1.00
O529   O     0.23607   0.85762   0.37992   0.00000  Uiso   1.00
H530   H     0.21451   0.88227   0.38310   0.00000  Uiso   1.00
O531   O     0.24396   0.95319   0.18313   0.00000  Uiso   1.00
H532   H     0.27381   0.96967   0.17573   0.00000  Uiso   1.00
C533   C     0.50002   0.91241   0.24949   0.00000  Uiso   1.00
C534   C     0.47737   0.83009   0.49129   0.00000  Uiso   1.00
C535   C     0.49363   0.83308   0.43689   0.00000  Uiso   1.00
C536   C     0.51236   0.82125   0.01709   0.00000  Uiso   1.00
C537   C     0.55614   0.80041   0.48903   0.00000  Uiso   1.00
C538   C     0.57202   0.80404   0.43498   0.00000  Uiso   1.00
C539   C     0.54436   0.82887   0.41306   0.00000  Uiso   1.00
C540   C     0.50849   0.83792   0.06689   0.00000  Uiso   1.00
C541   C     0.57699   0.79414   0.06933   0.00000  Uiso   1.00
C542   C     0.45981   0.84145   0.40882   0.00000  Uiso   1.00
C543   C     0.53915   0.97687   0.21496   0.00000  Uiso   1.00
C544   C     0.47411   0.83635   0.35045   0.00000  Uiso   1.00
C545   C     0.53776   0.68704   0.21422   0.00000  Uiso   1.00
C546   C     0.50018   0.70947   0.25104   0.00000  Uiso   1.00
C547   C     0.46196   0.68888   0.28596   0.00000  Uiso   1.00
C548   C     0.46147   0.97941   0.28266   0.00000  Uiso   1.00
C549   C     0.50005   0.95697   0.24844   0.00000  Uiso   1.00
C550   C     0.63501   0.86586   0.27242   0.00000  Uiso   1.00
C551   C     0.35059   0.86506   0.27432   0.00000  Uiso   1.00
C552   C     0.36584   0.80245   0.22442   0.00000  Uiso   1.00
C553   C     0.64986   0.80211   0.22481   0.00000  Uiso   1.00
C554   C     0.49999   0.75422   0.25044   0.00000  Uiso   1.00
C555   C     0.52590   0.83120   0.15032   0.00000  Uiso   1.00
C556   C     0.58579   0.78296   0.01633   0.00000  Uiso   1.00
C557   C     0.53959   0.82303   0.09395   0.00000  Uiso   1.00
C558   C     0.41185   0.85387   0.43806   0.00000  Uiso   1.00
C559   C     0.39567   0.84978   0.49163   0.00000  Uiso   1.00
C560   C     0.42734   0.83508   0.01784   0.00000  Uiso   1.00
Cu561  Cu    0.45311   0.83333   0.25000   0.00000  Uiso   1.00
Cu562  Cu    0.54689   0.83334   0.25000   0.00000  Uiso   1.00
H563   H     0.43204   0.96351   0.30903   0.00000  Uiso   1.00
N564   N     0.38265   0.83332   0.24998   0.00000  Uiso   1.00
N565   N     0.61735   0.83335   0.24999   0.00000  Uiso   1.00
O566   O     0.46042   0.89345   0.25000   0.00000  Uiso   1.00
O567   O     0.53961   0.89346   0.25000   0.00000  Uiso   1.00
O568   O     0.44108   0.83332   0.32549   0.00000  Uiso   1.00
O569   O     0.52027   0.83333   0.32549   0.00000  Uiso   1.00
O570   O     0.46039   0.77321   0.24999   0.00000  Uiso   1.00
O571   O     0.53958   0.77322   0.24999   0.00000  Uiso   1.00
O572   O     0.47973   0.83334   0.17451   0.00000  Uiso   1.00
O573   O     0.55892   0.83335   0.17451   0.00000  Uiso   1.00
O574   O     0.60395   0.77717   0.09809   0.00000  Uiso   1.00
H575   H     0.62892   0.75758   0.07628   0.00000  Uiso   1.00
O576   O     0.57094   0.70829   0.17688   0.00000  Uiso   1.00
H577   H     0.58340   0.69002   0.14531   0.00000  Uiso   1.00
O578   O     0.42489   0.70903   0.32400   0.00000  Uiso   1.00
H579   H     0.43533   0.73699   0.33173   0.00000  Uiso   1.00
O580   O     0.60434   0.89911   0.29363   0.00000  Uiso   1.00
H581   H     0.62214   0.92186   0.30488   0.00000  Uiso   1.00
O582   O     0.36460   0.89714   0.30110   0.00000  Uiso   1.00
H583   H     0.39000   0.88635   0.31446   0.00000  Uiso   1.00
N584   N     0.39884   0.77093   0.19506   0.00000  Uiso   1.00
H585   H     0.39905   0.77153   0.15645   0.00000  Uiso   1.00
H586   H     0.38605   0.74224   0.20895   0.00000  Uiso   1.00
O587   O     0.63654   0.77005   0.19756   0.00000  Uiso   1.00
H588   H     0.61074   0.78077   0.18472   0.00000  Uiso   1.00
N589   N     0.61978   0.79055   0.40450   0.00000  Uiso   1.00
H590   H     0.63883   0.81593   0.38712   0.00000  Uiso   1.00
H591   H     0.61606   0.77036   0.37477   0.00000  Uiso   1.00
O592   O     0.62274   0.75484   0.49284   0.00000  Uiso   1.00
H593   H     0.61210   0.73742   0.46736   0.00000  Uiso   1.00
O594   O     0.47750   0.87159   0.08592   0.00000  Uiso   1.00
H595   H     0.48952   0.88831   0.11092   0.00000  Uiso   1.00
N596   N     0.37919   0.87318   0.41506   0.00000  Uiso   1.00
H597   H     0.36909   0.85160   0.39084   0.00000  Uiso   1.00
H598   H     0.39669   0.89800   0.39441   0.00000  Uiso   1.00
N599   N     0.40839   0.82257   0.07016   0.00000  Uiso   1.00
H600   H     0.38436   0.79847   0.07073   0.00000  Uiso   1.00
H601   H     0.38917   0.84739   0.09344   0.00000  Uiso   1.00
N602   N     0.34623   0.86073   0.01909   0.00000  Uiso   1.00
H603   H     0.34593   0.88425   0.04690   0.00000  Uiso   1.00
H604   H     0.66287   0.83497   0.03801   0.00000  Uiso   1.00
O605   O     0.56941   0.85762   0.37992   0.00000  Uiso   1.00
H606   H     0.54784   0.88227   0.38310   0.00000  Uiso   1.00
O607   O     0.57730   0.95319   0.18313   0.00000  Uiso   1.00
H608   H     0.60714   0.96967   0.17573   0.00000  Uiso   1.00
C609   C     0.83335   0.91241   0.24949   0.00000  Uiso   1.00
C610   C     0.81070   0.83009   0.49129   0.00000  Uiso   1.00
C611   C     0.82697   0.83308   0.43689   0.00000  Uiso   1.00
C612   C     0.84570   0.82125   0.01709   0.00000  Uiso   1.00
C613   C     0.88947   0.80041   0.48903   0.00000  Uiso   1.00
C614   C     0.90535   0.80404   0.43498   0.00000  Uiso   1.00
C615   C     0.87769   0.82887   0.41306   0.00000  Uiso   1.00
C616   C     0.84182   0.83792   0.06689   0.00000  Uiso   1.00
C617   C     0.91033   0.79414   0.06933   0.00000  Uiso   1.00
C618   C     0.79314   0.84145   0.40882   0.00000  Uiso   1.00
C619   C     0.87248   0.97687   0.21496   0.00000  Uiso   1.00
C620   C     0.80744   0.83635   0.35045   0.00000  Uiso   1.00
C621   C     0.87110   0.68704   0.21422   0.00000  Uiso   1.00
C622   C     0.83351   0.70947   0.25104   0.00000  Uiso   1.00
C623   C     0.79529   0.68888   0.28596   0.00000  Uiso   1.00
C624   C     0.79481   0.97941   0.28266   0.00000  Uiso   1.00
C625   C     0.83338   0.95697   0.24844   0.00000  Uiso   1.00
C626   C     0.96835   0.86586   0.27242   0.00000  Uiso   1.00
C627   C     0.68392   0.86506   0.27432   0.00000  Uiso   1.00
C628   C     0.69917   0.80245   0.22442   0.00000  Uiso   1.00
C629   C     0.98319   0.80211   0.22481   0.00000  Uiso   1.00
C630   C     0.83332   0.75422   0.25044   0.00000  Uiso   1.00
C631   C     0.85924   0.83120   0.15032   0.00000  Uiso   1.00
C632   C     0.91913   0.78296   0.01633   0.00000  Uiso   1.00
C633   C     0.87293   0.82303   0.09395   0.00000  Uiso   1.00
C634   C     0.74518   0.85387   0.43806   0.00000  Uiso   1.00
C635   C     0.72900   0.84978   0.49163   0.00000  Uiso   1.00
C636   C     0.76068   0.83508   0.01784   0.00000  Uiso   1.00
Cu637  Cu    0.78645   0.83333   0.25000   0.00000  Uiso   1.00
Cu638  Cu    0.88022   0.83334   0.25000   0.00000  Uiso   1.00
H639   H     0.76537   0.96351   0.30903   0.00000  Uiso   1.00
N640   N     0.71598   0.83332   0.24998   0.00000  Uiso   1.00
N641   N     0.95069   0.83335   0.24999   0.00000  Uiso   1.00
O642   O     0.79375   0.89345   0.25000   0.00000  Uiso   1.00
O643   O     0.87294   0.89346   0.25000   0.00000  Uiso   1.00
O644   O     0.77441   0.83332   0.32549   0.00000  Uiso   1.00
O645   O     0.85360   0.83333   0.32549   0.00000  Uiso   1.00
O646   O     0.79373   0.77321   0.24999   0.00000  Uiso   1.00
O647   O     0.87292   0.77322   0.24999   0.00000  Uiso   1.00
O648   O     0.81306   0.83334   0.17451   0.00000  Uiso   1.00
O649   O     0.89225   0.83335   0.17451   0.00000  Uiso   1.00
O650   O     0.93728   0.77717   0.09809   0.00000  Uiso   1.00
H651   H     0.96225   0.75758   0.07628   0.00000  Uiso   1.00
O652   O     0.90427   0.70829   0.17688   0.00000  Uiso   1.00
H653   H     0.91673   0.69002   0.14531   0.00000  Uiso   1.00
O654   O     0.75822   0.70903   0.32400   0.00000  Uiso   1.00
H655   H     0.76866   0.73699   0.33173   0.00000  Uiso   1.00
O656   O     0.93767   0.89911   0.29363   0.00000  Uiso   1.00
H657   H     0.95547   0.92186   0.30488   0.00000  Uiso   1.00
O658   O     0.69793   0.89714   0.30110   0.00000  Uiso   1.00
H659   H     0.72333   0.88635   0.31446   0.00000  Uiso   1.00
N660   N     0.73217   0.77093   0.19506   0.00000  Uiso   1.00
H661   H     0.73239   0.77153   0.15645   0.00000  Uiso   1.00
H662   H     0.71939   0.74224   0.20895   0.00000  Uiso   1.00
O663   O     0.96988   0.77005   0.19756   0.00000  Uiso   1.00
H664   H     0.94407   0.78077   0.18472   0.00000  Uiso   1.00
N665   N     0.95311   0.79055   0.40450   0.00000  Uiso   1.00
H666   H     0.97217   0.81593   0.38712   0.00000  Uiso   1.00
H667   H     0.94940   0.77036   0.37477   0.00000  Uiso   1.00
O668   O     0.95607   0.75484   0.49284   0.00000  Uiso   1.00
H669   H     0.94544   0.73742   0.46736   0.00000  Uiso   1.00
O670   O     0.81083   0.87159   0.08592   0.00000  Uiso   1.00
H671   H     0.82285   0.88831   0.11092   0.00000  Uiso   1.00
N672   N     0.71252   0.87318   0.41506   0.00000  Uiso   1.00
H673   H     0.70242   0.85160   0.39084   0.00000  Uiso   1.00
H674   H     0.73003   0.89800   0.39441   0.00000  Uiso   1.00
N675   N     0.74173   0.82257   0.07016   0.00000  Uiso   1.00
H676   H     0.71770   0.79847   0.07073   0.00000  Uiso   1.00
H677   H     0.72250   0.84739   0.09344   0.00000  Uiso   1.00
N678   N     0.67956   0.86073   0.01909   0.00000  Uiso   1.00
H679   H     0.67927   0.88425   0.04690   0.00000  Uiso   1.00
H680   H     0.99620   0.83497   0.03801   0.00000  Uiso   1.00
O681   O     0.90274   0.85762   0.37992   0.00000  Uiso   1.00
H682   H     0.88117   0.88227   0.38310   0.00000  Uiso   1.00
O683   O     0.91063   0.95319   0.18313   0.00000  Uiso   1.00
H684   H     0.94048   0.96967   0.17573   0.00000  Uiso   1.00
C685   C     0.16669   0.24574   0.74949   0.00000  Uiso   1.00
C686   C     0.14403   0.16342   0.99129   0.00000  Uiso   1.00
C687   C     0.16030   0.16642   0.93689   0.00000  Uiso   1.00
C688   C     0.17903   0.15459   0.51709   0.00000  Uiso   1.00
C689   C     0.22280   0.13375   0.98903   0.00000  Uiso   1.00
C690   C     0.23869   0.13737   0.93498   0.00000  Uiso   1.00
C691   C     0.21102   0.16220   0.91306   0.00000  Uiso   1.00
C692   C     0.17515   0.17125   0.56689   0.00000  Uiso   1.00
C693   C     0.24366   0.12748   0.56933   0.00000  Uiso   1.00
C694   C     0.12648   0.17478   0.90882   0.00000  Uiso   1.00
C695   C     0.20581   0.31021   0.71496   0.00000  Uiso   1.00
C696   C     0.14077   0.16969   0.85045   0.00000  Uiso   1.00
C697   C     0.20443   0.02037   0.71422   0.00000  Uiso   1.00
C698   C     0.16685   0.04281   0.75104   0.00000  Uiso   1.00
C699   C     0.12863   0.02221   0.78596   0.00000  Uiso   1.00
C700   C     0.12814   0.31275   0.78266   0.00000  Uiso   1.00
C701   C     0.16672   0.29030   0.74844   0.00000  Uiso   1.00
C702   C     0.30168   0.19920   0.77242   0.00000  Uiso   1.00
C703   C     0.01726   0.19839   0.77432   0.00000  Uiso   1.00
C704   C     0.03250   0.13579   0.72442   0.00000  Uiso   1.00
C705   C     0.31653   0.13544   0.72481   0.00000  Uiso   1.00
C706   C     0.16666   0.08755   0.75044   0.00000  Uiso   1.00
C707   C     0.19257   0.16454   0.65032   0.00000  Uiso   1.00
C708   C     0.25246   0.11629   0.51633   0.00000  Uiso   1.00
C709   C     0.20626   0.15636   0.59395   0.00000  Uiso   1.00
C710   C     0.07851   0.18720   0.93806   0.00000  Uiso   1.00
C711   C     0.06234   0.18311   0.99163   0.00000  Uiso   1.00
C712   C     0.09401   0.16842   0.51784   0.00000  Uiso   1.00
Cu713  Cu    0.11978   0.16666   0.75000   0.00000  Uiso   1.00
Cu714  Cu    0.21355   0.16667   0.75000   0.00000  Uiso   1.00
H715   H     0.09871   0.29684   0.80903   0.00000  Uiso   1.00
N716   N     0.04931   0.16666   0.74998   0.00000  Uiso   1.00
N717   N     0.28402   0.16669   0.74999   0.00000  Uiso   1.00
O718   O     0.12708   0.22678   0.75000   0.00000  Uiso   1.00
O719   O     0.20627   0.22679   0.75000   0.00000  Uiso   1.00
O720   O     0.10775   0.16665   0.82549   0.00000  Uiso   1.00
O721   O     0.18694   0.16666   0.82549   0.00000  Uiso   1.00
O722   O     0.12706   0.10654   0.74999   0.00000  Uiso   1.00
O723   O     0.20625   0.10655   0.74999   0.00000  Uiso   1.00
O724   O     0.14640   0.16667   0.67451   0.00000  Uiso   1.00
O725   O     0.22559   0.16668   0.67451   0.00000  Uiso   1.00
O726   O     0.27062   0.11051   0.59809   0.00000  Uiso   1.00
H727   H     0.29558   0.09092   0.57628   0.00000  Uiso   1.00
O728   O     0.23760   0.04162   0.67688   0.00000  Uiso   1.00
H729   H     0.25007   0.02335   0.64531   0.00000  Uiso   1.00
O730   O     0.09155   0.04236   0.82400   0.00000  Uiso   1.00
H731   H     0.10199   0.07032   0.83173   0.00000  Uiso   1.00
O732   O     0.27100   0.23245   0.79363   0.00000  Uiso   1.00
H733   H     0.28881   0.25520   0.80488   0.00000  Uiso   1.00
O734   O     0.03126   0.23048   0.80110   0.00000  Uiso   1.00
H735   H     0.05667   0.21968   0.81446   0.00000  Uiso   1.00
N736   N     0.06551   0.10427   0.69506   0.00000  Uiso   1.00
H737   H     0.06572   0.10487   0.65645   0.00000  Uiso   1.00
H738   H     0.05272   0.07557   0.70895   0.00000  Uiso   1.00
O739   O     0.30321   0.10338   0.69756   0.00000  Uiso   1.00
H740   H     0.27741   0.11411   0.68472   0.00000  Uiso   1.00
N741   N     0.28644   0.12389   0.90450   0.00000  Uiso   1.00
H742   H     0.30550   0.14926   0.88712   0.00000  Uiso   1.00
H743   H     0.28273   0.10370   0.87477   0.00000  Uiso   1.00
O744   O     0.28941   0.08817   0.99284   0.00000  Uiso   1.00
H745   H     0.27877   0.07076   0.96736   0.00000  Uiso   1.00
O746   O     0.14416   0.20492   0.58592   0.00000  Uiso   1.00
H747   H     0.15619   0.22164   0.61092   0.00000  Uiso   1.00
N748   N     0.04585   0.20651   0.91506   0.00000  Uiso   1.00
H749   H     0.03575   0.18493   0.89084   0.00000  Uiso   1.00
H750   H     0.06336   0.23134   0.89441   0.00000  Uiso   1.00
N751   N     0.07506   0.15590   0.57016   0.00000  Uiso   1.00
H752   H     0.05103   0.13180   0.57073   0.00000  Uiso   1.00
H753   H     0.05583   0.18072   0.59344   0.00000  Uiso   1.00
N754   N     0.01289   0.19406   0.51909   0.00000  Uiso   1.00
H755   H     0.01260   0.21758   0.54690   0.00000  Uiso   1.00
H756   H     0.32953   0.16830   0.53801   0.00000  Uiso   1.00
O757   O     0.23607   0.19096   0.87992   0.00000  Uiso   1.00
H758   H     0.21451   0.21560   0.88310   0.00000  Uiso   1.00
O759   O     0.24396   0.28652   0.68313   0.00000  Uiso   1.00
H760   H     0.27381   0.30300   0.67573   0.00000  Uiso   1.00
C761   C     0.50002   0.24574   0.74949   0.00000  Uiso   1.00
C762   C     0.47737   0.16342   0.99129   0.00000  Uiso   1.00
C763   C     0.49363   0.16642   0.93689   0.00000  Uiso   1.00
C764   C     0.51236   0.15459   0.51709   0.00000  Uiso   1.00
C765   C     0.55614   0.13375   0.98903   0.00000  Uiso   1.00
C766   C     0.57202   0.13737   0.93498   0.00000  Uiso   1.00
C767   C     0.54436   0.16220   0.91306   0.00000  Uiso   1.00
C768   C     0.50849   0.17125   0.56689   0.00000  Uiso   1.00
C769   C     0.57699   0.12748   0.56933   0.00000  Uiso   1.00
C770   C     0.45981   0.17478   0.90882   0.00000  Uiso   1.00
C771   C     0.53915   0.31021   0.71496   0.00000  Uiso   1.00
C772   C     0.47411   0.16969   0.85045   0.00000  Uiso   1.00
C773   C     0.53776   0.02037   0.71422   0.00000  Uiso   1.00
C774   C     0.50018   0.04281   0.75104   0.00000  Uiso   1.00
C775   C     0.46196   0.02221   0.78596   0.00000  Uiso   1.00
C776   C     0.46147   0.31275   0.78266   0.00000  Uiso   1.00
C777   C     0.50005   0.29030   0.74844   0.00000  Uiso   1.00
C778   C     0.63501   0.19920   0.77242   0.00000  Uiso   1.00
C779   C     0.35059   0.19839   0.77432   0.00000  Uiso   1.00
C780   C     0.36584   0.13579   0.72442   0.00000  Uiso   1.00
C781   C     0.64986   0.13544   0.72481   0.00000  Uiso   1.00
C782   C     0.49999   0.08755   0.75044   0.00000  Uiso   1.00
C783   C     0.52590   0.16454   0.65032   0.00000  Uiso   1.00
C784   C     0.58579   0.11629   0.51633   0.00000  Uiso   1.00
C785   C     0.53959   0.15636   0.59395   0.00000  Uiso   1.00
C786   C     0.41185   0.18720   0.93806   0.00000  Uiso   1.00
C787   C     0.39567   0.18311   0.99163   0.00000  Uiso   1.00
C788   C     0.42734   0.16842   0.51784   0.00000  Uiso   1.00
Cu789  Cu    0.45311   0.16666   0.75000   0.00000  Uiso   1.00
Cu790  Cu    0.54689   0.16667   0.75000   0.00000  Uiso   1.00
H791   H     0.43204   0.29684   0.80903   0.00000  Uiso   1.00
N792   N     0.38265   0.16666   0.74998   0.00000  Uiso   1.00
N793   N     0.61735   0.16669   0.74999   0.00000  Uiso   1.00
O794   O     0.46042   0.22678   0.75000   0.00000  Uiso   1.00
O795   O     0.53961   0.22679   0.75000   0.00000  Uiso   1.00
O796   O     0.44108   0.16665   0.82549   0.00000  Uiso   1.00
O797   O     0.52027   0.16666   0.82549   0.00000  Uiso   1.00
O798   O     0.46039   0.10654   0.74999   0.00000  Uiso   1.00
O799   O     0.53958   0.10655   0.74999   0.00000  Uiso   1.00
O800   O     0.47973   0.16667   0.67451   0.00000  Uiso   1.00
O801   O     0.55892   0.16668   0.67451   0.00000  Uiso   1.00
O802   O     0.60395   0.11051   0.59809   0.00000  Uiso   1.00
H803   H     0.62892   0.09092   0.57628   0.00000  Uiso   1.00
O804   O     0.57094   0.04162   0.67688   0.00000  Uiso   1.00
H805   H     0.58340   0.02335   0.64531   0.00000  Uiso   1.00
O806   O     0.42489   0.04236   0.82400   0.00000  Uiso   1.00
H807   H     0.43533   0.07032   0.83173   0.00000  Uiso   1.00
O808   O     0.60434   0.23245   0.79363   0.00000  Uiso   1.00
H809   H     0.62214   0.25520   0.80488   0.00000  Uiso   1.00
O810   O     0.36460   0.23048   0.80110   0.00000  Uiso   1.00
H811   H     0.39000   0.21968   0.81446   0.00000  Uiso   1.00
N812   N     0.39884   0.10427   0.69506   0.00000  Uiso   1.00
H813   H     0.39905   0.10487   0.65645   0.00000  Uiso   1.00
H814   H     0.38605   0.07557   0.70895   0.00000  Uiso   1.00
O815   O     0.63654   0.10338   0.69756   0.00000  Uiso   1.00
H816   H     0.61074   0.11411   0.68472   0.00000  Uiso   1.00
N817   N     0.61978   0.12389   0.90450   0.00000  Uiso   1.00
H818   H     0.63883   0.14926   0.88712   0.00000  Uiso   1.00
H819   H     0.61606   0.10370   0.87477   0.00000  Uiso   1.00
O820   O     0.62274   0.08817   0.99284   0.00000  Uiso   1.00
H821   H     0.61210   0.07076   0.96736   0.00000  Uiso   1.00
O822   O     0.47750   0.20492   0.58592   0.00000  Uiso   1.00
H823   H     0.48952   0.22164   0.61092   0.00000  Uiso   1.00
N824   N     0.37919   0.20651   0.91506   0.00000  Uiso   1.00
H825   H     0.36909   0.18493   0.89084   0.00000  Uiso   1.00
H826   H     0.39669   0.23134   0.89441   0.00000  Uiso   1.00
N827   N     0.40839   0.15590   0.57016   0.00000  Uiso   1.00
H828   H     0.38436   0.13180   0.57073   0.00000  Uiso   1.00
H829   H     0.38917   0.18072   0.59344   0.00000  Uiso   1.00
N830   N     0.34623   0.19406   0.51909   0.00000  Uiso   1.00
H831   H     0.34593   0.21758   0.54690   0.00000  Uiso   1.00
H832   H     0.66287   0.16830   0.53801   0.00000  Uiso   1.00
O833   O     0.56941   0.19096   0.87992   0.00000  Uiso   1.00
H834   H     0.54784   0.21560   0.88310   0.00000  Uiso   1.00
O835   O     0.57730   0.28652   0.68313   0.00000  Uiso   1.00
H836   H     0.60714   0.30300   0.67573   0.00000  Uiso   1.00
C837   C     0.83335   0.24574   0.74949   0.00000  Uiso   1.00
C838   C     0.81070   0.16342   0.99129   0.00000  Uiso   1.00
C839   C     0.82697   0.16642   0.93689   0.00000  Uiso   1.00
C840   C     0.84570   0.15459   0.51709   0.00000  Uiso   1.00
C841   C     0.88947   0.13375   0.98903   0.00000  Uiso   1.00
C842   C     0.90535   0.13737   0.93498   0.00000  Uiso   1.00
C843   C     0.87769   0.16220   0.91306   0.00000  Uiso   1.00
C844   C     0.84182   0.17125   0.56689   0.00000  Uiso   1.00
C845   C     0.91033   0.12748   0.56933   0.00000  Uiso   1.00
C846   C     0.79314   0.17478   0.90882   0.00000  Uiso   1.00
C847   C     0.87248   0.31021   0.71496   0.00000  Uiso   1.00
C848   C     0.80744   0.16969   0.85045   0.00000  Uiso   1.00
C849   C     0.87110   0.02037   0.71422   0.00000  Uiso   1.00
C850   C     0.83351   0.04281   0.75104   0.00000  Uiso   1.00
C851   C     0.79529   0.02221   0.78596   0.00000  Uiso   1.00
C852   C     0.79481   0.31275   0.78266   0.00000  Uiso   1.00
C853   C     0.83338   0.29030   0.74844   0.00000  Uiso   1.00
C854   C     0.96835   0.19920   0.77242   0.00000  Uiso   1.00
C855   C     0.68392   0.19839   0.77432   0.00000  Uiso   1.00
C856   C     0.69917   0.13579   0.72442   0.00000  Uiso   1.00
C857   C     0.98319   0.13544   0.72481   0.00000  Uiso   1.00
C858   C     0.83332   0.08755   0.75044   0.00000  Uiso   1.00
C859   C     0.85924   0.16454   0.65032   0.00000  Uiso   1.00
C860   C     0.91913   0.11629   0.51633   0.00000  Uiso   1.00
C861   C     0.87293   0.15636   0.59395   0.00000  Uiso   1.00
C862   C     0.74518   0.18720   0.93806   0.00000  Uiso   1.00
C863   C     0.72900   0.18311   0.99163   0.00000  Uiso   1.00
C864   C     0.76068   0.16842   0.51784   0.00000  Uiso   1.00
Cu865  Cu    0.78645   0.16666   0.75000   0.00000  Uiso   1.00
Cu866  Cu    0.88022   0.16667   0.75000   0.00000  Uiso   1.00
H867   H     0.76537   0.29684   0.80903   0.00000  Uiso   1.00
N868   N     0.71598   0.16666   0.74998   0.00000  Uiso   1.00
N869   N     0.95069   0.16669   0.74999   0.00000  Uiso   1.00
O870   O     0.79375   0.22678   0.75000   0.00000  Uiso   1.00
O871   O     0.87294   0.22679   0.75000   0.00000  Uiso   1.00
O872   O     0.77441   0.16665   0.82549   0.00000  Uiso   1.00
O873   O     0.85360   0.16666   0.82549   0.00000  Uiso   1.00
O874   O     0.79373   0.10654   0.74999   0.00000  Uiso   1.00
O875   O     0.87292   0.10655   0.74999   0.00000  Uiso   1.00
O876   O     0.81306   0.16667   0.67451   0.00000  Uiso   1.00
O877   O     0.89225   0.16668   0.67451   0.00000  Uiso   1.00
O878   O     0.93728   0.11051   0.59809   0.00000  Uiso   1.00
H879   H     0.96225   0.09092   0.57628   0.00000  Uiso   1.00
O880   O     0.90427   0.04162   0.67688   0.00000  Uiso   1.00
H881   H     0.91673   0.02335   0.64531   0.00000  Uiso   1.00
O882   O     0.75822   0.04236   0.82400   0.00000  Uiso   1.00
H883   H     0.76866   0.07032   0.83173   0.00000  Uiso   1.00
O884   O     0.93767   0.23245   0.79363   0.00000  Uiso   1.00
H885   H     0.95547   0.25520   0.80488   0.00000  Uiso   1.00
O886   O     0.69793   0.23048   0.80110   0.00000  Uiso   1.00
H887   H     0.72333   0.21968   0.81446   0.00000  Uiso   1.00
N888   N     0.73217   0.10427   0.69506   0.00000  Uiso   1.00
H889   H     0.73239   0.10487   0.65645   0.00000  Uiso   1.00
H890   H     0.71939   0.07557   0.70895   0.00000  Uiso   1.00
O891   O     0.96988   0.10338   0.69756   0.00000  Uiso   1.00
H892   H     0.94407   0.11411   0.68472   0.00000  Uiso   1.00
N893   N     0.95311   0.12389   0.90450   0.00000  Uiso   1.00
H894   H     0.97217   0.14926   0.88712   0.00000  Uiso   1.00
H895   H     0.94940   0.10370   0.87477   0.00000  Uiso   1.00
O896   O     0.95607   0.08817   0.99284   0.00000  Uiso   1.00
H897   H     0.94544   0.07076   0.96736   0.00000  Uiso   1.00
O898   O     0.81083   0.20492   0.58592   0.00000  Uiso   1.00
H899   H     0.82285   0.22164   0.61092   0.00000  Uiso   1.00
N900   N     0.71252   0.20651   0.91506   0.00000  Uiso   1.00
H901   H     0.70242   0.18493   0.89084   0.00000  Uiso   1.00
H902   H     0.73003   0.23134   0.89441   0.00000  Uiso   1.00
N903   N     0.74173   0.15590   0.57016   0.00000  Uiso   1.00
H904   H     0.71770   0.13180   0.57073   0.00000  Uiso   1.00
H905   H     0.72250   0.18072   0.59344   0.00000  Uiso   1.00
N906   N     0.67956   0.19406   0.51909   0.00000  Uiso   1.00
H907   H     0.67927   0.21758   0.54690   0.00000  Uiso   1.00
H908   H     0.99620   0.16830   0.53801   0.00000  Uiso   1.00
O909   O     0.90274   0.19096   0.87992   0.00000  Uiso   1.00
H910   H     0.88117   0.21560   0.88310   0.00000  Uiso   1.00
O911   O     0.91063   0.28652   0.68313   0.00000  Uiso   1.00
H912   H     0.94048   0.30300   0.67573   0.00000  Uiso   1.00
C913   C     0.16669   0.57907   0.74949   0.00000  Uiso   1.00
C914   C     0.14403   0.49675   0.99129   0.00000  Uiso   1.00
C915   C     0.16030   0.49975   0.93689   0.00000  Uiso   1.00
C916   C     0.17903   0.48792   0.51709   0.00000  Uiso   1.00
C917   C     0.22280   0.46708   0.98903   0.00000  Uiso   1.00
C918   C     0.23869   0.47070   0.93498   0.00000  Uiso   1.00
C919   C     0.21102   0.49554   0.91306   0.00000  Uiso   1.00
C920   C     0.17515   0.50459   0.56689   0.00000  Uiso   1.00
C921   C     0.24366   0.46081   0.56933   0.00000  Uiso   1.00
C922   C     0.12648   0.50812   0.90882   0.00000  Uiso   1.00
C923   C     0.20581   0.64354   0.71496   0.00000  Uiso   1.00
C924   C     0.14077   0.50302   0.85045   0.00000  Uiso   1.00
C925   C     0.20443   0.35370   0.71422   0.00000  Uiso   1.00
C926   C     0.16685   0.37614   0.75104   0.00000  Uiso   1.00
C927   C     0.12863   0.35554   0.78596   0.00000  Uiso   1.00
C928   C     0.12814   0.64608   0.78266   0.00000  Uiso   1.00
C929   C     0.16672   0.62363   0.74844   0.00000  Uiso   1.00
C930   C     0.30168   0.53253   0.77242   0.00000  Uiso   1.00
C931   C     0.01726   0.53173   0.77432   0.00000  Uiso   1.00
C932   C     0.03250   0.46912   0.72442   0.00000  Uiso   1.00
C933   C     0.31653   0.46878   0.72481   0.00000  Uiso   1.00
C934   C     0.16666   0.42089   0.75044   0.00000  Uiso   1.00
C935   C     0.19257   0.49787   0.65032   0.00000  Uiso   1.00
C936   C     0.25246   0.44963   0.51633   0.00000  Uiso   1.00
C937   C     0.20626   0.48969   0.59395   0.00000  Uiso   1.00
C938   C     0.07851   0.52053   0.93806   0.00000  Uiso   1.00
C939   C     0.06234   0.51644   0.99163   0.00000  Uiso   1.00
C940   C     0.09401   0.50175   0.51784   0.00000  Uiso   1.00
Cu941  Cu    0.11978   0.49999   0.75000   0.00000  Uiso   1.00
Cu942  Cu    0.21355   0.50001   0.75000   0.00000  Uiso   1.00
H943   H     0.09871   0.63018   0.80903   0.00000  Uiso   1.00
N944   N     0.04931   0.49999   0.74998   0.00000  Uiso   1.00
N945   N     0.28402   0.50002   0.74999   0.00000  Uiso   1.00
O946   O     0.12708   0.56011   0.75000   0.00000  Uiso   1.00
O947   O     0.20627   0.56012   0.75000   0.00000  Uiso   1.00
O948   O     0.10775   0.49998   0.82549   0.00000  Uiso   1.00
O949   O     0.18694   0.49999   0.82549   0.00000  Uiso   1.00
O950   O     0.12706   0.43988   0.74999   0.00000  Uiso   1.00
O951   O     0.20625   0.43989   0.74999   0.00000  Uiso   1.00
O952   O     0.14640   0.50001   0.67451   0.00000  Uiso   1.00
O953   O     0.22559   0.50002   0.67451   0.00000  Uiso   1.00
O954   O     0.27062   0.44384   0.59809   0.00000  Uiso   1.00
H955   H     0.29558   0.42425   0.57628   0.00000  Uiso   1.00
O956   O     0.23760   0.37495   0.67688   0.00000  Uiso   1.00
H957   H     0.25007   0.35669   0.64531   0.00000  Uiso   1.00
O958   O     0.09155   0.37569   0.82400   0.00000  Uiso   1.00
H959   H     0.10199   0.40366   0.83173   0.00000  Uiso   1.00
O960   O     0.27100   0.56578   0.79363   0.00000  Uiso   1.00
H961   H     0.28881   0.58853   0.80488   0.00000  Uiso   1.00
O962   O     0.03126   0.56381   0.80110   0.00000  Uiso   1.00
H963   H     0.05667   0.55301   0.81446   0.00000  Uiso   1.00
N964   N     0.06551   0.43760   0.69506   0.00000  Uiso   1.00
H965   H     0.06572   0.43820   0.65645   0.00000  Uiso   1.00
H966   H     0.05272   0.40891   0.70895   0.00000  Uiso   1.00
O967   O     0.30321   0.43672   0.69756   0.00000  Uiso   1.00
H968   H     0.27741   0.44744   0.68472   0.00000  Uiso   1.00
N969   N     0.28644   0.45722   0.90450   0.00000  Uiso   1.00
H970   H     0.30550   0.48259   0.88712   0.00000  Uiso   1.00
H971   H     0.28273   0.43703   0.87477   0.00000  Uiso   1.00
O972   O     0.28941   0.42150   0.99284   0.00000  Uiso   1.00
H973   H     0.27877   0.40409   0.96736   0.00000  Uiso   1.00
O974   O     0.14416   0.53826   0.58592   0.00000  Uiso   1.00
H975   H     0.15619   0.55498   0.61092   0.00000  Uiso   1.00
N976   N     0.04585   0.53984   0.91506   0.00000  Uiso   1.00
H977   H     0.03575   0.51826   0.89084   0.00000  Uiso   1.00
H978   H     0.06336   0.56467   0.89441   0.00000  Uiso   1.00
N979   N     0.07506   0.48923   0.57016   0.00000  Uiso   1.00
H980   H     0.05103   0.46514   0.57073   0.00000  Uiso   1.00
H981   H     0.05583   0.51406   0.59344   0.00000  Uiso   1.00
N982   N     0.01289   0.52740   0.51909   0.00000  Uiso   1.00
H983   H     0.01260   0.55092   0.54690   0.00000  Uiso   1.00
H984   H     0.32953   0.50164   0.53801   0.00000  Uiso   1.00
O985   O     0.23607   0.52429   0.87992   0.00000  Uiso   1.00
H986   H     0.21451   0.54893   0.88310   0.00000  Uiso   1.00
O987   O     0.24396   0.61986   0.68313   0.00000  Uiso   1.00
H988   H     0.27381   0.63634   0.67573   0.00000  Uiso   1.00
C989   C     0.50002   0.57907   0.74949   0.00000  Uiso   1.00
C990   C     0.47737   0.49675   0.99129   0.00000  Uiso   1.00
C991   C     0.49363   0.49975   0.93689   0.00000  Uiso   1.00
C992   C     0.51236   0.48792   0.51709   0.00000  Uiso   1.00
C993   C     0.55614   0.46708   0.98903   0.00000  Uiso   1.00
C994   C     0.57202   0.47070   0.93498   0.00000  Uiso   1.00
C995   C     0.54436   0.49554   0.91306   0.00000  Uiso   1.00
C996   C     0.50849   0.50459   0.56689   0.00000  Uiso   1.00
C997   C     0.57699   0.46081   0.56933   0.00000  Uiso   1.00
C998   C     0.45981   0.50812   0.90882   0.00000  Uiso   1.00
C999   C     0.53915   0.64354   0.71496   0.00000  Uiso   1.00
C1000  C     0.47411   0.50302   0.85045   0.00000  Uiso   1.00
C1001  C     0.53776   0.35370   0.71422   0.00000  Uiso   1.00
C1002  C     0.50018   0.37614   0.75104   0.00000  Uiso   1.00
C1003  C     0.46196   0.35554   0.78596   0.00000  Uiso   1.00
C1004  C     0.46147   0.64608   0.78266   0.00000  Uiso   1.00
C1005  C     0.50005   0.62363   0.74844   0.00000  Uiso   1.00
C1006  C     0.63501   0.53253   0.77242   0.00000  Uiso   1.00
C1007  C     0.35059   0.53173   0.77432   0.00000  Uiso   1.00
C1008  C     0.36584   0.46912   0.72442   0.00000  Uiso   1.00
C1009  C     0.64986   0.46878   0.72481   0.00000  Uiso   1.00
C1010  C     0.49999   0.42089   0.75044   0.00000  Uiso   1.00
C1011  C     0.52590   0.49787   0.65032   0.00000  Uiso   1.00
C1012  C     0.58579   0.44963   0.51633   0.00000  Uiso   1.00
C1013  C     0.53959   0.48969   0.59395   0.00000  Uiso   1.00
C1014  C     0.41185   0.52053   0.93806   0.00000  Uiso   1.00
C1015  C     0.39567   0.51644   0.99163   0.00000  Uiso   1.00
C1016  C     0.42734   0.50175   0.51784   0.00000  Uiso   1.00
Cu1017 Cu    0.45311   0.49999   0.75000   0.00000  Uiso   1.00
Cu1018 Cu    0.54689   0.50001   0.75000   0.00000  Uiso   1.00
H1019  H     0.43204   0.63018   0.80903   0.00000  Uiso   1.00
N1020  N     0.38265   0.49999   0.74998   0.00000  Uiso   1.00
N1021  N     0.61735   0.50002   0.74999   0.00000  Uiso   1.00
O1022  O     0.46042   0.56011   0.75000   0.00000  Uiso   1.00
O1023  O     0.53961   0.56012   0.75000   0.00000  Uiso   1.00
O1024  O     0.44108   0.49998   0.82549   0.00000  Uiso   1.00
O1025  O     0.52027   0.49999   0.82549   0.00000  Uiso   1.00
O1026  O     0.46039   0.43988   0.74999   0.00000  Uiso   1.00
O1027  O     0.53958   0.43989   0.74999   0.00000  Uiso   1.00
O1028  O     0.47973   0.50001   0.67451   0.00000  Uiso   1.00
O1029  O     0.55892   0.50002   0.67451   0.00000  Uiso   1.00
O1030  O     0.60395   0.44384   0.59809   0.00000  Uiso   1.00
H1031  H     0.62892   0.42425   0.57628   0.00000  Uiso   1.00
O1032  O     0.57094   0.37495   0.67688   0.00000  Uiso   1.00
H1033  H     0.58340   0.35669   0.64531   0.00000  Uiso   1.00
O1034  O     0.42489   0.37569   0.82400   0.00000  Uiso   1.00
H1035  H     0.43533   0.40366   0.83173   0.00000  Uiso   1.00
O1036  O     0.60434   0.56578   0.79363   0.00000  Uiso   1.00
H1037  H     0.62214   0.58853   0.80488   0.00000  Uiso   1.00
O1038  O     0.36460   0.56381   0.80110   0.00000  Uiso   1.00
H1039  H     0.39000   0.55301   0.81446   0.00000  Uiso   1.00
N1040  N     0.39884   0.43760   0.69506   0.00000  Uiso   1.00
H1041  H     0.39905   0.43820   0.65645   0.00000  Uiso   1.00
H1042  H     0.38605   0.40891   0.70895   0.00000  Uiso   1.00
O1043  O     0.63654   0.43672   0.69756   0.00000  Uiso   1.00
H1044  H     0.61074   0.44744   0.68472   0.00000  Uiso   1.00
N1045  N     0.61978   0.45722   0.90450   0.00000  Uiso   1.00
H1046  H     0.63883   0.48259   0.88712   0.00000  Uiso   1.00
H1047  H     0.61606   0.43703   0.87477   0.00000  Uiso   1.00
O1048  O     0.62274   0.42150   0.99284   0.00000  Uiso   1.00
H1049  H     0.61210   0.40409   0.96736   0.00000  Uiso   1.00
O1050  O     0.47750   0.53826   0.58592   0.00000  Uiso   1.00
H1051  H     0.48952   0.55498   0.61092   0.00000  Uiso   1.00
N1052  N     0.37919   0.53984   0.91506   0.00000  Uiso   1.00
H1053  H     0.36909   0.51826   0.89084   0.00000  Uiso   1.00
H1054  H     0.39669   0.56467   0.89441   0.00000  Uiso   1.00
N1055  N     0.40839   0.48923   0.57016   0.00000  Uiso   1.00
H1056  H     0.38436   0.46514   0.57073   0.00000  Uiso   1.00
H1057  H     0.38917   0.51406   0.59344   0.00000  Uiso   1.00
N1058  N     0.34623   0.52740   0.51909   0.00000  Uiso   1.00
H1059  H     0.34593   0.55092   0.54690   0.00000  Uiso   1.00
H1060  H     0.66287   0.50164   0.53801   0.00000  Uiso   1.00
O1061  O     0.56941   0.52429   0.87992   0.00000  Uiso   1.00
H1062  H     0.54784   0.54893   0.88310   0.00000  Uiso   1.00
O1063  O     0.57730   0.61986   0.68313   0.00000  Uiso   1.00
H1064  H     0.60714   0.63634   0.67573   0.00000  Uiso   1.00
C1065  C     0.83335   0.57907   0.74949   0.00000  Uiso   1.00
C1066  C     0.81070   0.49675   0.99129   0.00000  Uiso   1.00
C1067  C     0.82697   0.49975   0.93689   0.00000  Uiso   1.00
C1068  C     0.84570   0.48792   0.51709   0.00000  Uiso   1.00
C1069  C     0.88947   0.46708   0.98903   0.00000  Uiso   1.00
C1070  C     0.90535   0.47070   0.93498   0.00000  Uiso   1.00
C1071  C     0.87769   0.49554   0.91306   0.00000  Uiso   1.00
C1072  C     0.84182   0.50459   0.56689   0.00000  Uiso   1.00
C1073  C     0.91033   0.46081   0.56933   0.00000  Uiso   1.00
C1074  C     0.79314   0.50812   0.90882   0.00000  Uiso   1.00
C1075  C     0.87248   0.64354   0.71496   0.00000  Uiso   1.00
C1076  C     0.80744   0.50302   0.85045   0.00000  Uiso   1.00
C1077  C     0.87110   0.35370   0.71422   0.00000  Uiso   1.00
C1078  C     0.83351   0.37614   0.75104   0.00000  Uiso   1.00
C1079  C     0.79529   0.35554   0.78596   0.00000  Uiso   1.00
C1080  C     0.79481   0.64608   0.78266   0.00000  Uiso   1.00
C1081  C     0.83338   0.62363   0.74844   0.00000  Uiso   1.00
C1082  C     0.96835   0.53253   0.77242   0.00000  Uiso   1.00
C1083  C     0.68392   0.53173   0.77432   0.00000  Uiso   1.00
C1084  C     0.69917   0.46912   0.72442   0.00000  Uiso   1.00
C1085  C     0.98319   0.46878   0.72481   0.00000  Uiso   1.00
C1086  C     0.83332   0.42089   0.75044   0.00000  Uiso   1.00
C1087  C     0.85924   0.49787   0.65032   0.00000  Uiso   1.00
C1088  C     0.91913   0.44963   0.51633   0.00000  Uiso   1.00
C1089  C     0.87293   0.48969   0.59395   0.00000  Uiso   1.00
C1090  C     0.74518   0.52053   0.93806   0.00000  Uiso   1.00
C1091  C     0.72900   0.51644   0.99163   0.00000  Uiso   1.00
C1092  C     0.76068   0.50175   0.51784   0.00000  Uiso   1.00
Cu1093 Cu    0.78645   0.49999   0.75000   0.00000  Uiso   1.00
Cu1094 Cu    0.88022   0.50001   0.75000   0.00000  Uiso   1.00
H1095  H     0.76537   0.63018   0.80903   0.00000  Uiso   1.00
N1096  N     0.71598   0.49999   0.74998   0.00000  Uiso   1.00
N1097  N     0.95069   0.50002   0.74999   0.00000  Uiso   1.00
O1098  O     0.79375   0.56011   0.75000   0.00000  Uiso   1.00
O1099  O     0.87294   0.56012   0.75000   0.00000  Uiso   1.00
O1100  O     0.77441   0.49998   0.82549   0.00000  Uiso   1.00
O1101  O     0.85360   0.49999   0.82549   0.00000  Uiso   1.00
O1102  O     0.79373   0.43988   0.74999   0.00000  Uiso   1.00
O1103  O     0.87292   0.43989   0.74999   0.00000  Uiso   1.00
O1104  O     0.81306   0.50001   0.67451   0.00000  Uiso   1.00
O1105  O     0.89225   0.50002   0.67451   0.00000  Uiso   1.00
O1106  O     0.93728   0.44384   0.59809   0.00000  Uiso   1.00
H1107  H     0.96225   0.42425   0.57628   0.00000  Uiso   1.00
O1108  O     0.90427   0.37495   0.67688   0.00000  Uiso   1.00
H1109  H     0.91673   0.35669   0.64531   0.00000  Uiso   1.00
O1110  O     0.75822   0.37569   0.82400   0.00000  Uiso   1.00
H1111  H     0.76866   0.40366   0.83173   0.00000  Uiso   1.00
O1112  O     0.93767   0.56578   0.79363   0.00000  Uiso   1.00
H1113  H     0.95547   0.58853   0.80488   0.00000  Uiso   1.00
O1114  O     0.69793   0.56381   0.80110   0.00000  Uiso   1.00
H1115  H     0.72333   0.55301   0.81446   0.00000  Uiso   1.00
N1116  N     0.73217   0.43760   0.69506   0.00000  Uiso   1.00
H1117  H     0.73239   0.43820   0.65645   0.00000  Uiso   1.00
H1118  H     0.71939   0.40891   0.70895   0.00000  Uiso   1.00
O1119  O     0.96988   0.43672   0.69756   0.00000  Uiso   1.00
H1120  H     0.94407   0.44744   0.68472   0.00000  Uiso   1.00
N1121  N     0.95311   0.45722   0.90450   0.00000  Uiso   1.00
H1122  H     0.97217   0.48259   0.88712   0.00000  Uiso   1.00
H1123  H     0.94940   0.43703   0.87477   0.00000  Uiso   1.00
O1124  O     0.95607   0.42150   0.99284   0.00000  Uiso   1.00
H1125  H     0.94544   0.40409   0.96736   0.00000  Uiso   1.00
O1126  O     0.81083   0.53826   0.58592   0.00000  Uiso   1.00
H1127  H     0.82285   0.55498   0.61092   0.00000  Uiso   1.00
N1128  N     0.71252   0.53984   0.91506   0.00000  Uiso   1.00
H1129  H     0.70242   0.51826   0.89084   0.00000  Uiso   1.00
H1130  H     0.73003   0.56467   0.89441   0.00000  Uiso   1.00
N1131  N     0.74173   0.48923   0.57016   0.00000  Uiso   1.00
H1132  H     0.71770   0.46514   0.57073   0.00000  Uiso   1.00
H1133  H     0.72250   0.51406   0.59344   0.00000  Uiso   1.00
N1134  N     0.67956   0.52740   0.51909   0.00000  Uiso   1.00
H1135  H     0.67927   0.55092   0.54690   0.00000  Uiso   1.00
H1136  H     0.99620   0.50164   0.53801   0.00000  Uiso   1.00
O1137  O     0.90274   0.52429   0.87992   0.00000  Uiso   1.00
H1138  H     0.88117   0.54893   0.88310   0.00000  Uiso   1.00
O1139  O     0.91063   0.61986   0.68313   0.00000  Uiso   1.00
H1140  H     0.94048   0.63634   0.67573   0.00000  Uiso   1.00
C1141  C     0.16669   0.91241   0.74949   0.00000  Uiso   1.00
C1142  C     0.14403   0.83009   0.99129   0.00000  Uiso   1.00
C1143  C     0.16030   0.83308   0.93689   0.00000  Uiso   1.00
C1144  C     0.17903   0.82125   0.51709   0.00000  Uiso   1.00
C1145  C     0.22280   0.80041   0.98903   0.00000  Uiso   1.00
C1146  C     0.23869   0.80404   0.93498   0.00000  Uiso   1.00
C1147  C     0.21102   0.82887   0.91306   0.00000  Uiso   1.00
C1148  C     0.17515   0.83792   0.56689   0.00000  Uiso   1.00
C1149  C     0.24366   0.79414   0.56933   0.00000  Uiso   1.00
C1150  C     0.12648   0.84145   0.90882   0.00000  Uiso   1.00
C1151  C     0.20581   0.97687   0.71496   0.00000  Uiso   1.00
C1152  C     0.14077   0.83635   0.85045   0.00000  Uiso   1.00
C1153  C     0.20443   0.68704   0.71422   0.00000  Uiso   1.00
C1154  C     0.16685   0.70947   0.75104   0.00000  Uiso   1.00
C1155  C     0.12863   0.68888   0.78596   0.00000  Uiso   1.00
C1156  C     0.12814   0.97941   0.78266   0.00000  Uiso   1.00
C1157  C     0.16672   0.95697   0.74844   0.00000  Uiso   1.00
C1158  C     0.30168   0.86586   0.77242   0.00000  Uiso   1.00
C1159  C     0.01726   0.86506   0.77432   0.00000  Uiso   1.00
C1160  C     0.03250   0.80245   0.72442   0.00000  Uiso   1.00
C1161  C     0.31653   0.80211   0.72481   0.00000  Uiso   1.00
C1162  C     0.16666   0.75422   0.75044   0.00000  Uiso   1.00
C1163  C     0.19257   0.83120   0.65032   0.00000  Uiso   1.00
C1164  C     0.25246   0.78296   0.51633   0.00000  Uiso   1.00
C1165  C     0.20626   0.82303   0.59395   0.00000  Uiso   1.00
C1166  C     0.07851   0.85387   0.93806   0.00000  Uiso   1.00
C1167  C     0.06234   0.84978   0.99163   0.00000  Uiso   1.00
C1168  C     0.09401   0.83508   0.51784   0.00000  Uiso   1.00
Cu1169 Cu    0.11978   0.83333   0.75000   0.00000  Uiso   1.00
Cu1170 Cu    0.21355   0.83334   0.75000   0.00000  Uiso   1.00
H1171  H     0.09871   0.96351   0.80903   0.00000  Uiso   1.00
N1172  N     0.04931   0.83332   0.74998   0.00000  Uiso   1.00
N1173  N     0.28402   0.83335   0.74999   0.00000  Uiso   1.00
O1174  O     0.12708   0.89345   0.75000   0.00000  Uiso   1.00
O1175  O     0.20627   0.89346   0.75000   0.00000  Uiso   1.00
O1176  O     0.10775   0.83332   0.82549   0.00000  Uiso   1.00
O1177  O     0.18694   0.83333   0.82549   0.00000  Uiso   1.00
O1178  O     0.12706   0.77321   0.74999   0.00000  Uiso   1.00
O1179  O     0.20625   0.77322   0.74999   0.00000  Uiso   1.00
O1180  O     0.14640   0.83334   0.67451   0.00000  Uiso   1.00
O1181  O     0.22559   0.83335   0.67451   0.00000  Uiso   1.00
O1182  O     0.27062   0.77717   0.59809   0.00000  Uiso   1.00
H1183  H     0.29558   0.75758   0.57628   0.00000  Uiso   1.00
O1184  O     0.23760   0.70829   0.67688   0.00000  Uiso   1.00
H1185  H     0.25007   0.69002   0.64531   0.00000  Uiso   1.00
O1186  O     0.09155   0.70903   0.82400   0.00000  Uiso   1.00
H1187  H     0.10199   0.73699   0.83173   0.00000  Uiso   1.00
O1188  O     0.27100   0.89911   0.79363   0.00000  Uiso   1.00
H1189  H     0.28881   0.92186   0.80488   0.00000  Uiso   1.00
O1190  O     0.03126   0.89714   0.80110   0.00000  Uiso   1.00
H1191  H     0.05667   0.88635   0.81446   0.00000  Uiso   1.00
N1192  N     0.06551   0.77093   0.69506   0.00000  Uiso   1.00
H1193  H     0.06572   0.77153   0.65645   0.00000  Uiso   1.00
H1194  H     0.05272   0.74224   0.70895   0.00000  Uiso   1.00
O1195  O     0.30321   0.77005   0.69756   0.00000  Uiso   1.00
H1196  H     0.27741   0.78077   0.68472   0.00000  Uiso   1.00
N1197  N     0.28644   0.79055   0.90450   0.00000  Uiso   1.00
H1198  H     0.30550   0.81593   0.88712   0.00000  Uiso   1.00
H1199  H     0.28273   0.77036   0.87477   0.00000  Uiso   1.00
O1200  O     0.28941   0.75484   0.99284   0.00000  Uiso   1.00
H1201  H     0.27877   0.73742   0.96736   0.00000  Uiso   1.00
O1202  O     0.14416   0.87159   0.58592   0.00000  Uiso   1.00
H1203  H     0.15619   0.88831   0.61092   0.00000  Uiso   1.00
N1204  N     0.04585   0.87318   0.91506   0.00000  Uiso   1.00
H1205  H     0.03575   0.85160   0.89084   0.00000  Uiso   1.00
H1206  H     0.06336   0.89800   0.89441   0.00000  Uiso   1.00
N1207  N     0.07506   0.82257   0.57016   0.00000  Uiso   1.00
H1208  H     0.05103   0.79847   0.57073   0.00000  Uiso   1.00
H1209  H     0.05583   0.84739   0.59344   0.00000  Uiso   1.00
N1210  N     0.01289   0.86073   0.51909   0.00000  Uiso   1.00
H1211  H     0.01260   0.88425   0.54690   0.00000  Uiso   1.00
H1212  H     0.32953   0.83497   0.53801   0.00000  Uiso   1.00
O1213  O     0.23607   0.85762   0.87992   0.00000  Uiso   1.00
H1214  H     0.21451   0.88227   0.88310   0.00000  Uiso   1.00
O1215  O     0.24396   0.95319   0.68313   0.00000  Uiso   1.00
H1216  H     0.27381   0.96967   0.67573   0.00000  Uiso   1.00
C1217  C     0.50002   0.91241   0.74949   0.00000  Uiso   1.00
C1218  C     0.47737   0.83009   0.99129   0.00000  Uiso   1.00
C1219  C     0.49363   0.83308   0.93689   0.00000  Uiso   1.00
C1220  C     0.51236   0.82125   0.51709   0.00000  Uiso   1.00
C1221  C     0.55614   0.80041   0.98903   0.00000  Uiso   1.00
C1222  C     0.57202   0.80404   0.93498   0.00000  Uiso   1.00
C1223  C     0.54436   0.82887   0.91306   0.00000  Uiso   1.00
C1224  C     0.50849   0.83792   0.56689   0.00000  Uiso   1.00
C1225  C     0.57699   0.79414   0.56933   0.00000  Uiso   1.00
C1226  C     0.45981   0.84145   0.90882   0.00000  Uiso   1.00
C1227  C     0.53915   0.97687   0.71496   0.00000  Uiso   1.00
C1228  C     0.47411   0.83635   0.85045   0.00000  Uiso   1.00
C1229  C     0.53776   0.68704   0.71422   0.00000  Uiso   1.00
C1230  C     0.50018   0.70947   0.75104   0.00000  Uiso   1.00
C1231  C     0.46196   0.68888   0.78596   0.00000  Uiso   1.00
C1232  C     0.46147   0.97941   0.78266   0.00000  Uiso   1.00
C1233  C     0.50005   0.95697   0.74844   0.00000  Uiso   1.00
C1234  C     0.63501   0.86586   0.77242   0.00000  Uiso   1.00
C1235  C     0.35059   0.86506   0.77432   0.00000  Uiso   1.00
C1236  C     0.36584   0.80245   0.72442   0.00000  Uiso   1.00
C1237  C     0.64986   0.80211   0.72481   0.00000  Uiso   1.00
C1238  C     0.49999   0.75422   0.75044   0.00000  Uiso   1.00
C1239  C     0.52590   0.83120   0.65032   0.00000  Uiso   1.00
C1240  C     0.58579   0.78296   0.51633   0.00000  Uiso   1.00
C1241  C     0.53959   0.82303   0.59395   0.00000  Uiso   1.00
C1242  C     0.41185   0.85387   0.93806   0.00000  Uiso   1.00
C1243  C     0.39567   0.84978   0.99163   0.00000  Uiso   1.00
C1244  C     0.42734   0.83508   0.51784   0.00000  Uiso   1.00
Cu1245 Cu    0.45311   0.83333   0.75000   0.00000  Uiso   1.00
Cu1246 Cu    0.54689   0.83334   0.75000   0.00000  Uiso   1.00
H1247  H     0.43204   0.96351   0.80903   0.00000  Uiso   1.00
N1248  N     0.38265   0.83332   0.74998   0.00000  Uiso   1.00
N1249  N     0.61735   0.83335   0.74999   0.00000  Uiso   1.00
O1250  O     0.46042   0.89345   0.75000   0.00000  Uiso   1.00
O1251  O     0.53961   0.89346   0.75000   0.00000  Uiso   1.00
O1252  O     0.44108   0.83332   0.82549   0.00000  Uiso   1.00
O1253  O     0.52027   0.83333   0.82549   0.00000  Uiso   1.00
O1254  O     0.46039   0.77321   0.74999   0.00000  Uiso   1.00
O1255  O     0.53958   0.77322   0.74999   0.00000  Uiso   1.00
O1256  O     0.47973   0.83334   0.67451   0.00000  Uiso   1.00
O1257  O     0.55892   0.83335   0.67451   0.00000  Uiso   1.00
O1258  O     0.60395   0.77717   0.59809   0.00000  Uiso   1.00
H1259  H     0.62892   0.75758   0.57628   0.00000  Uiso   1.00
O1260  O     0.57094   0.70829   0.67688   0.00000  Uiso   1.00
H1261  H     0.58340   0.69002   0.64531   0.00000  Uiso   1.00
O1262  O     0.42489   0.70903   0.82400   0.00000  Uiso   1.00
H1263  H     0.43533   0.73699   0.83173   0.00000  Uiso   1.00
O1264  O     0.60434   0.89911   0.79363   0.00000  Uiso   1.00
H1265  H     0.62214   0.92186   0.80488   0.00000  Uiso   1.00
O1266  O     0.36460   0.89714   0.80110   0.00000  Uiso   1.00
H1267  H     0.39000   0.88635   0.81446   0.00000  Uiso   1.00
N1268  N     0.39884   0.77093   0.69506   0.00000  Uiso   1.00
H1269  H     0.39905   0.77153   0.65645   0.00000  Uiso   1.00
H1270  H     0.38605   0.74224   0.70895   0.00000  Uiso   1.00
O1271  O     0.63654   0.77005   0.69756   0.00000  Uiso   1.00
H1272  H     0.61074   0.78077   0.68472   0.00000  Uiso   1.00
N1273  N     0.61978   0.79055   0.90450   0.00000  Uiso   1.00
H1274  H     0.63883   0.81593   0.88712   0.00000  Uiso   1.00
H1275  H     0.61606   0.77036   0.87477   0.00000  Uiso   1.00
O1276  O     0.62274   0.75484   0.99284   0.00000  Uiso   1.00
H1277  H     0.61210   0.73742   0.96736   0.00000  Uiso   1.00
O1278  O     0.47750   0.87159   0.58592   0.00000  Uiso   1.00
H1279  H     0.48952   0.88831   0.61092   0.00000  Uiso   1.00
N1280  N     0.37919   0.87318   0.91506   0.00000  Uiso   1.00
H1281  H     0.36909   0.85160   0.89084   0.00000  Uiso   1.00
H1282  H     0.39669   0.89800   0.89441   0.00000  Uiso   1.00
N1283  N     0.40839   0.82257   0.57016   0.00000  Uiso   1.00
H1284  H     0.38436   0.79847   0.57073   0.00000  Uiso   1.00
H1285  H     0.38917   0.84739   0.59344   0.00000  Uiso   1.00
N1286  N     0.34623   0.86073   0.51909   0.00000  Uiso   1.00
H1287  H     0.34593   0.88425   0.54690   0.00000  Uiso   1.00
H1288  H     0.66287   0.83497   0.53801   0.00000  Uiso   1.00
O1289  O     0.56941   0.85762   0.87992   0.00000  Uiso   1.00
H1290  H     0.54784   0.88227   0.88310   0.00000  Uiso   1.00
O1291  O     0.57730   0.95319   0.68313   0.00000  Uiso   1.00
H1292  H     0.60714   0.96967   0.67573   0.00000  Uiso   1.00
C1293  C     0.83335   0.91241   0.74949   0.00000  Uiso   1.00
C1294  C     0.81070   0.83009   0.99129   0.00000  Uiso   1.00
C1295  C     0.82697   0.83308   0.93689   0.00000  Uiso   1.00
C1296  C     0.84570   0.82125   0.51709   0.00000  Uiso   1.00
C1297  C     0.88947   0.80041   0.98903   0.00000  Uiso   1.00
C1298  C     0.90535   0.80404   0.93498   0.00000  Uiso   1.00
C1299  C     0.87769   0.82887   0.91306   0.00000  Uiso   1.00
C1300  C     0.84182   0.83792   0.56689   0.00000  Uiso   1.00
C1301  C     0.91033   0.79414   0.56933   0.00000  Uiso   1.00
C1302  C     0.79314   0.84145   0.90882   0.00000  Uiso   1.00
C1303  C     0.87248   0.97687   0.71496   0.00000  Uiso   1.00
C1304  C     0.80744   0.83635   0.85045   0.00000  Uiso   1.00
C1305  C     0.87110   0.68704   0.71422   0.00000  Uiso   1.00
C1306  C     0.83351   0.70947   0.75104   0.00000  Uiso   1.00
C1307  C     0.79529   0.68888   0.78596   0.00000  Uiso   1.00
C1308  C     0.79481   0.97941   0.78266   0.00000  Uiso   1.00
C1309  C     0.83338   0.95697   0.74844   0.00000  Uiso   1.00
C1310  C     0.96835   0.86586   0.77242   0.00000  Uiso   1.00
C1311  C     0.68392   0.86506   0.77432   0.00000  Uiso   1.00
C1312  C     0.69917   0.80245   0.72442   0.00000  Uiso   1.00
C1313  C     0.98319   0.80211   0.72481   0.00000  Uiso   1.00
C1314  C     0.83332   0.75422   0.75044   0.00000  Uiso   1.00
C1315  C     0.85924   0.83120   0.65032   0.00000  Uiso   1.00
C1316  C     0.91913   0.78296   0.51633   0.00000  Uiso   1.00
C1317  C     0.87293   0.82303   0.59395   0.00000  Uiso   1.00
C1318  C     0.74518   0.85387   0.93806   0.00000  Uiso   1.00
C1319  C     0.72900   0.84978   0.99163   0.00000  Uiso   1.00
C1320  C     0.76068   0.83508   0.51784   0.00000  Uiso   1.00
Cu1321 Cu    0.78645   0.83333   0.75000   0.00000  Uiso   1.00
Cu1322 Cu    0.88022   0.83334   0.75000   0.00000  Uiso   1.00
H1323  H     0.76537   0.96351   0.80903   0.00000  Uiso   1.00
N1324  N     0.71598   0.83332   0.74998   0.00000  Uiso   1.00
N1325  N     0.95069   0.83335   0.74999   0.00000  Uiso   1.00
O1326  O     0.79375   0.89345   0.75000   0.00000  Uiso   1.00
O1327  O     0.87294   0.89346   0.75000   0.00000  Uiso   1.00
O1328  O     0.77441   0.83332   0.82549   0.00000  Uiso   1.00
O1329  O     0.85360   0.83333   0.82549   0.00000  Uiso   1.00
O1330  O     0.79373   0.77321   0.74999   0.00000  Uiso   1.00
O1331  O     0.87292   0.77322   0.74999   0.00000  Uiso   1.00
O1332  O     0.81306   0.83334   0.67451   0.00000  Uiso   1.00
O1333  O     0.89225   0.83335   0.67451   0.00000  Uiso   1.00
O1334  O     0.93728   0.77717   0.59809   0.00000  Uiso   1.00
H1335  H     0.96225   0.75758   0.57628   0.00000  Uiso   1.00
O1336  O     0.90427   0.70829   0.67688   0.00000  Uiso   1.00
H1337  H     0.91673   0.69002   0.64531   0.00000  Uiso   1.00
O1338  O     0.75822   0.70903   0.82400   0.00000  Uiso   1.00
H1339  H     0.76866   0.73699   0.83173   0.00000  Uiso   1.00
O1340  O     0.93767   0.89911   0.79363   0.00000  Uiso   1.00
H1341  H     0.95547   0.92186   0.80488   0.00000  Uiso   1.00
O1342  O     0.69793   0.89714   0.80110   0.00000  Uiso   1.00
H1343  H     0.72333   0.88635   0.81446   0.00000  Uiso   1.00
N1344  N     0.73217   0.77093   0.69506   0.00000  Uiso   1.00
H1345  H     0.73239   0.77153   0.65645   0.00000  Uiso   1.00
H1346  H     0.71939   0.74224   0.70895   0.00000  Uiso   1.00
O1347  O     0.96988   0.77005   0.69756   0.00000  Uiso   1.00
H1348  H     0.94407   0.78077   0.68472   0.00000  Uiso   1.00
N1349  N     0.95311   0.79055   0.90450   0.00000  Uiso   1.00
H1350  H     0.97217   0.81593   0.88712   0.00000  Uiso   1.00
H1351  H     0.94940   0.77036   0.87477   0.00000  Uiso   1.00
O1352  O     0.95607   0.75484   0.99284   0.00000  Uiso   1.00
H1353  H     0.94544   0.73742   0.96736   0.00000  Uiso   1.00
O1354  O     0.81083   0.87159   0.58592   0.00000  Uiso   1.00
H1355  H     0.82285   0.88831   0.61092   0.00000  Uiso   1.00
N1356  N     0.71252   0.87318   0.91506   0.00000  Uiso   1.00
H1357  H     0.70242   0.85160   0.89084   0.00000  Uiso   1.00
H1358  H     0.73003   0.89800   0.89441   0.00000  Uiso   1.00
N1359  N     0.74173   0.82257   0.57016   0.00000  Uiso   1.00
H1360  H     0.71770   0.79847   0.57073   0.00000  Uiso   1.00
H1361  H     0.72250   0.84739   0.59344   0.00000  Uiso   1.00
N1362  N     0.67956   0.86073   0.51909   0.00000  Uiso   1.00
H1363  H     0.67927   0.88425   0.54690   0.00000  Uiso   1.00
H1364  H     0.99620   0.83497   0.53801   0.00000  Uiso   1.00
O1365  O     0.90274   0.85762   0.87992   0.00000  Uiso   1.00
H1366  H     0.88117   0.88227   0.88310   0.00000  Uiso   1.00
O1367  O     0.91063   0.95319   0.68313   0.00000  Uiso   1.00
H1368  H     0.94048   0.96967   0.67573   0.00000  Uiso   1.00
loop_
_geom_bond_atom_site_label_1
_geom_bond_atom_site_label_2
_geom_bond_distance
_geom_bond_site_symmetry_2
_ccdc_geom_bond_type
C1     O34     1.299   .     A
C1     O35     1.298   .     A
C1     C17     1.444   .     S
C2     C3      1.416   .     A
C2     C688    1.423   .     S
C2     C712    1.414   .     S
C3     C7      1.418   .     A
C3     C10     1.436   .     A
C4     C8      1.403   .     A
C4     C686    1.423   1_554 S
C4     C689    1.415   1_554 S
C5     C6      1.409   .     A
C5     C688    1.415   .     S
C5     C708    1.416   .     S
C6     N57     1.435   .     S
C6     C7      1.397   .     A
C7     O73     1.376   .     S
C8     C25     1.411   .     A
C8     O62     1.385   .     S
C9     C25     1.410   .     A
C9     O42     1.381   .     S
C9     C24     1.412   .     A
C10    C26     1.421   .     A
C10    C12     1.512   .     S
C11    C17     1.402   .     A
C11    O75     1.382   .     S
C11    C241    1.409   .     S
C12    O37     1.304   .     A
C12    O36     1.325   .     A
C13    C14     1.408   .     A
C13    O44     1.382   .     S
C13    C467    1.409   1_545 S
C14    C22     1.449   .     S
C14    C15     1.415   .     A
C15    O46     1.382   .     S
C15    C472    1.385   1_545 S
C16    H31     1.084   .     S
C16    C17     1.394   .     A
C16    C243    1.385   .     S
C18    O48     1.379   .     S
C18    N33     1.368   .     A
C18    C95     1.429   .     S
C19    N32     1.382   .     A
C19    O50     1.372   .     S
C19    C170    1.429   1_455 S
C20    N32     1.364   .     A
C20    N52     1.430   .     S
C20    C173    1.421   1_455 S
C21    N33     1.384   .     A
C21    O55     1.370   .     S
C21    C96     1.421   .     S
C22    O38     1.298   .     A
C22    O39     1.299   .     A
C23    O41     1.308   .     A
C23    C25     1.471   .     S
C23    O40     1.299   .     A
C24    C689    1.416   1_554 S
C24    O744    1.380   1_554 S
C26    C27     1.399   .     A
C26    N64     1.429   .     S
C27    C712    1.406   .     S
C27    N754    1.434   .     S
C28    N67     1.437   .     S
C28    C686    1.414   1_554 S
C28    C711    1.406   1_554 S
Cu29   O36     1.970   .     S
Cu29   N32     2.035   .     S
Cu29   O38     1.956   .     S
Cu29   O34     1.959   .     S
Cu29   Cu30    2.708   .     S
Cu29   O40     1.959   .     S
Cu30   O35     1.956   .     S
Cu30   O41     1.970   .     S
Cu30   O37     1.959   .     S
Cu30   N33     2.035   .     S
Cu30   O39     1.959   .     S
O42    H43     0.989   .     S
O44    H45     0.990   .     S
O46    H47     0.989   .     S
O48    H49     0.989   .     S
O50    H51     0.978   .     S
N52    H54     1.046   .     S
N52    H53     1.045   .     S
O55    H56     0.979   .     S
N57    H59     1.045   .     S
N57    H58     1.042   .     S
O60    H61     0.991   .     S
O60    C708    1.380   .     S
O62    H63     0.991   .     S
N64    H66     1.045   .     S
N64    H65     1.039   .     S
N67    H68     1.045   .     S
N67    H69     1.045   .     S
N70    H71     1.045   .     S
N70    C711    1.434   1_554 S
N70    H224    1.043   1_455 S
H72    N146    1.043   .     S
O73    H74     0.993   .     S
O75    H76     0.991   .     S
C77    O110    1.299   .     A
C77    O111    1.298   .     A
C77    C93     1.444   .     S
C78    C79     1.416   .     A
C78    C764    1.423   .     S
C78    C788    1.414   .     S
C79    C83     1.418   .     A
C79    C86     1.436   .     A
C80    C84     1.403   .     A
C80    C762    1.423   1_554 S
C80    C765    1.415   1_554 S
C81    C82     1.409   .     A
C81    C764    1.415   .     S
C81    C784    1.416   .     S
C82    N133    1.435   .     S
C82    C83     1.397   .     A
C83    O149    1.376   .     S
C84    C101    1.411   .     A
C84    O138    1.385   .     S
C85    C101    1.410   .     A
C85    O118    1.381   .     S
C85    C100    1.412   .     A
C86    C102    1.421   .     A
C86    C88     1.512   .     S
C87    C93     1.402   .     A
C87    O151    1.382   .     S
C87    C317    1.409   .     S
C88    O113    1.304   .     A
C88    O112    1.325   .     A
C89    C90     1.408   .     A
C89    O120    1.382   .     S
C89    C543    1.409   1_545 S
C90    C98     1.449   .     S
C90    C91     1.415   .     A
C91    O122    1.382   .     S
C91    C548    1.385   1_545 S
C92    H107    1.084   .     S
C92    C93     1.394   .     A
C92    C319    1.385   .     S
C94    O124    1.379   .     S
C94    N109    1.368   .     A
C94    C171    1.429   .     S
C95    N108    1.382   .     A
C95    O126    1.372   .     S
C96    N108    1.364   .     A
C96    N128    1.430   .     S
C97    N109    1.384   .     A
C97    O131    1.370   .     S
C97    C172    1.421   .     S
C98    O114    1.298   .     A
C98    O115    1.299   .     A
C99    O117    1.308   .     A
C99    C101    1.471   .     S
C99    O116    1.299   .     A
C100   C765    1.416   1_554 S
C100   O820    1.380   1_554 S
C102   C103    1.399   .     A
C102   N140    1.429   .     S
C103   C788    1.406   .     S
C103   N830    1.434   .     S
C104   N143    1.437   .     S
C104   C762    1.414   1_554 S
C104   C787    1.406   1_554 S
Cu105  O112    1.970   .     S
Cu105  N108    2.035   .     S
Cu105  O114    1.956   .     S
Cu105  O110    1.959   .     S
Cu105  Cu106   2.708   .     S
Cu105  O116    1.959   .     S
Cu106  O111    1.956   .     S
Cu106  O117    1.970   .     S
Cu106  O113    1.959   .     S
Cu106  N109    2.035   .     S
Cu106  O115    1.959   .     S
O118   H119    0.989   .     S
O120   H121    0.990   .     S
O122   H123    0.989   .     S
O124   H125    0.989   .     S
O126   H127    0.978   .     S
N128   H130    1.046   .     S
N128   H129    1.045   .     S
O131   H132    0.979   .     S
N133   H135    1.045   .     S
N133   H134    1.042   .     S
O136   H137    0.991   .     S
O136   C784    1.380   .     S
O138   H139    0.991   .     S
N140   H142    1.045   .     S
N140   H141    1.039   .     S
N143   H144    1.045   .     S
N143   H145    1.045   .     S
N146   H147    1.045   .     S
N146   C787    1.434   1_554 S
H148   N222    1.043   .     S
O149   H150    0.993   .     S
O151   H152    0.991   .     S
C153   O186    1.299   .     A
C153   O187    1.298   .     A
C153   C169    1.444   .     S
C154   C155    1.416   .     A
C154   C840    1.423   .     S
C154   C864    1.414   .     S
C155   C159    1.418   .     A
C155   C162    1.436   .     A
C156   C160    1.403   .     A
C156   C838    1.423   1_554 S
C156   C841    1.415   1_554 S
C157   C158    1.409   .     A
C157   C840    1.415   .     S
C157   C860    1.416   .     S
C158   N209    1.435   .     S
C158   C159    1.397   .     A
C159   O225    1.376   .     S
C160   C177    1.411   .     A
C160   O214    1.385   .     S
C161   C177    1.410   .     A
C161   O194    1.381   .     S
C161   C176    1.412   .     A
C162   C178    1.421   .     A
C162   C164    1.512   .     S
C163   C169    1.402   .     A
C163   O227    1.382   .     S
C163   C393    1.409   .     S
C164   O189    1.304   .     A
C164   O188    1.325   .     A
C165   C166    1.408   .     A
C165   O196    1.382   .     S
C165   C619    1.409   1_545 S
C166   C174    1.449   .     S
C166   C167    1.415   .     A
C167   O198    1.382   .     S
C167   C624    1.385   1_545 S
C168   H183    1.084   .     S
C168   C169    1.394   .     A
C168   C395    1.385   .     S
C170   O200    1.379   .     S
C170   N185    1.368   .     A
C170   C19     1.429   1_655 S
C171   N184    1.382   .     A
C171   O202    1.372   .     S
C172   N184    1.364   .     A
C172   N204    1.430   .     S
C173   N185    1.384   .     A
C173   O207    1.370   .     S
C173   C20     1.421   1_655 S
C174   O190    1.298   .     A
C174   O191    1.299   .     A
C175   O193    1.308   .     A
C175   C177    1.471   .     S
C175   O192    1.299   .     A
C176   C841    1.416   1_554 S
C176   O896    1.380   1_554 S
C178   C179    1.399   .     A
C178   N216    1.429   .     S
C179   C864    1.406   .     S
C179   N906    1.434   .     S
C180   N219    1.437   .     S
C180   C838    1.414   1_554 S
C180   C863    1.406   1_554 S
Cu181  O188    1.970   .     S
Cu181  N184    2.035   .     S
Cu181  O190    1.956   .     S
Cu181  O186    1.959   .     S
Cu181  Cu182   2.708   .     S
Cu181  O192    1.959   .     S
Cu182  O187    1.956   .     S
Cu182  O193    1.970   .     S
Cu182  O189    1.959   .     S
Cu182  N185    2.035   .     S
Cu182  O191    1.959   .     S
O194   H195    0.989   .     S
O196   H197    0.990   .     S
O198   H199    0.989   .     S
O200   H201    0.989   .     S
O202   H203    0.978   .     S
N204   H206    1.046   .     S
N204   H205    1.045   .     S
O207   H208    0.979   .     S
N209   H211    1.045   .     S
N209   H210    1.042   .     S
O212   H213    0.991   .     S
O212   C860    1.380   .     S
O214   H215    0.991   .     S
N216   H218    1.045   .     S
N216   H217    1.039   .     S
N219   H220    1.045   .     S
N219   H221    1.045   .     S
N222   H223    1.045   .     S
N222   C863    1.434   1_554 S
H224   N70     1.043   1_655 S
O225   H226    0.993   .     S
O227   H228    0.991   .     S
C229   O262    1.299   .     A
C229   O263    1.298   .     A
C229   C245    1.444   .     S
C230   C231    1.416   .     A
C230   C916    1.423   .     S
C230   C940    1.414   .     S
C231   C235    1.418   .     A
C231   C238    1.436   .     A
C232   C236    1.403   .     A
C232   C914    1.423   1_554 S
C232   C917    1.415   1_554 S
C233   C234    1.409   .     A
C233   C916    1.415   .     S
C233   C936    1.416   .     S
C234   N285    1.435   .     S
C234   C235    1.397   .     A
C235   O301    1.376   .     S
C236   C253    1.411   .     A
C236   O290    1.385   .     S
C237   C253    1.410   .     A
C237   O270    1.381   .     S
C237   C252    1.412   .     A
C238   C254    1.421   .     A
C238   C240    1.512   .     S
C239   C245    1.402   .     A
C239   O303    1.382   .     S
C239   C469    1.409   .     S
C240   O265    1.304   .     A
C240   O264    1.325   .     A
C241   C242    1.408   .     A
C241   O272    1.382   .     S
C242   C250    1.449   .     S
C242   C243    1.415   .     A
C243   O274    1.382   .     S
C244   H259    1.084   .     S
C244   C245    1.394   .     A
C244   C471    1.385   .     S
C246   O276    1.379   .     S
C246   N261    1.368   .     A
C246   C323    1.429   .     S
C247   N260    1.382   .     A
C247   O278    1.372   .     S
C247   C398    1.429   1_455 S
C248   N260    1.364   .     A
C248   N280    1.430   .     S
C248   C401    1.421   1_455 S
C249   N261    1.384   .     A
C249   O283    1.370   .     S
C249   C324    1.421   .     S
C250   O266    1.298   .     A
C250   O267    1.299   .     A
C251   O269    1.308   .     A
C251   C253    1.471   .     S
C251   O268    1.299   .     A
C252   C917    1.416   1_554 S
C252   O972    1.380   1_554 S
C254   C255    1.399   .     A
C254   N292    1.429   .     S
C255   C940    1.406   .     S
C255   N982    1.434   .     S
C256   N295    1.437   .     S
C256   C914    1.414   1_554 S
C256   C939    1.406   1_554 S
Cu257  O264    1.970   .     S
Cu257  N260    2.035   .     S
Cu257  O266    1.956   .     S
Cu257  O262    1.959   .     S
Cu257  Cu258   2.708   .     S
Cu257  O268    1.959   .     S
Cu258  O263    1.956   .     S
Cu258  O269    1.970   .     S
Cu258  O265    1.959   .     S
Cu258  N261    2.035   .     S
Cu258  O267    1.959   .     S
O270   H271    0.989   .     S
O272   H273    0.990   .     S
O274   H275    0.989   .     S
O276   H277    0.989   .     S
O278   H279    0.978   .     S
N280   H282    1.046   .     S
N280   H281    1.045   .     S
O283   H284    0.979   .     S
N285   H287    1.045   .     S
N285   H286    1.042   .     S
O288   H289    0.991   .     S
O288   C936    1.380   .     S
O290   H291    0.991   .     S
N292   H294    1.045   .     S
N292   H293    1.039   .     S
N295   H296    1.045   .     S
N295   H297    1.045   .     S
N298   H299    1.045   .     S
N298   C939    1.434   1_554 S
N298   H452    1.043   1_455 S
H300   N374    1.043   .     S
O301   H302    0.993   .     S
O303   H304    0.991   .     S
C305   O338    1.299   .     A
C305   O339    1.298   .     A
C305   C321    1.444   .     S
C306   C307    1.416   .     A
C306   C992    1.423   .     S
C306   C1016   1.414   .     S
C307   C311    1.418   .     A
C307   C314    1.436   .     A
C308   C312    1.403   .     A
C308   C990    1.423   1_554 S
C308   C993    1.415   1_554 S
C309   C310    1.409   .     A
C309   C992    1.415   .     S
C309   C1012   1.416   .     S
C310   N361    1.435   .     S
C310   C311    1.397   .     A
C311   O377    1.376   .     S
C312   C329    1.411   .     A
C312   O366    1.385   .     S
C313   C329    1.410   .     A
C313   O346    1.381   .     S
C313   C328    1.412   .     A
C314   C330    1.421   .     A
C314   C316    1.512   .     S
C315   C321    1.402   .     A
C315   O379    1.382   .     S
C315   C545    1.409   .     S
C316   O341    1.304   .     A
C316   O340    1.325   .     A
C317   C318    1.408   .     A
C317   O348    1.382   .     S
C318   C326    1.449   .     S
C318   C319    1.415   .     A
C319   O350    1.382   .     S
C320   H335    1.084   .     S
C320   C321    1.394   .     A
C320   C547    1.385   .     S
C322   O352    1.379   .     S
C322   N337    1.368   .     A
C322   C399    1.429   .     S
C323   N336    1.382   .     A
C323   O354    1.372   .     S
C324   N336    1.364   .     A
C324   N356    1.430   .     S
C325   N337    1.384   .     A
C325   O359    1.370   .     S
C325   C400    1.421   .     S
C326   O342    1.298   .     A
C326   O343    1.299   .     A
C327   O345    1.308   .     A
C327   C329    1.471   .     S
C327   O344    1.299   .     A
C328   C993    1.416   1_554 S
C328   O1048   1.380   1_554 S
C330   C331    1.399   .     A
C330   N368    1.429   .     S
C331   C1016   1.406   .     S
C331   N1058   1.434   .     S
C332   N371    1.437   .     S
C332   C990    1.414   1_554 S
C332   C1015   1.406   1_554 S
Cu333  O340    1.970   .     S
Cu333  N336    2.035   .     S
Cu333  O342    1.956   .     S
Cu333  O338    1.959   .     S
Cu333  Cu334   2.708   .     S
Cu333  O344    1.959   .     S
Cu334  O339    1.956   .     S
Cu334  O345    1.970   .     S
Cu334  O341    1.959   .     S
Cu334  N337    2.035   .     S
Cu334  O343    1.959   .     S
O346   H347    0.989   .     S
O348   H349    0.990   .     S
O350   H351    0.989   .     S
O352   H353    0.989   .     S
O354   H355    0.978   .     S
N356   H358    1.046   .     S
N356   H357    1.045   .     S
O359   H360    0.979   .     S
N361   H363    1.045   .     S
N361   H362    1.042   .     S
O364   H365    0.991   .     S
O364   C1012   1.380   .     S
O366   H367    0.991   .     S
N368   H370    1.045   .     S
N368   H369    1.039   .     S
N371   H372    1.045   .     S
N371   H373    1.045   .     S
N374   H375    1.045   .     S
N374   C1015   1.434   1_554 S
H376   N450    1.043   .     S
O377   H378    0.993   .     S
O379   H380    0.991   .     S
C381   O414    1.299   .     A
C381   O415    1.298   .     A
C381   C397    1.444   .     S
C382   C383    1.416   .     A
C382   C1068   1.423   .     S
C382   C1092   1.414   .     S
C383   C387    1.418   .     A
C383   C390    1.436   .     A
C384   C388    1.403   .     A
C384   C1066   1.423   1_554 S
C384   C1069   1.415   1_554 S
C385   C386    1.409   .     A
C385   C1068   1.415   .     S
C385   C1088   1.416   .     S
C386   N437    1.435   .     S
C386   C387    1.397   .     A
C387   O453    1.376   .     S
C388   C405    1.411   .     A
C388   O442    1.385   .     S
C389   C405    1.410   .     A
C389   O422    1.381   .     S
C389   C404    1.412   .     A
C390   C406    1.421   .     A
C390   C392    1.512   .     S
C391   C397    1.402   .     A
C391   O455    1.382   .     S
C391   C621    1.409   .     S
C392   O417    1.304   .     A
C392   O416    1.325   .     A
C393   C394    1.408   .     A
C393   O424    1.382   .     S
C394   C402    1.449   .     S
C394   C395    1.415   .     A
C395   O426    1.382   .     S
C396   H411    1.084   .     S
C396   C397    1.394   .     A
C396   C623    1.385   .     S
C398   O428    1.379   .     S
C398   N413    1.368   .     A
C398   C247    1.429   1_655 S
C399   N412    1.382   .     A
C399   O430    1.372   .     S
C400   N412    1.364   .     A
C400   N432    1.430   .     S
C401   N413    1.384   .     A
C401   O435    1.370   .     S
C401   C248    1.421   1_655 S
C402   O418    1.298   .     A
C402   O419    1.299   .     A
C403   O421    1.308   .     A
C403   C405    1.471   .     S
C403   O420    1.299   .     A
C404   C1069   1.416   1_554 S
C404   O1124   1.380   1_554 S
C406   C407    1.399   .     A
C406   N444    1.429   .     S
C407   C1092   1.406   .     S
C407   N1134   1.434   .     S
C408   N447    1.437   .     S
C408   C1066   1.414   1_554 S
C408   C1091   1.406   1_554 S
Cu409  O416    1.970   .     S
Cu409  N412    2.035   .     S
Cu409  O418    1.956   .     S
Cu409  O414    1.959   .     S
Cu409  Cu410   2.708   .     S
Cu409  O420    1.959   .     S
Cu410  O415    1.956   .     S
Cu410  O421    1.970   .     S
Cu410  O417    1.959   .     S
Cu410  N413    2.035   .     S
Cu410  O419    1.959   .     S
O422   H423    0.989   .     S
O424   H425    0.990   .     S
O426   H427    0.989   .     S
O428   H429    0.989   .     S
O430   H431    0.978   .     S
N432   H434    1.046   .     S
N432   H433    1.045   .     S
O435   H436    0.979   .     S
N437   H439    1.045   .     S
N437   H438    1.042   .     S
O440   H441    0.991   .     S
O440   C1088   1.380   .     S
O442   H443    0.991   .     S
N444   H446    1.045   .     S
N444   H445    1.039   .     S
N447   H448    1.045   .     S
N447   H449    1.045   .     S
N450   H451    1.045   .     S
N450   C1091   1.434   1_554 S
H452   N298    1.043   1_655 S
O453   H454    0.993   .     S
O455   H456    0.991   .     S
C457   O490    1.299   .     A
C457   O491    1.298   .     A
C457   C473    1.444   .     S
C458   C459    1.416   .     A
C458   C1144   1.423   .     S
C458   C1168   1.414   .     S
C459   C463    1.418   .     A
C459   C466    1.436   .     A
C460   C464    1.403   .     A
C460   C1142   1.423   1_554 S
C460   C1145   1.415   1_554 S
C461   C462    1.409   .     A
C461   C1144   1.415   .     S
C461   C1164   1.416   .     S
C462   N513    1.435   .     S
C462   C463    1.397   .     A
C463   O529    1.376   .     S
C464   C481    1.411   .     A
C464   O518    1.385   .     S
C465   C481    1.410   .     A
C465   O498    1.381   .     S
C465   C480    1.412   .     A
C466   C482    1.421   .     A
C466   C468    1.512   .     S
C467   C473    1.402   .     A
C467   O531    1.382   .     S
C467   C13     1.409   1_565 S
C468   O493    1.304   .     A
C468   O492    1.325   .     A
C469   C470    1.408   .     A
C469   O500    1.382   .     S
C470   C478    1.449   .     S
C470   C471    1.415   .     A
C471   O502    1.382   .     S
C472   H487    1.084   .     S
C472   C473    1.394   .     A
C472   C15     1.385   1_565 S
C474   O504    1.379   .     S
C474   N489    1.368   .     A
C474   C551    1.429   .     S
C475   N488    1.382   .     A
C475   O506    1.372   .     S
C475   C626    1.429   1_455 S
C476   N488    1.364   .     A
C476   N508    1.430   .     S
C476   C629    1.421   1_455 S
C477   N489    1.384   .     A
C477   O511    1.370   .     S
C477   C552    1.421   .     S
C478   O494    1.298   .     A
C478   O495    1.299   .     A
C479   O497    1.308   .     A
C479   C481    1.471   .     S
C479   O496    1.299   .     A
C480   C1145   1.416   1_554 S
C480   O1200   1.380   1_554 S
C482   C483    1.399   .     A
C482   N520    1.429   .     S
C483   C1168   1.406   .     S
C483   N1210   1.434   .     S
C484   N523    1.437   .     S
C484   C1142   1.414   1_554 S
C484   C1167   1.406   1_554 S
Cu485  O492    1.970   .     S
Cu485  N488    2.035   .     S
Cu485  O494    1.956   .     S
Cu485  O490    1.959   .     S
Cu485  Cu486   2.708   .     S
Cu485  O496    1.959   .     S
Cu486  O491    1.956   .     S
Cu486  O497    1.970   .     S
Cu486  O493    1.959   .     S
Cu486  N489    2.035   .     S
Cu486  O495    1.959   .     S
O498   H499    0.989   .     S
O500   H501    0.990   .     S
O502   H503    0.989   .     S
O504   H505    0.989   .     S
O506   H507    0.978   .     S
N508   H510    1.046   .     S
N508   H509    1.045   .     S
O511   H512    0.979   .     S
N513   H515    1.045   .     S
N513   H514    1.042   .     S
O516   H517    0.991   .     S
O516   C1164   1.380   .     S
O518   H519    0.991   .     S
N520   H522    1.045   .     S
N520   H521    1.039   .     S
N523   H524    1.045   .     S
N523   H525    1.045   .     S
N526   H527    1.045   .     S
N526   C1167   1.434   1_554 S
N526   H680    1.043   1_455 S
H528   N602    1.043   .     S
O529   H530    0.993   .     S
O531   H532    0.991   .     S
C533   O566    1.299   .     A
C533   O567    1.298   .     A
C533   C549    1.444   .     S
C534   C535    1.416   .     A
C534   C1220   1.423   .     S
C534   C1244   1.414   .     S
C535   C539    1.418   .     A
C535   C542    1.436   .     A
C536   C540    1.403   .     A
C536   C1218   1.423   1_554 S
C536   C1221   1.415   1_554 S
C537   C538    1.409   .     A
C537   C1220   1.415   .     S
C537   C1240   1.416   .     S
C538   N589    1.435   .     S
C538   C539    1.397   .     A
C539   O605    1.376   .     S
C540   C557    1.411   .     A
C540   O594    1.385   .     S
C541   C557    1.410   .     A
C541   O574    1.381   .     S
C541   C556    1.412   .     A
C542   C558    1.421   .     A
C542   C544    1.512   .     S
C543   C549    1.402   .     A
C543   O607    1.382   .     S
C543   C89     1.409   1_565 S
C544   O569    1.304   .     A
C544   O568    1.325   .     A
C545   C546    1.408   .     A
C545   O576    1.382   .     S
C546   C554    1.449   .     S
C546   C547    1.415   .     A
C547   O578    1.382   .     S
C548   H563    1.084   .     S
C548   C549    1.394   .     A
C548   C91     1.385   1_565 S
C550   O580    1.379   .     S
C550   N565    1.368   .     A
C550   C627    1.429   .     S
C551   N564    1.382   .     A
C551   O582    1.372   .     S
C552   N564    1.364   .     A
C552   N584    1.430   .     S
C553   N565    1.384   .     A
C553   O587    1.370   .     S
C553   C628    1.421   .     S
C554   O570    1.298   .     A
C554   O571    1.299   .     A
C555   O573    1.308   .     A
C555   C557    1.471   .     S
C555   O572    1.299   .     A
C556   C1221   1.416   1_554 S
C556   O1276   1.380   1_554 S
C558   C559    1.399   .     A
C558   N596    1.429   .     S
C559   C1244   1.406   .     S
C559   N1286   1.434   .     S
C560   N599    1.437   .     S
C560   C1218   1.414   1_554 S
C560   C1243   1.406   1_554 S
Cu561  O568    1.970   .     S
Cu561  N564    2.035   .     S
Cu561  O570    1.956   .     S
Cu561  O566    1.959   .     S
Cu561  Cu562   2.708   .     S
Cu561  O572    1.959   .     S
Cu562  O567    1.956   .     S
Cu562  O573    1.970   .     S
Cu562  O569    1.959   .     S
Cu562  N565    2.035   .     S
Cu562  O571    1.959   .     S
O574   H575    0.989   .     S
O576   H577    0.990   .     S
O578   H579    0.989   .     S
O580   H581    0.989   .     S
O582   H583    0.978   .     S
N584   H586    1.046   .     S
N584   H585    1.045   .     S
O587   H588    0.979   .     S
N589   H591    1.045   .     S
N589   H590    1.042   .     S
O592   H593    0.991   .     S
O592   C1240   1.380   .     S
O594   H595    0.991   .     S
N596   H598    1.045   .     S
N596   H597    1.039   .     S
N599   H600    1.045   .     S
N599   H601    1.045   .     S
N602   H603    1.045   .     S
N602   C1243   1.434   1_554 S
H604   N678    1.043   .     S
O605   H606    0.993   .     S
O607   H608    0.991   .     S
C609   O642    1.299   .     A
C609   O643    1.298   .     A
C609   C625    1.444   .     S
C610   C611    1.416   .     A
C610   C1296   1.423   .     S
C610   C1320   1.414   .     S
C611   C615    1.418   .     A
C611   C618    1.436   .     A
C612   C616    1.403   .     A
C612   C1294   1.423   1_554 S
C612   C1297   1.415   1_554 S
C613   C614    1.409   .     A
C613   C1296   1.415   .     S
C613   C1316   1.416   .     S
C614   N665    1.435   .     S
C614   C615    1.397   .     A
C615   O681    1.376   .     S
C616   C633    1.411   .     A
C616   O670    1.385   .     S
C617   C633    1.410   .     A
C617   O650    1.381   .     S
C617   C632    1.412   .     A
C618   C634    1.421   .     A
C618   C620    1.512   .     S
C619   C625    1.402   .     A
C619   O683    1.382   .     S
C619   C165    1.409   1_565 S
C620   O645    1.304   .     A
C620   O644    1.325   .     A
C621   C622    1.408   .     A
C621   O652    1.382   .     S
C622   C630    1.449   .     S
C622   C623    1.415   .     A
C623   O654    1.382   .     S
C624   H639    1.084   .     S
C624   C625    1.394   .     A
C624   C167    1.385   1_565 S
C626   O656    1.379   .     S
C626   N641    1.368   .     A
C626   C475    1.429   1_655 S
C627   N640    1.382   .     A
C627   O658    1.372   .     S
C628   N640    1.364   .     A
C628   N660    1.430   .     S
C629   N641    1.384   .     A
C629   O663    1.370   .     S
C629   C476    1.421   1_655 S
C630   O646    1.298   .     A
C630   O647    1.299   .     A
C631   O649    1.308   .     A
C631   C633    1.471   .     S
C631   O648    1.299   .     A
C632   C1297   1.416   1_554 S
C632   O1352   1.380   1_554 S
C634   C635    1.399   .     A
C634   N672    1.429   .     S
C635   C1320   1.406   .     S
C635   N1362   1.434   .     S
C636   N675    1.437   .     S
C636   C1294   1.414   1_554 S
C636   C1319   1.406   1_554 S
Cu637  O644    1.970   .     S
Cu637  N640    2.035   .     S
Cu637  O646    1.956   .     S
Cu637  O642    1.959   .     S
Cu637  Cu638   2.708   .     S
Cu637  O648    1.959   .     S
Cu638  O643    1.956   .     S
Cu638  O649    1.970   .     S
Cu638  O645    1.959   .     S
Cu638  N641    2.035   .     S
Cu638  O647    1.959   .     S
O650   H651    0.989   .     S
O652   H653    0.990   .     S
O654   H655    0.989   .     S
O656   H657    0.989   .     S
O658   H659    0.978   .     S
N660   H662    1.046   .     S
N660   H661    1.045   .     S
O663   H664    0.979   .     S
N665   H667    1.045   .     S
N665   H666    1.042   .     S
O668   H669    0.991   .     S
O668   C1316   1.380   .     S
O670   H671    0.991   .     S
N672   H674    1.045   .     S
N672   H673    1.039   .     S
N675   H676    1.045   .     S
N675   H677    1.045   .     S
N678   H679    1.045   .     S
N678   C1319   1.434   1_554 S
H680   N526    1.043   1_655 S
O681   H682    0.993   .     S
O683   H684    0.991   .     S
C685   O718    1.299   .     A
C685   O719    1.298   .     A
C685   C701    1.444   .     S
C686   C687    1.416   .     A
C686   C4      1.423   1_556 S
C686   C28     1.414   1_556 S
C687   C691    1.418   .     A
C687   C694    1.436   .     A
C688   C692    1.403   .     A
C689   C690    1.409   .     A
C689   C4      1.415   1_556 S
C689   C24     1.416   1_556 S
C690   N741    1.435   .     S
C690   C691    1.397   .     A
C691   O757    1.376   .     S
C692   C709    1.411   .     A
C692   O746    1.385   .     S
C693   C709    1.410   .     A
C693   O726    1.381   .     S
C693   C708    1.412   .     A
C694   C710    1.421   .     A
C694   C696    1.512   .     S
C695   C701    1.402   .     A
C695   O759    1.382   .     S
C695   C925    1.409   .     S
C696   O721    1.304   .     A
C696   O720    1.325   .     A
C697   C698    1.408   .     A
C697   O728    1.382   .     S
C697   C1151   1.409   1_545 S
C698   C706    1.449   .     S
C698   C699    1.415   .     A
C699   O730    1.382   .     S
C699   C1156   1.385   1_545 S
C700   H715    1.084   .     S
C700   C701    1.394   .     A
C700   C927    1.385   .     S
C702   O732    1.379   .     S
C702   N717    1.368   .     A
C702   C779    1.429   .     S
C703   N716    1.382   .     A
C703   O734    1.372   .     S
C703   C854    1.429   1_455 S
C704   N716    1.364   .     A
C704   N736    1.430   .     S
C704   C857    1.421   1_455 S
C705   N717    1.384   .     A
C705   O739    1.370   .     S
C705   C780    1.421   .     S
C706   O722    1.298   .     A
C706   O723    1.299   .     A
C707   O725    1.308   .     A
C707   C709    1.471   .     S
C707   O724    1.299   .     A
C710   C711    1.399   .     A
C710   N748    1.429   .     S
C711   C28     1.406   1_556 S
C711   N70     1.434   1_556 S
C712   N751    1.437   .     S
Cu713  O720    1.970   .     S
Cu713  N716    2.035   .     S
Cu713  O722    1.956   .     S
Cu713  O718    1.959   .     S
Cu713  Cu714   2.708   .     S
Cu713  O724    1.959   .     S
Cu714  O719    1.956   .     S
Cu714  O725    1.970   .     S
Cu714  O721    1.959   .     S
Cu714  N717    2.035   .     S
Cu714  O723    1.959   .     S
O726   H727    0.989   .     S
O728   H729    0.990   .     S
O730   H731    0.989   .     S
O732   H733    0.989   .     S
O734   H735    0.978   .     S
N736   H738    1.046   .     S
N736   H737    1.045   .     S
O739   H740    0.979   .     S
N741   H743    1.045   .     S
N741   H742    1.042   .     S
O744   H745    0.991   .     S
O744   C24     1.380   1_556 S
O746   H747    0.991   .     S
N748   H750    1.045   .     S
N748   H749    1.039   .     S
N751   H752    1.045   .     S
N751   H753    1.045   .     S
N754   H755    1.045   .     S
N754   H908    1.043   1_455 S
H756   N830    1.043   .     S
O757   H758    0.993   .     S
O759   H760    0.991   .     S
C761   O794    1.299   .     A
C761   O795    1.298   .     A
C761   C777    1.444   .     S
C762   C763    1.416   .     A
C762   C80     1.423   1_556 S
C762   C104    1.414   1_556 S
C763   C767    1.418   .     A
C763   C770    1.436   .     A
C764   C768    1.403   .     A
C765   C766    1.409   .     A
C765   C80     1.415   1_556 S
C765   C100    1.416   1_556 S
C766   N817    1.435   .     S
C766   C767    1.397   .     A
C767   O833    1.376   .     S
C768   C785    1.411   .     A
C768   O822    1.385   .     S
C769   C785    1.410   .     A
C769   O802    1.381   .     S
C769   C784    1.412   .     A
C770   C786    1.421   .     A
C770   C772    1.512   .     S
C771   C777    1.402   .     A
C771   O835    1.382   .     S
C771   C1001   1.409   .     S
C772   O797    1.304   .     A
C772   O796    1.325   .     A
C773   C774    1.408   .     A
C773   O804    1.382   .     S
C773   C1227   1.409   1_545 S
C774   C782    1.449   .     S
C774   C775    1.415   .     A
C775   O806    1.382   .     S
C775   C1232   1.385   1_545 S
C776   H791    1.084   .     S
C776   C777    1.394   .     A
C776   C1003   1.385   .     S
C778   O808    1.379   .     S
C778   N793    1.368   .     A
C778   C855    1.429   .     S
C779   N792    1.382   .     A
C779   O810    1.372   .     S
C780   N792    1.364   .     A
C780   N812    1.430   .     S
C781   N793    1.384   .     A
C781   O815    1.370   .     S
C781   C856    1.421   .     S
C782   O798    1.298   .     A
C782   O799    1.299   .     A
C783   O801    1.308   .     A
C783   C785    1.471   .     S
C783   O800    1.299   .     A
C786   C787    1.399   .     A
C786   N824    1.429   .     S
C787   C104    1.406   1_556 S
C787   N146    1.434   1_556 S
C788   N827    1.437   .     S
Cu789  O796    1.970   .     S
Cu789  N792    2.035   .     S
Cu789  O798    1.956   .     S
Cu789  O794    1.959   .     S
Cu789  Cu790   2.708   .     S
Cu789  O800    1.959   .     S
Cu790  O795    1.956   .     S
Cu790  O801    1.970   .     S
Cu790  O797    1.959   .     S
Cu790  N793    2.035   .     S
Cu790  O799    1.959   .     S
O802   H803    0.989   .     S
O804   H805    0.990   .     S
O806   H807    0.989   .     S
O808   H809    0.989   .     S
O810   H811    0.978   .     S
N812   H814    1.046   .     S
N812   H813    1.045   .     S
O815   H816    0.979   .     S
N817   H819    1.045   .     S
N817   H818    1.042   .     S
O820   H821    0.991   .     S
O820   C100    1.380   1_556 S
O822   H823    0.991   .     S
N824   H826    1.045   .     S
N824   H825    1.039   .     S
N827   H828    1.045   .     S
N827   H829    1.045   .     S
N830   H831    1.045   .     S
H832   N906    1.043   .     S
O833   H834    0.993   .     S
O835   H836    0.991   .     S
C837   O870    1.299   .     A
C837   O871    1.298   .     A
C837   C853    1.444   .     S
C838   C839    1.416   .     A
C838   C156    1.423   1_556 S
C838   C180    1.414   1_556 S
C839   C843    1.418   .     A
C839   C846    1.436   .     A
C840   C844    1.403   .     A
C841   C842    1.409   .     A
C841   C156    1.415   1_556 S
C841   C176    1.416   1_556 S
C842   N893    1.435   .     S
C842   C843    1.397   .     A
C843   O909    1.376   .     S
C844   C861    1.411   .     A
C844   O898    1.385   .     S
C845   C861    1.410   .     A
C845   O878    1.381   .     S
C845   C860    1.412   .     A
C846   C862    1.421   .     A
C846   C848    1.512   .     S
C847   C853    1.402   .     A
C847   O911    1.382   .     S
C847   C1077   1.409   .     S
C848   O873    1.304   .     A
C848   O872    1.325   .     A
C849   C850    1.408   .     A
C849   O880    1.382   .     S
C849   C1303   1.409   1_545 S
C850   C858    1.449   .     S
C850   C851    1.415   .     A
C851   O882    1.382   .     S
C851   C1308   1.385   1_545 S
C852   H867    1.084   .     S
C852   C853    1.394   .     A
C852   C1079   1.385   .     S
C854   O884    1.379   .     S
C854   N869    1.368   .     A
C854   C703    1.429   1_655 S
C855   N868    1.382   .     A
C855   O886    1.372   .     S
C856   N868    1.364   .     A
C856   N888    1.430   .     S
C857   N869    1.384   .     A
C857   O891    1.370   .     S
C857   C704    1.421   1_655 S
C858   O874    1.298   .     A
C858   O875    1.299   .     A
C859   O877    1.308   .     A
C859   C861    1.471   .     S
C859   O876    1.299   .     A
C862   C863    1.399   .     A
C862   N900    1.429   .     S
C863   C180    1.406   1_556 S
C863   N222    1.434   1_556 S
C864   N903    1.437   .     S
Cu865  O872    1.970   .     S
Cu865  N868    2.035   .     S
Cu865  O874    1.956   .     S
Cu865  O870    1.959   .     S
Cu865  Cu866   2.708   .     S
Cu865  O876    1.959   .     S
Cu866  O871    1.956   .     S
Cu866  O877    1.970   .     S
Cu866  O873    1.959   .     S
Cu866  N869    2.035   .     S
Cu866  O875    1.959   .     S
O878   H879    0.989   .     S
O880   H881    0.990   .     S
O882   H883    0.989   .     S
O884   H885    0.989   .     S
O886   H887    0.978   .     S
N888   H890    1.046   .     S
N888   H889    1.045   .     S
O891   H892    0.979   .     S
N893   H895    1.045   .     S
N893   H894    1.042   .     S
O896   H897    0.991   .     S
O896   C176    1.380   1_556 S
O898   H899    0.991   .     S
N900   H902    1.045   .     S
N900   H901    1.039   .     S
N903   H904    1.045   .     S
N903   H905    1.045   .     S
N906   H907    1.045   .     S
H908   N754    1.043   1_655 S
O909   H910    0.993   .     S
O911   H912    0.991   .     S
C913   O946    1.299   .     A
C913   O947    1.298   .     A
C913   C929    1.444   .     S
C914   C915    1.416   .     A
C914   C232    1.423   1_556 S
C914   C256    1.414   1_556 S
C915   C919    1.418   .     A
C915   C922    1.436   .     A
C916   C920    1.403   .     A
C917   C918    1.409   .     A
C917   C232    1.415   1_556 S
C917   C252    1.416   1_556 S
C918   N969    1.435   .     S
C918   C919    1.397   .     A
C919   O985    1.376   .     S
C920   C937    1.411   .     A
C920   O974    1.385   .     S
C921   C937    1.410   .     A
C921   O954    1.381   .     S
C921   C936    1.412   .     A
C922   C938    1.421   .     A
C922   C924    1.512   .     S
C923   C929    1.402   .     A
C923   O987    1.382   .     S
C923   C1153   1.409   .     S
C924   O949    1.304   .     A
C924   O948    1.325   .     A
C925   C926    1.408   .     A
C925   O956    1.382   .     S
C926   C934    1.449   .     S
C926   C927    1.415   .     A
C927   O958    1.382   .     S
C928   H943    1.084   .     S
C928   C929    1.394   .     A
C928   C1155   1.385   .     S
C930   O960    1.379   .     S
C930   N945    1.368   .     A
C930   C1007   1.429   .     S
C931   N944    1.382   .     A
C931   O962    1.372   .     S
C931   C1082   1.429   1_455 S
C932   N944    1.364   .     A
C932   N964    1.430   .     S
C932   C1085   1.421   1_455 S
C933   N945    1.384   .     A
C933   O967    1.370   .     S
C933   C1008   1.421   .     S
C934   O950    1.298   .     A
C934   O951    1.299   .     A
C935   O953    1.308   .     A
C935   C937    1.471   .     S
C935   O952    1.299   .     A
C938   C939    1.399   .     A
C938   N976    1.429   .     S
C939   C256    1.406   1_556 S
C939   N298    1.434   1_556 S
C940   N979    1.437   .     S
Cu941  O948    1.970   .     S
Cu941  N944    2.035   .     S
Cu941  O950    1.956   .     S
Cu941  O946    1.959   .     S
Cu941  Cu942   2.708   .     S
Cu941  O952    1.959   .     S
Cu942  O947    1.956   .     S
Cu942  O953    1.970   .     S
Cu942  O949    1.959   .     S
Cu942  N945    2.035   .     S
Cu942  O951    1.959   .     S
O954   H955    0.989   .     S
O956   H957    0.990   .     S
O958   H959    0.989   .     S
O960   H961    0.989   .     S
O962   H963    0.978   .     S
N964   H966    1.046   .     S
N964   H965    1.045   .     S
O967   H968    0.979   .     S
N969   H971    1.045   .     S
N969   H970    1.042   .     S
O972   H973    0.991   .     S
O972   C252    1.380   1_556 S
O974   H975    0.991   .     S
N976   H978    1.045   .     S
N976   H977    1.039   .     S
N979   H980    1.045   .     S
N979   H981    1.045   .     S
N982   H983    1.045   .     S
N982   H1136   1.043   1_455 S
H984   N1058   1.043   .     S
O985   H986    0.993   .     S
O987   H988    0.991   .     S
C989   O1022   1.299   .     A
C989   O1023   1.298   .     A
C989   C1005   1.444   .     S
C990   C991    1.416   .     A
C990   C308    1.423   1_556 S
C990   C332    1.414   1_556 S
C991   C995    1.418   .     A
C991   C998    1.436   .     A
C992   C996    1.403   .     A
C993   C994    1.409   .     A
C993   C308    1.415   1_556 S
C993   C328    1.416   1_556 S
C994   N1045   1.435   .     S
C994   C995    1.397   .     A
C995   O1061   1.376   .     S
C996   C1013   1.411   .     A
C996   O1050   1.385   .     S
C997   C1013   1.410   .     A
C997   O1030   1.381   .     S
C997   C1012   1.412   .     A
C998   C1014   1.421   .     A
C998   C1000   1.512   .     S
C999   C1005   1.402   .     A
C999   O1063   1.382   .     S
C999   C1229   1.409   .     S
C1000  O1025   1.304   .     A
C1000  O1024   1.325   .     A
C1001  C1002   1.408   .     A
C1001  O1032   1.382   .     S
C1002  C1010   1.449   .     S
C1002  C1003   1.415   .     A
C1003  O1034   1.382   .     S
C1004  H1019   1.084   .     S
C1004  C1005   1.394   .     A
C1004  C1231   1.385   .     S
C1006  O1036   1.379   .     S
C1006  N1021   1.368   .     A
C1006  C1083   1.429   .     S
C1007  N1020   1.382   .     A
C1007  O1038   1.372   .     S
C1008  N1020   1.364   .     A
C1008  N1040   1.430   .     S
C1009  N1021   1.384   .     A
C1009  O1043   1.370   .     S
C1009  C1084   1.421   .     S
C1010  O1026   1.298   .     A
C1010  O1027   1.299   .     A
C1011  O1029   1.308   .     A
C1011  C1013   1.471   .     S
C1011  O1028   1.299   .     A
C1014  C1015   1.399   .     A
C1014  N1052   1.429   .     S
C1015  C332    1.406   1_556 S
C1015  N374    1.434   1_556 S
C1016  N1055   1.437   .     S
Cu1017 O1024   1.970   .     S
Cu1017 N1020   2.035   .     S
Cu1017 O1026   1.956   .     S
Cu1017 O1022   1.959   .     S
Cu1017 Cu1018  2.708   .     S
Cu1017 O1028   1.959   .     S
Cu1018 O1023   1.956   .     S
Cu1018 O1029   1.970   .     S
Cu1018 O1025   1.959   .     S
Cu1018 N1021   2.035   .     S
Cu1018 O1027   1.959   .     S
O1030  H1031   0.989   .     S
O1032  H1033   0.990   .     S
O1034  H1035   0.989   .     S
O1036  H1037   0.989   .     S
O1038  H1039   0.978   .     S
N1040  H1042   1.046   .     S
N1040  H1041   1.045   .     S
O1043  H1044   0.979   .     S
N1045  H1047   1.045   .     S
N1045  H1046   1.042   .     S
O1048  H1049   0.991   .     S
O1048  C328    1.380   1_556 S
O1050  H1051   0.991   .     S
N1052  H1054   1.045   .     S
N1052  H1053   1.039   .     S
N1055  H1056   1.045   .     S
N1055  H1057   1.045   .     S
N1058  H1059   1.045   .     S
H1060  N1134   1.043   .     S
O1061  H1062   0.993   .     S
O1063  H1064   0.991   .     S
C1065  O1098   1.299   .     A
C1065  O1099   1.298   .     A
C1065  C1081   1.444   .     S
C1066  C1067   1.416   .     A
C1066  C384    1.423   1_556 S
C1066  C408    1.414   1_556 S
C1067  C1071   1.418   .     A
C1067  C1074   1.436   .     A
C1068  C1072   1.403   .     A
C1069  C1070   1.409   .     A
C1069  C384    1.415   1_556 S
C1069  C404    1.416   1_556 S
C1070  N1121   1.435   .     S
C1070  C1071   1.397   .     A
C1071  O1137   1.376   .     S
C1072  C1089   1.411   .     A
C1072  O1126   1.385   .     S
C1073  C1089   1.410   .     A
C1073  O1106   1.381   .     S
C1073  C1088   1.412   .     A
C1074  C1090   1.421   .     A
C1074  C1076   1.512   .     S
C1075  C1081   1.402   .     A
C1075  O1139   1.382   .     S
C1075  C1305   1.409   .     S
C1076  O1101   1.304   .     A
C1076  O1100   1.325   .     A
C1077  C1078   1.408   .     A
C1077  O1108   1.382   .     S
C1078  C1086   1.449   .     S
C1078  C1079   1.415   .     A
C1079  O1110   1.382   .     S
C1080  H1095   1.084   .     S
C1080  C1081   1.394   .     A
C1080  C1307   1.385   .     S
C1082  O1112   1.379   .     S
C1082  N1097   1.368   .     A
C1082  C931    1.429   1_655 S
C1083  N1096   1.382   .     A
C1083  O1114   1.372   .     S
C1084  N1096   1.364   .     A
C1084  N1116   1.430   .     S
C1085  N1097   1.384   .     A
C1085  O1119   1.370   .     S
C1085  C932    1.421   1_655 S
C1086  O1102   1.298   .     A
C1086  O1103   1.299   .     A
C1087  O1105   1.308   .     A
C1087  C1089   1.471   .     S
C1087  O1104   1.299   .     A
C1090  C1091   1.399   .     A
C1090  N1128   1.429   .     S
C1091  C408    1.406   1_556 S
C1091  N450    1.434   1_556 S
C1092  N1131   1.437   .     S
Cu1093 O1100   1.970   .     S
Cu1093 N1096   2.035   .     S
Cu1093 O1102   1.956   .     S
Cu1093 O1098   1.959   .     S
Cu1093 Cu1094  2.708   .     S
Cu1093 O1104   1.959   .     S
Cu1094 O1099   1.956   .     S
Cu1094 O1105   1.970   .     S
Cu1094 O1101   1.959   .     S
Cu1094 N1097   2.035   .     S
Cu1094 O1103   1.959   .     S
O1106  H1107   0.989   .     S
O1108  H1109   0.990   .     S
O1110  H1111   0.989   .     S
O1112  H1113   0.989   .     S
O1114  H1115   0.978   .     S
N1116  H1118   1.046   .     S
N1116  H1117   1.045   .     S
O1119  H1120   0.979   .     S
N1121  H1123   1.045   .     S
N1121  H1122   1.042   .     S
O1124  H1125   0.991   .     S
O1124  C404    1.380   1_556 S
O1126  H1127   0.991   .     S
N1128  H1130   1.045   .     S
N1128  H1129   1.039   .     S
N1131  H1132   1.045   .     S
N1131  H1133   1.045   .     S
N1134  H1135   1.045   .     S
H1136  N982    1.043   1_655 S
O1137  H1138   0.993   .     S
O1139  H1140   0.991   .     S
C1141  O1174   1.299   .     A
C1141  O1175   1.298   .     A
C1141  C1157   1.444   .     S
C1142  C1143   1.416   .     A
C1142  C460    1.423   1_556 S
C1142  C484    1.414   1_556 S
C1143  C1147   1.418   .     A
C1143  C1150   1.436   .     A
C1144  C1148   1.403   .     A
C1145  C1146   1.409   .     A
C1145  C460    1.415   1_556 S
C1145  C480    1.416   1_556 S
C1146  N1197   1.435   .     S
C1146  C1147   1.397   .     A
C1147  O1213   1.376   .     S
C1148  C1165   1.411   .     A
C1148  O1202   1.385   .     S
C1149  C1165   1.410   .     A
C1149  O1182   1.381   .     S
C1149  C1164   1.412   .     A
C1150  C1166   1.421   .     A
C1150  C1152   1.512   .     S
C1151  C1157   1.402   .     A
C1151  O1215   1.382   .     S
C1151  C697    1.409   1_565 S
C1152  O1177   1.304   .     A
C1152  O1176   1.325   .     A
C1153  C1154   1.408   .     A
C1153  O1184   1.382   .     S
C1154  C1162   1.449   .     S
C1154  C1155   1.415   .     A
C1155  O1186   1.382   .     S
C1156  H1171   1.084   .     S
C1156  C1157   1.394   .     A
C1156  C699    1.385   1_565 S
C1158  O1188   1.379   .     S
C1158  N1173   1.368   .     A
C1158  C1235   1.429   .     S
C1159  N1172   1.382   .     A
C1159  O1190   1.372   .     S
C1159  C1310   1.429   1_455 S
C1160  N1172   1.364   .     A
C1160  N1192   1.430   .     S
C1160  C1313   1.421   1_455 S
C1161  N1173   1.384   .     A
C1161  O1195   1.370   .     S
C1161  C1236   1.421   .     S
C1162  O1178   1.298   .     A
C1162  O1179   1.299   .     A
C1163  O1181   1.308   .     A
C1163  C1165   1.471   .     S
C1163  O1180   1.299   .     A
C1166  C1167   1.399   .     A
C1166  N1204   1.429   .     S
C1167  C484    1.406   1_556 S
C1167  N526    1.434   1_556 S
C1168  N1207   1.437   .     S
Cu1169 O1176   1.970   .     S
Cu1169 N1172   2.035   .     S
Cu1169 O1178   1.956   .     S
Cu1169 O1174   1.959   .     S
Cu1169 Cu1170  2.708   .     S
Cu1169 O1180   1.959   .     S
Cu1170 O1175   1.956   .     S
Cu1170 O1181   1.970   .     S
Cu1170 O1177   1.959   .     S
Cu1170 N1173   2.035   .     S
Cu1170 O1179   1.959   .     S
O1182  H1183   0.989   .     S
O1184  H1185   0.990   .     S
O1186  H1187   0.989   .     S
O1188  H1189   0.989   .     S
O1190  H1191   0.978   .     S
N1192  H1194   1.046   .     S
N1192  H1193   1.045   .     S
O1195  H1196   0.979   .     S
N1197  H1199   1.045   .     S
N1197  H1198   1.042   .     S
O1200  H1201   0.991   .     S
O1200  C480    1.380   1_556 S
O1202  H1203   0.991   .     S
N1204  H1206   1.045   .     S
N1204  H1205   1.039   .     S
N1207  H1208   1.045   .     S
N1207  H1209   1.045   .     S
N1210  H1211   1.045   .     S
N1210  H1364   1.043   1_455 S
H1212  N1286   1.043   .     S
O1213  H1214   0.993   .     S
O1215  H1216   0.991   .     S
C1217  O1250   1.299   .     A
C1217  O1251   1.298   .     A
C1217  C1233   1.444   .     S
C1218  C1219   1.416   .     A
C1218  C536    1.423   1_556 S
C1218  C560    1.414   1_556 S
C1219  C1223   1.418   .     A
C1219  C1226   1.436   .     A
C1220  C1224   1.403   .     A
C1221  C1222   1.409   .     A
C1221  C536    1.415   1_556 S
C1221  C556    1.416   1_556 S
C1222  N1273   1.435   .     S
C1222  C1223   1.397   .     A
C1223  O1289   1.376   .     S
C1224  C1241   1.411   .     A
C1224  O1278   1.385   .     S
C1225  C1241   1.410   .     A
C1225  O1258   1.381   .     S
C1225  C1240   1.412   .     A
C1226  C1242   1.421   .     A
C1226  C1228   1.512   .     S
C1227  C1233   1.402   .     A
C1227  O1291   1.382   .     S
C1227  C773    1.409   1_565 S
C1228  O1253   1.304   .     A
C1228  O1252   1.325   .     A
C1229  C1230   1.408   .     A
C1229  O1260   1.382   .     S
C1230  C1238   1.449   .     S
C1230  C1231   1.415   .     A
C1231  O1262   1.382   .     S
C1232  H1247   1.084   .     S
C1232  C1233   1.394   .     A
C1232  C775    1.385   1_565 S
C1234  O1264   1.379   .     S
C1234  N1249   1.368   .     A
C1234  C1311   1.429   .     S
C1235  N1248   1.382   .     A
C1235  O1266   1.372   .     S
C1236  N1248   1.364   .     A
C1236  N1268   1.430   .     S
C1237  N1249   1.384   .     A
C1237  O1271   1.370   .     S
C1237  C1312   1.421   .     S
C1238  O1254   1.298   .     A
C1238  O1255   1.299   .     A
C1239  O1257   1.308   .     A
C1239  C1241   1.471   .     S
C1239  O1256   1.299   .     A
C1242  C1243   1.399   .     A
C1242  N1280   1.429   .     S
C1243  C560    1.406   1_556 S
C1243  N602    1.434   1_556 S
C1244  N1283   1.437   .     S
Cu1245 O1252   1.970   .     S
Cu1245 N1248   2.035   .     S
Cu1245 O1254   1.956   .     S
Cu1245 O1250   1.959   .     S
Cu1245 Cu1246  2.708   .     S
Cu1245 O1256   1.959   .     S
Cu1246 O1251   1.956   .     S
Cu1246 O1257   1.970   .     S
Cu1246 O1253   1.959   .     S
Cu1246 N1249   2.035   .     S
Cu1246 O1255   1.959   .     S
O1258  H1259   0.989   .     S
O1260  H1261   0.990   .     S
O1262  H1263   0.989   .     S
O1264  H1265   0.989   .     S
O1266  H1267   0.978   .     S
N1268  H1270   1.046   .     S
N1268  H1269   1.045   .     S
O1271  H1272   0.979   .     S
N1273  H1275   1.045   .     S
N1273  H1274   1.042   .     S
O1276  H1277   0.991   .     S
O1276  C556    1.380   1_556 S
O1278  H1279   0.991   .     S
N1280  H1282   1.045   .     S
N1280  H1281   1.039   .     S
N1283  H1284   1.045   .     S
N1283  H1285   1.045   .     S
N1286  H1287   1.045   .     S
H1288  N1362   1.043   .     S
O1289  H1290   0.993   .     S
O1291  H1292   0.991   .     S
C1293  O1326   1.299   .     A
C1293  O1327   1.298   .     A
C1293  C1309   1.444   .     S
C1294  C1295   1.416   .     A
C1294  C612    1.423   1_556 S
C1294  C636    1.414   1_556 S
C1295  C1299   1.418   .     A
C1295  C1302   1.436   .     A
C1296  C1300   1.403   .     A
C1297  C1298   1.409   .     A
C1297  C612    1.415   1_556 S
C1297  C632    1.416   1_556 S
C1298  N1349   1.435   .     S
C1298  C1299   1.397   .     A
C1299  O1365   1.376   .     S
C1300  C1317   1.411   .     A
C1300  O1354   1.385   .     S
C1301  C1317   1.410   .     A
C1301  O1334   1.381   .     S
C1301  C1316   1.412   .     A
C1302  C1318   1.421   .     A
C1302  C1304   1.512   .     S
C1303  C1309   1.402   .     A
C1303  O1367   1.382   .     S
C1303  C849    1.409   1_565 S
C1304  O1329   1.304   .     A
C1304  O1328   1.325   .     A
C1305  C1306   1.408   .     A
C1305  O1336   1.382   .     S
C1306  C1314   1.449   .     S
C1306  C1307   1.415   .     A
C1307  O1338   1.382   .     S
C1308  H1323   1.084   .     S
C1308  C1309   1.394   .     A
C1308  C851    1.385   1_565 S
C1310  O1340   1.379   .     S
C1310  N1325   1.368   .     A
C1310  C1159   1.429   1_655 S
C1311  N1324   1.382   .     A
C1311  O1342   1.372   .     S
C1312  N1324   1.364   .     A
C1312  N1344   1.430   .     S
C1313  N1325   1.384   .     A
C1313  O1347   1.370   .     S
C1313  C1160   1.421   1_655 S
C1314  O1330   1.298   .     A
C1314  O1331   1.299   .     A
C1315  O1333   1.308   .     A
C1315  C1317   1.471   .     S
C1315  O1332   1.299   .     A
C1318  C1319   1.399   .     A
C1318  N1356   1.429   .     S
C1319  C636    1.406   1_556 S
C1319  N678    1.434   1_556 S
C1320  N1359   1.437   .     S
Cu1321 O1328   1.970   .     S
Cu1321 N1324   2.035   .     S
Cu1321 O1330   1.956   .     S
Cu1321 O1326   1.959   .     S
Cu1321 Cu1322  2.708   .     S
Cu1321 O1332   1.959   .     S
Cu1322 O1327   1.956   .     S
Cu1322 O1333   1.970   .     S
Cu1322 O1329   1.959   .     S
Cu1322 N1325   2.035   .     S
Cu1322 O1331   1.959   .     S
O1334  H1335   0.989   .     S
O1336  H1337   0.990   .     S
O1338  H1339   0.989   .     S
O1340  H1341   0.989   .     S
O1342  H1343   0.978   .     S
N1344  H1346   1.046   .     S
N1344  H1345   1.045   .     S
O1347  H1348   0.979   .     S
N1349  H1351   1.045   .     S
N1349  H1350   1.042   .     S
O1352  H1353   0.991   .     S
O1352  C632    1.380   1_556 S
O1354  H1355   0.991   .     S
N1356  H1358   1.045   .     S
N1356  H1357   1.039   .     S
N1359  H1360   1.045   .     S
N1359  H1361   1.045   .     S
N1362  H1363   1.045   .     S
H1364  N1210   1.043   1_655 S
O1365  H1366   0.993   .     S
O1367  H1368   0.991   .     S
