data_str_m3_o10_o16_pcu_sym.103
_audit_creation_date              2020-01-03
_audit_creation_method            'Materials Studio'
_symmetry_space_group_name_H-M    'P1'
_symmetry_Int_Tables_number       1
_symmetry_cell_setting            triclinic
loop_
_symmetry_equiv_pos_as_xyz
  x,y,z
_cell_length_a                    23.4681
_cell_length_b                    25.6091
_cell_length_c                    25.4552
_cell_angle_alpha                 91.4767
_cell_angle_beta                  103.9963
_cell_angle_gamma                 94.0553
loop_
_atom_site_label
_atom_site_type_symbol
_atom_site_fract_x
_atom_site_fract_y
_atom_site_fract_z
_atom_site_U_iso_or_equiv
_atom_site_adp_type
_atom_site_occupancy
C1     C     0.01531   0.26489   0.25021   0.00000  Uiso   1.00
C2     C     0.06336   0.18402   0.40998   0.00000  Uiso   1.00
C3     C     0.02402   0.31969   0.25354   0.00000  Uiso   1.00
C4     C     0.03750   0.16926   0.35392   0.00000  Uiso   1.00
C5     C     0.31105   0.01393   0.25342   0.00000  Uiso   1.00
C6     C     0.31879   0.06855   0.25221   0.00000  Uiso   1.00
C7     C     0.29762   0.16890   0.14676   0.00000  Uiso   1.00
C8     C     0.30142   0.16056   0.00453   0.00000  Uiso   1.00
C9     C     0.28089   0.17954   0.09008   0.00000  Uiso   1.00
C10    C     0.03944   0.22609   0.43155   0.00000  Uiso   1.00
C11    C     0.07236   0.25525   0.47650   0.00000  Uiso   1.00
C12    C     0.14974   0.19607   0.48391   0.00000  Uiso   1.00
C13    C     0.12761   0.24059   0.00213   0.00000  Uiso   1.00
C14    C     0.04623   0.25355   0.10211   0.00000  Uiso   1.00
C15    C     0.10768   0.28314   0.11641   0.00000  Uiso   1.00
C16    C     0.11878   0.31949   0.16682   0.00000  Uiso   1.00
C17    C     0.22083   0.05932   0.37240   0.00000  Uiso   1.00
C18    C     0.20359   0.01421   0.40568   0.00000  Uiso   1.00
C19    C     0.18334   0.29742   0.37040   0.00000  Uiso   1.00
C20    C     0.12023   0.16917   0.43565   0.00000  Uiso   1.00
C21    C     0.20464   0.18191   0.01025   0.00000  Uiso   1.00
C22    C     0.24011   0.15742   0.48123   0.00000  Uiso   1.00
C23    C     0.21286   0.12989   0.43217   0.00000  Uiso   1.00
C24    C     0.15075   0.13160   0.41300   0.00000  Uiso   1.00
C25    C     0.22327   0.18745   0.06601   0.00000  Uiso   1.00
C26    C     0.32222   0.18085   0.05808   0.00000  Uiso   1.00
H27    H     0.26706   0.32991   0.25230   0.00000  Uiso   1.00
H28    H     0.06811   0.00402   0.25615   0.00000  Uiso   1.00
H29    H     0.03106   0.25093   0.13988   0.00000  Uiso   1.00
H30    H     0.01558   0.27785   0.07434   0.00000  Uiso   1.00
H31    H     0.14230   0.25509   0.12309   0.00000  Uiso   1.00
H32    H     0.11156   0.30873   0.08284   0.00000  Uiso   1.00
H33    H     0.08186   0.01160   0.16413   0.00000  Uiso   1.00
H34    H     0.16003   0.01156   0.17034   0.00000  Uiso   1.00
H35    H     0.12466   0.29615   0.20351   0.00000  Uiso   1.00
H36    H     0.25371   0.04533   0.35152   0.00000  Uiso   1.00
H37    H     0.18373   0.06957   0.33912   0.00000  Uiso   1.00
H38    H     0.15649   0.12618   0.20907   0.00000  Uiso   1.00
H39    H     0.24225   0.00667   0.43885   0.00000  Uiso   1.00
H40    H     0.16747   0.02479   0.42418   0.00000  Uiso   1.00
H41    H     0.14432   0.30372   0.33719   0.00000  Uiso   1.00
H42    H     0.17114   0.26565   0.39538   0.00000  Uiso   1.00
H43    H     0.21943   0.28498   0.35279   0.00000  Uiso   1.00
H44    H     0.17676   0.20698   0.29101   0.00000  Uiso   1.00
H45    H     0.33200   0.14836   0.48197   0.00000  Uiso   1.00
H46    H     0.19216   0.19415   0.09016   0.00000  Uiso   1.00
H47    H     0.33070   0.23947   0.41088   0.00000  Uiso   1.00
H48    H     0.15582   0.26584   0.03376   0.00000  Uiso   1.00
H49    H     0.05581   0.29017   0.49017   0.00000  Uiso   1.00
H50    H     0.12685   0.10599   0.37963   0.00000  Uiso   1.00
N51    N     0.14493   0.15223   0.23542   0.00000  Uiso   1.00
N52    N     0.18840   0.18110   0.26457   0.00000  Uiso   1.00
O53    O     0.29769   0.24629   0.25357   0.00000  Uiso   1.00
O54    O     0.24881   0.10337   0.40580   0.00000  Uiso   1.00
O55    O     0.05742   0.23704   0.24423   0.00000  Uiso   1.00
O56    O     0.31490   0.17358   0.33380   0.00000  Uiso   1.00
O57    O     0.07463   0.16433   0.32446   0.00000  Uiso   1.00
O58    O     0.27592   0.09629   0.25576   0.00000  Uiso   1.00
O59    O     0.03565   0.08704   0.24642   0.00000  Uiso   1.00
O60    O     0.25870   0.16901   0.17554   0.00000  Uiso   1.00
O61    O     0.01843   0.15976   0.16620   0.00000  Uiso   1.00
O62    O     0.04676   0.20256   0.07766   0.00000  Uiso   1.00
Zn63   Zn    0.27119   0.17284   0.25623   0.00000  Uiso   1.00
Zn64   Zn    0.06214   0.16049   0.24376   0.00000  Uiso   1.00
C65    C     0.34864   0.26489   0.25021   0.00000  Uiso   1.00
C66    C     0.39669   0.18402   0.40998   0.00000  Uiso   1.00
C67    C     0.35735   0.31969   0.25354   0.00000  Uiso   1.00
C68    C     0.37084   0.16926   0.35392   0.00000  Uiso   1.00
C69    C     0.64438   0.01393   0.25342   0.00000  Uiso   1.00
C70    C     0.65212   0.06855   0.25221   0.00000  Uiso   1.00
C71    C     0.63095   0.16890   0.14676   0.00000  Uiso   1.00
C72    C     0.63476   0.16056   0.00453   0.00000  Uiso   1.00
C73    C     0.61423   0.17954   0.09008   0.00000  Uiso   1.00
C74    C     0.37277   0.22609   0.43155   0.00000  Uiso   1.00
C75    C     0.40570   0.25525   0.47650   0.00000  Uiso   1.00
C76    C     0.48307   0.19607   0.48391   0.00000  Uiso   1.00
C77    C     0.46094   0.24059   0.00213   0.00000  Uiso   1.00
C78    C     0.37956   0.25355   0.10211   0.00000  Uiso   1.00
C79    C     0.44101   0.28314   0.11641   0.00000  Uiso   1.00
C80    C     0.45212   0.31949   0.16682   0.00000  Uiso   1.00
C81    C     0.55416   0.05932   0.37240   0.00000  Uiso   1.00
C82    C     0.53693   0.01421   0.40568   0.00000  Uiso   1.00
C83    C     0.51668   0.29742   0.37040   0.00000  Uiso   1.00
C84    C     0.45357   0.16917   0.43565   0.00000  Uiso   1.00
C85    C     0.53798   0.18191   0.01025   0.00000  Uiso   1.00
C86    C     0.57344   0.15742   0.48123   0.00000  Uiso   1.00
C87    C     0.54619   0.12989   0.43217   0.00000  Uiso   1.00
C88    C     0.48408   0.13160   0.41300   0.00000  Uiso   1.00
C89    C     0.55661   0.18745   0.06601   0.00000  Uiso   1.00
C90    C     0.65555   0.18085   0.05808   0.00000  Uiso   1.00
H91    H     0.60040   0.32991   0.25230   0.00000  Uiso   1.00
H92    H     0.40144   0.00402   0.25615   0.00000  Uiso   1.00
H93    H     0.36440   0.25093   0.13988   0.00000  Uiso   1.00
H94    H     0.34891   0.27785   0.07434   0.00000  Uiso   1.00
H95    H     0.47564   0.25509   0.12309   0.00000  Uiso   1.00
H96    H     0.44489   0.30873   0.08284   0.00000  Uiso   1.00
H97    H     0.41519   0.01160   0.16413   0.00000  Uiso   1.00
H98    H     0.49337   0.01156   0.17034   0.00000  Uiso   1.00
H99    H     0.45799   0.29615   0.20351   0.00000  Uiso   1.00
H100   H     0.58705   0.04533   0.35152   0.00000  Uiso   1.00
H101   H     0.51706   0.06957   0.33912   0.00000  Uiso   1.00
H102   H     0.48983   0.12618   0.20907   0.00000  Uiso   1.00
H103   H     0.57558   0.00667   0.43885   0.00000  Uiso   1.00
H104   H     0.50081   0.02479   0.42418   0.00000  Uiso   1.00
H105   H     0.47766   0.30372   0.33719   0.00000  Uiso   1.00
H106   H     0.50448   0.26565   0.39538   0.00000  Uiso   1.00
H107   H     0.55277   0.28498   0.35279   0.00000  Uiso   1.00
H108   H     0.51010   0.20698   0.29101   0.00000  Uiso   1.00
H109   H     0.66533   0.14836   0.48197   0.00000  Uiso   1.00
H110   H     0.52549   0.19415   0.09016   0.00000  Uiso   1.00
H111   H     0.66403   0.23947   0.41088   0.00000  Uiso   1.00
H112   H     0.48915   0.26584   0.03376   0.00000  Uiso   1.00
H113   H     0.38915   0.29017   0.49017   0.00000  Uiso   1.00
H114   H     0.46018   0.10599   0.37963   0.00000  Uiso   1.00
N115   N     0.47827   0.15223   0.23542   0.00000  Uiso   1.00
N116   N     0.52173   0.18110   0.26457   0.00000  Uiso   1.00
O117   O     0.63102   0.24629   0.25357   0.00000  Uiso   1.00
O118   O     0.58214   0.10337   0.40580   0.00000  Uiso   1.00
O119   O     0.39075   0.23704   0.24423   0.00000  Uiso   1.00
O120   O     0.64823   0.17358   0.33380   0.00000  Uiso   1.00
O121   O     0.40796   0.16433   0.32446   0.00000  Uiso   1.00
O122   O     0.60925   0.09629   0.25576   0.00000  Uiso   1.00
O123   O     0.36898   0.08704   0.24642   0.00000  Uiso   1.00
O124   O     0.59204   0.16901   0.17554   0.00000  Uiso   1.00
O125   O     0.35177   0.15976   0.16620   0.00000  Uiso   1.00
O126   O     0.38009   0.20256   0.07766   0.00000  Uiso   1.00
Zn127  Zn    0.60453   0.17284   0.25623   0.00000  Uiso   1.00
Zn128  Zn    0.39547   0.16049   0.24376   0.00000  Uiso   1.00
C129   C     0.68198   0.26489   0.25021   0.00000  Uiso   1.00
C130   C     0.73002   0.18402   0.40998   0.00000  Uiso   1.00
C131   C     0.69069   0.31969   0.25354   0.00000  Uiso   1.00
C132   C     0.70417   0.16926   0.35392   0.00000  Uiso   1.00
C133   C     0.97772   0.01393   0.25342   0.00000  Uiso   1.00
C134   C     0.98545   0.06855   0.25221   0.00000  Uiso   1.00
C135   C     0.96428   0.16890   0.14676   0.00000  Uiso   1.00
C136   C     0.96809   0.16056   0.00453   0.00000  Uiso   1.00
C137   C     0.94756   0.17954   0.09008   0.00000  Uiso   1.00
C138   C     0.70610   0.22609   0.43155   0.00000  Uiso   1.00
C139   C     0.73903   0.25525   0.47650   0.00000  Uiso   1.00
C140   C     0.81641   0.19607   0.48391   0.00000  Uiso   1.00
C141   C     0.79428   0.24059   0.00213   0.00000  Uiso   1.00
C142   C     0.71289   0.25355   0.10211   0.00000  Uiso   1.00
C143   C     0.77435   0.28314   0.11641   0.00000  Uiso   1.00
C144   C     0.78545   0.31949   0.16682   0.00000  Uiso   1.00
C145   C     0.88749   0.05932   0.37240   0.00000  Uiso   1.00
C146   C     0.87026   0.01421   0.40568   0.00000  Uiso   1.00
C147   C     0.85001   0.29742   0.37040   0.00000  Uiso   1.00
C148   C     0.78690   0.16917   0.43565   0.00000  Uiso   1.00
C149   C     0.87131   0.18191   0.01025   0.00000  Uiso   1.00
C150   C     0.90678   0.15742   0.48123   0.00000  Uiso   1.00
C151   C     0.87953   0.12989   0.43217   0.00000  Uiso   1.00
C152   C     0.81741   0.13160   0.41300   0.00000  Uiso   1.00
C153   C     0.88994   0.18745   0.06601   0.00000  Uiso   1.00
C154   C     0.98888   0.18085   0.05808   0.00000  Uiso   1.00
H155   H     0.93373   0.32991   0.25230   0.00000  Uiso   1.00
H156   H     0.73477   0.00402   0.25615   0.00000  Uiso   1.00
H157   H     0.69773   0.25093   0.13988   0.00000  Uiso   1.00
H158   H     0.68224   0.27785   0.07434   0.00000  Uiso   1.00
H159   H     0.80897   0.25509   0.12309   0.00000  Uiso   1.00
H160   H     0.77822   0.30873   0.08284   0.00000  Uiso   1.00
H161   H     0.74852   0.01160   0.16413   0.00000  Uiso   1.00
H162   H     0.82670   0.01156   0.17034   0.00000  Uiso   1.00
H163   H     0.79132   0.29615   0.20351   0.00000  Uiso   1.00
H164   H     0.92038   0.04533   0.35152   0.00000  Uiso   1.00
H165   H     0.85040   0.06957   0.33912   0.00000  Uiso   1.00
H166   H     0.82316   0.12618   0.20907   0.00000  Uiso   1.00
H167   H     0.90892   0.00667   0.43885   0.00000  Uiso   1.00
H168   H     0.83414   0.02479   0.42418   0.00000  Uiso   1.00
H169   H     0.81099   0.30372   0.33719   0.00000  Uiso   1.00
H170   H     0.83781   0.26565   0.39538   0.00000  Uiso   1.00
H171   H     0.88610   0.28498   0.35279   0.00000  Uiso   1.00
H172   H     0.84343   0.20698   0.29101   0.00000  Uiso   1.00
H173   H     0.99867   0.14836   0.48197   0.00000  Uiso   1.00
H174   H     0.85883   0.19415   0.09016   0.00000  Uiso   1.00
H175   H     0.99736   0.23947   0.41088   0.00000  Uiso   1.00
H176   H     0.82249   0.26584   0.03376   0.00000  Uiso   1.00
H177   H     0.72248   0.29017   0.49017   0.00000  Uiso   1.00
H178   H     0.79351   0.10599   0.37963   0.00000  Uiso   1.00
N179   N     0.81160   0.15223   0.23542   0.00000  Uiso   1.00
N180   N     0.85507   0.18110   0.26457   0.00000  Uiso   1.00
O181   O     0.96435   0.24629   0.25357   0.00000  Uiso   1.00
O182   O     0.91548   0.10337   0.40580   0.00000  Uiso   1.00
O183   O     0.72408   0.23704   0.24423   0.00000  Uiso   1.00
O184   O     0.98157   0.17358   0.33380   0.00000  Uiso   1.00
O185   O     0.74130   0.16433   0.32446   0.00000  Uiso   1.00
O186   O     0.94258   0.09629   0.25576   0.00000  Uiso   1.00
O187   O     0.70231   0.08704   0.24642   0.00000  Uiso   1.00
O188   O     0.92537   0.16901   0.17554   0.00000  Uiso   1.00
O189   O     0.68510   0.15976   0.16620   0.00000  Uiso   1.00
O190   O     0.71343   0.20256   0.07766   0.00000  Uiso   1.00
Zn191  Zn    0.93786   0.17284   0.25623   0.00000  Uiso   1.00
Zn192  Zn    0.72881   0.16049   0.24376   0.00000  Uiso   1.00
C193   C     0.01531   0.59822   0.25021   0.00000  Uiso   1.00
C194   C     0.06336   0.51735   0.40998   0.00000  Uiso   1.00
C195   C     0.02402   0.65303   0.25354   0.00000  Uiso   1.00
C196   C     0.03750   0.50260   0.35392   0.00000  Uiso   1.00
C197   C     0.31105   0.34726   0.25342   0.00000  Uiso   1.00
C198   C     0.31879   0.40188   0.25221   0.00000  Uiso   1.00
C199   C     0.29762   0.50223   0.14676   0.00000  Uiso   1.00
C200   C     0.30142   0.49389   0.00453   0.00000  Uiso   1.00
C201   C     0.28089   0.51287   0.09008   0.00000  Uiso   1.00
C202   C     0.03944   0.55942   0.43155   0.00000  Uiso   1.00
C203   C     0.07236   0.58858   0.47650   0.00000  Uiso   1.00
C204   C     0.14974   0.52941   0.48391   0.00000  Uiso   1.00
C205   C     0.12761   0.57392   0.00213   0.00000  Uiso   1.00
C206   C     0.04623   0.58688   0.10211   0.00000  Uiso   1.00
C207   C     0.10768   0.61648   0.11641   0.00000  Uiso   1.00
C208   C     0.11878   0.65282   0.16682   0.00000  Uiso   1.00
C209   C     0.22083   0.39265   0.37240   0.00000  Uiso   1.00
C210   C     0.20359   0.34754   0.40568   0.00000  Uiso   1.00
C211   C     0.18334   0.63076   0.37040   0.00000  Uiso   1.00
C212   C     0.12023   0.50251   0.43565   0.00000  Uiso   1.00
C213   C     0.20464   0.51525   0.01025   0.00000  Uiso   1.00
C214   C     0.24011   0.49075   0.48123   0.00000  Uiso   1.00
C215   C     0.21286   0.46322   0.43217   0.00000  Uiso   1.00
C216   C     0.15075   0.46493   0.41300   0.00000  Uiso   1.00
C217   C     0.22327   0.52078   0.06601   0.00000  Uiso   1.00
C218   C     0.32222   0.51419   0.05808   0.00000  Uiso   1.00
H219   H     0.26706   0.66324   0.25230   0.00000  Uiso   1.00
H220   H     0.06811   0.33736   0.25615   0.00000  Uiso   1.00
H221   H     0.03106   0.58427   0.13988   0.00000  Uiso   1.00
H222   H     0.01558   0.61119   0.07434   0.00000  Uiso   1.00
H223   H     0.14230   0.58842   0.12309   0.00000  Uiso   1.00
H224   H     0.11156   0.64206   0.08284   0.00000  Uiso   1.00
H225   H     0.08186   0.34493   0.16413   0.00000  Uiso   1.00
H226   H     0.16003   0.34489   0.17034   0.00000  Uiso   1.00
H227   H     0.12466   0.62949   0.20351   0.00000  Uiso   1.00
H228   H     0.25371   0.37867   0.35152   0.00000  Uiso   1.00
H229   H     0.18373   0.40291   0.33912   0.00000  Uiso   1.00
H230   H     0.15649   0.45951   0.20907   0.00000  Uiso   1.00
H231   H     0.24225   0.34000   0.43885   0.00000  Uiso   1.00
H232   H     0.16747   0.35812   0.42418   0.00000  Uiso   1.00
H233   H     0.14432   0.63705   0.33719   0.00000  Uiso   1.00
H234   H     0.17114   0.59898   0.39538   0.00000  Uiso   1.00
H235   H     0.21943   0.61831   0.35279   0.00000  Uiso   1.00
H236   H     0.17676   0.54032   0.29101   0.00000  Uiso   1.00
H237   H     0.33200   0.48169   0.48197   0.00000  Uiso   1.00
H238   H     0.19216   0.52748   0.09016   0.00000  Uiso   1.00
H239   H     0.33070   0.57281   0.41088   0.00000  Uiso   1.00
H240   H     0.15582   0.59917   0.03376   0.00000  Uiso   1.00
H241   H     0.05581   0.62350   0.49017   0.00000  Uiso   1.00
H242   H     0.12685   0.43932   0.37963   0.00000  Uiso   1.00
N243   N     0.14493   0.48556   0.23542   0.00000  Uiso   1.00
N244   N     0.18840   0.51444   0.26457   0.00000  Uiso   1.00
O245   O     0.29769   0.57963   0.25357   0.00000  Uiso   1.00
O246   O     0.24881   0.43670   0.40580   0.00000  Uiso   1.00
O247   O     0.05742   0.57038   0.24423   0.00000  Uiso   1.00
O248   O     0.31490   0.50691   0.33380   0.00000  Uiso   1.00
O249   O     0.07463   0.49766   0.32446   0.00000  Uiso   1.00
O250   O     0.27592   0.42962   0.25576   0.00000  Uiso   1.00
O251   O     0.03565   0.42037   0.24642   0.00000  Uiso   1.00
O252   O     0.25870   0.50234   0.17554   0.00000  Uiso   1.00
O253   O     0.01843   0.49309   0.16620   0.00000  Uiso   1.00
O254   O     0.04676   0.53590   0.07766   0.00000  Uiso   1.00
Zn255  Zn    0.27119   0.50618   0.25623   0.00000  Uiso   1.00
Zn256  Zn    0.06214   0.49382   0.24376   0.00000  Uiso   1.00
C257   C     0.34864   0.59822   0.25021   0.00000  Uiso   1.00
C258   C     0.39669   0.51735   0.40998   0.00000  Uiso   1.00
C259   C     0.35735   0.65303   0.25354   0.00000  Uiso   1.00
C260   C     0.37084   0.50260   0.35392   0.00000  Uiso   1.00
C261   C     0.64438   0.34726   0.25342   0.00000  Uiso   1.00
C262   C     0.65212   0.40188   0.25221   0.00000  Uiso   1.00
C263   C     0.63095   0.50223   0.14676   0.00000  Uiso   1.00
C264   C     0.63476   0.49389   0.00453   0.00000  Uiso   1.00
C265   C     0.61423   0.51287   0.09008   0.00000  Uiso   1.00
C266   C     0.37277   0.55942   0.43155   0.00000  Uiso   1.00
C267   C     0.40570   0.58858   0.47650   0.00000  Uiso   1.00
C268   C     0.48307   0.52941   0.48391   0.00000  Uiso   1.00
C269   C     0.46094   0.57392   0.00213   0.00000  Uiso   1.00
C270   C     0.37956   0.58688   0.10211   0.00000  Uiso   1.00
C271   C     0.44101   0.61648   0.11641   0.00000  Uiso   1.00
C272   C     0.45212   0.65282   0.16682   0.00000  Uiso   1.00
C273   C     0.55416   0.39265   0.37240   0.00000  Uiso   1.00
C274   C     0.53693   0.34754   0.40568   0.00000  Uiso   1.00
C275   C     0.51668   0.63076   0.37040   0.00000  Uiso   1.00
C276   C     0.45357   0.50251   0.43565   0.00000  Uiso   1.00
C277   C     0.53798   0.51525   0.01025   0.00000  Uiso   1.00
C278   C     0.57344   0.49075   0.48123   0.00000  Uiso   1.00
C279   C     0.54619   0.46322   0.43217   0.00000  Uiso   1.00
C280   C     0.48408   0.46493   0.41300   0.00000  Uiso   1.00
C281   C     0.55661   0.52078   0.06601   0.00000  Uiso   1.00
C282   C     0.65555   0.51419   0.05808   0.00000  Uiso   1.00
H283   H     0.60040   0.66324   0.25230   0.00000  Uiso   1.00
H284   H     0.40144   0.33736   0.25615   0.00000  Uiso   1.00
H285   H     0.36440   0.58427   0.13988   0.00000  Uiso   1.00
H286   H     0.34891   0.61119   0.07434   0.00000  Uiso   1.00
H287   H     0.47564   0.58842   0.12309   0.00000  Uiso   1.00
H288   H     0.44489   0.64206   0.08284   0.00000  Uiso   1.00
H289   H     0.41519   0.34493   0.16413   0.00000  Uiso   1.00
H290   H     0.49337   0.34489   0.17034   0.00000  Uiso   1.00
H291   H     0.45799   0.62949   0.20351   0.00000  Uiso   1.00
H292   H     0.58705   0.37867   0.35152   0.00000  Uiso   1.00
H293   H     0.51706   0.40291   0.33912   0.00000  Uiso   1.00
H294   H     0.48983   0.45951   0.20907   0.00000  Uiso   1.00
H295   H     0.57558   0.34000   0.43885   0.00000  Uiso   1.00
H296   H     0.50081   0.35812   0.42418   0.00000  Uiso   1.00
H297   H     0.47766   0.63705   0.33719   0.00000  Uiso   1.00
H298   H     0.50448   0.59898   0.39538   0.00000  Uiso   1.00
H299   H     0.55277   0.61831   0.35279   0.00000  Uiso   1.00
H300   H     0.51010   0.54032   0.29101   0.00000  Uiso   1.00
H301   H     0.66533   0.48169   0.48197   0.00000  Uiso   1.00
H302   H     0.52549   0.52748   0.09016   0.00000  Uiso   1.00
H303   H     0.66403   0.57281   0.41088   0.00000  Uiso   1.00
H304   H     0.48915   0.59917   0.03376   0.00000  Uiso   1.00
H305   H     0.38915   0.62350   0.49017   0.00000  Uiso   1.00
H306   H     0.46018   0.43932   0.37963   0.00000  Uiso   1.00
N307   N     0.47827   0.48556   0.23542   0.00000  Uiso   1.00
N308   N     0.52173   0.51444   0.26457   0.00000  Uiso   1.00
O309   O     0.63102   0.57963   0.25357   0.00000  Uiso   1.00
O310   O     0.58214   0.43670   0.40580   0.00000  Uiso   1.00
O311   O     0.39075   0.57038   0.24423   0.00000  Uiso   1.00
O312   O     0.64823   0.50691   0.33380   0.00000  Uiso   1.00
O313   O     0.40796   0.49766   0.32446   0.00000  Uiso   1.00
O314   O     0.60925   0.42962   0.25576   0.00000  Uiso   1.00
O315   O     0.36898   0.42037   0.24642   0.00000  Uiso   1.00
O316   O     0.59204   0.50234   0.17554   0.00000  Uiso   1.00
O317   O     0.35177   0.49309   0.16620   0.00000  Uiso   1.00
O318   O     0.38009   0.53590   0.07766   0.00000  Uiso   1.00
Zn319  Zn    0.60453   0.50618   0.25623   0.00000  Uiso   1.00
Zn320  Zn    0.39547   0.49382   0.24376   0.00000  Uiso   1.00
C321   C     0.68198   0.59822   0.25021   0.00000  Uiso   1.00
C322   C     0.73002   0.51735   0.40998   0.00000  Uiso   1.00
C323   C     0.69069   0.65303   0.25354   0.00000  Uiso   1.00
C324   C     0.70417   0.50260   0.35392   0.00000  Uiso   1.00
C325   C     0.97772   0.34726   0.25342   0.00000  Uiso   1.00
C326   C     0.98545   0.40188   0.25221   0.00000  Uiso   1.00
C327   C     0.96428   0.50223   0.14676   0.00000  Uiso   1.00
C328   C     0.96809   0.49389   0.00453   0.00000  Uiso   1.00
C329   C     0.94756   0.51287   0.09008   0.00000  Uiso   1.00
C330   C     0.70610   0.55942   0.43155   0.00000  Uiso   1.00
C331   C     0.73903   0.58858   0.47650   0.00000  Uiso   1.00
C332   C     0.81641   0.52941   0.48391   0.00000  Uiso   1.00
C333   C     0.79428   0.57392   0.00213   0.00000  Uiso   1.00
C334   C     0.71289   0.58688   0.10211   0.00000  Uiso   1.00
C335   C     0.77435   0.61648   0.11641   0.00000  Uiso   1.00
C336   C     0.78545   0.65282   0.16682   0.00000  Uiso   1.00
C337   C     0.88749   0.39265   0.37240   0.00000  Uiso   1.00
C338   C     0.87026   0.34754   0.40568   0.00000  Uiso   1.00
C339   C     0.85001   0.63076   0.37040   0.00000  Uiso   1.00
C340   C     0.78690   0.50251   0.43565   0.00000  Uiso   1.00
C341   C     0.87131   0.51525   0.01025   0.00000  Uiso   1.00
C342   C     0.90678   0.49075   0.48123   0.00000  Uiso   1.00
C343   C     0.87953   0.46322   0.43217   0.00000  Uiso   1.00
C344   C     0.81741   0.46493   0.41300   0.00000  Uiso   1.00
C345   C     0.88994   0.52078   0.06601   0.00000  Uiso   1.00
C346   C     0.98888   0.51419   0.05808   0.00000  Uiso   1.00
H347   H     0.93373   0.66324   0.25230   0.00000  Uiso   1.00
H348   H     0.73477   0.33736   0.25615   0.00000  Uiso   1.00
H349   H     0.69773   0.58427   0.13988   0.00000  Uiso   1.00
H350   H     0.68224   0.61119   0.07434   0.00000  Uiso   1.00
H351   H     0.80897   0.58842   0.12309   0.00000  Uiso   1.00
H352   H     0.77822   0.64206   0.08284   0.00000  Uiso   1.00
H353   H     0.74852   0.34493   0.16413   0.00000  Uiso   1.00
H354   H     0.82670   0.34489   0.17034   0.00000  Uiso   1.00
H355   H     0.79132   0.62949   0.20351   0.00000  Uiso   1.00
H356   H     0.92038   0.37867   0.35152   0.00000  Uiso   1.00
H357   H     0.85040   0.40291   0.33912   0.00000  Uiso   1.00
H358   H     0.82316   0.45951   0.20907   0.00000  Uiso   1.00
H359   H     0.90892   0.34000   0.43885   0.00000  Uiso   1.00
H360   H     0.83414   0.35812   0.42418   0.00000  Uiso   1.00
H361   H     0.81099   0.63705   0.33719   0.00000  Uiso   1.00
H362   H     0.83781   0.59898   0.39538   0.00000  Uiso   1.00
H363   H     0.88610   0.61831   0.35279   0.00000  Uiso   1.00
H364   H     0.84343   0.54032   0.29101   0.00000  Uiso   1.00
H365   H     0.99867   0.48169   0.48197   0.00000  Uiso   1.00
H366   H     0.85883   0.52748   0.09016   0.00000  Uiso   1.00
H367   H     0.99736   0.57281   0.41088   0.00000  Uiso   1.00
H368   H     0.82249   0.59917   0.03376   0.00000  Uiso   1.00
H369   H     0.72248   0.62350   0.49017   0.00000  Uiso   1.00
H370   H     0.79351   0.43932   0.37963   0.00000  Uiso   1.00
N371   N     0.81160   0.48556   0.23542   0.00000  Uiso   1.00
N372   N     0.85507   0.51444   0.26457   0.00000  Uiso   1.00
O373   O     0.96435   0.57963   0.25357   0.00000  Uiso   1.00
O374   O     0.91548   0.43670   0.40580   0.00000  Uiso   1.00
O375   O     0.72408   0.57038   0.24423   0.00000  Uiso   1.00
O376   O     0.98157   0.50691   0.33380   0.00000  Uiso   1.00
O377   O     0.74130   0.49766   0.32446   0.00000  Uiso   1.00
O378   O     0.94258   0.42962   0.25576   0.00000  Uiso   1.00
O379   O     0.70231   0.42037   0.24642   0.00000  Uiso   1.00
O380   O     0.92537   0.50234   0.17554   0.00000  Uiso   1.00
O381   O     0.68510   0.49309   0.16620   0.00000  Uiso   1.00
O382   O     0.71343   0.53590   0.07766   0.00000  Uiso   1.00
Zn383  Zn    0.93786   0.50618   0.25623   0.00000  Uiso   1.00
Zn384  Zn    0.72881   0.49382   0.24376   0.00000  Uiso   1.00
C385   C     0.01531   0.93156   0.25021   0.00000  Uiso   1.00
C386   C     0.06336   0.85068   0.40998   0.00000  Uiso   1.00
C387   C     0.02402   0.98636   0.25354   0.00000  Uiso   1.00
C388   C     0.03750   0.83593   0.35392   0.00000  Uiso   1.00
C389   C     0.31105   0.68060   0.25342   0.00000  Uiso   1.00
C390   C     0.31879   0.73522   0.25221   0.00000  Uiso   1.00
C391   C     0.29762   0.83557   0.14676   0.00000  Uiso   1.00
C392   C     0.30142   0.82723   0.00453   0.00000  Uiso   1.00
C393   C     0.28089   0.84621   0.09008   0.00000  Uiso   1.00
C394   C     0.03944   0.89276   0.43155   0.00000  Uiso   1.00
C395   C     0.07236   0.92192   0.47650   0.00000  Uiso   1.00
C396   C     0.14974   0.86274   0.48391   0.00000  Uiso   1.00
C397   C     0.12761   0.90726   0.00213   0.00000  Uiso   1.00
C398   C     0.04623   0.92021   0.10211   0.00000  Uiso   1.00
C399   C     0.10768   0.94981   0.11641   0.00000  Uiso   1.00
C400   C     0.11878   0.98615   0.16682   0.00000  Uiso   1.00
C401   C     0.22083   0.72599   0.37240   0.00000  Uiso   1.00
C402   C     0.20359   0.68088   0.40568   0.00000  Uiso   1.00
C403   C     0.18334   0.96409   0.37040   0.00000  Uiso   1.00
C404   C     0.12023   0.83584   0.43565   0.00000  Uiso   1.00
C405   C     0.20464   0.84858   0.01025   0.00000  Uiso   1.00
C406   C     0.24011   0.82409   0.48123   0.00000  Uiso   1.00
C407   C     0.21286   0.79655   0.43217   0.00000  Uiso   1.00
C408   C     0.15075   0.79827   0.41300   0.00000  Uiso   1.00
C409   C     0.22327   0.85411   0.06601   0.00000  Uiso   1.00
C410   C     0.32222   0.84752   0.05808   0.00000  Uiso   1.00
H411   H     0.26706   0.99657   0.25230   0.00000  Uiso   1.00
H412   H     0.06811   0.67069   0.25615   0.00000  Uiso   1.00
H413   H     0.03106   0.91760   0.13988   0.00000  Uiso   1.00
H414   H     0.01558   0.94452   0.07434   0.00000  Uiso   1.00
H415   H     0.14230   0.92175   0.12309   0.00000  Uiso   1.00
H416   H     0.11156   0.97540   0.08284   0.00000  Uiso   1.00
H417   H     0.08186   0.67827   0.16413   0.00000  Uiso   1.00
H418   H     0.16003   0.67822   0.17034   0.00000  Uiso   1.00
H419   H     0.12466   0.96282   0.20351   0.00000  Uiso   1.00
H420   H     0.25371   0.71200   0.35152   0.00000  Uiso   1.00
H421   H     0.18373   0.73624   0.33912   0.00000  Uiso   1.00
H422   H     0.15649   0.79284   0.20907   0.00000  Uiso   1.00
H423   H     0.24225   0.67333   0.43885   0.00000  Uiso   1.00
H424   H     0.16747   0.69145   0.42418   0.00000  Uiso   1.00
H425   H     0.14432   0.97038   0.33719   0.00000  Uiso   1.00
H426   H     0.17114   0.93231   0.39538   0.00000  Uiso   1.00
H427   H     0.21943   0.95164   0.35279   0.00000  Uiso   1.00
H428   H     0.17676   0.87365   0.29101   0.00000  Uiso   1.00
H429   H     0.33200   0.81503   0.48197   0.00000  Uiso   1.00
H430   H     0.19216   0.86082   0.09016   0.00000  Uiso   1.00
H431   H     0.33070   0.90614   0.41088   0.00000  Uiso   1.00
H432   H     0.15582   0.93251   0.03376   0.00000  Uiso   1.00
H433   H     0.05581   0.95683   0.49017   0.00000  Uiso   1.00
H434   H     0.12685   0.77265   0.37963   0.00000  Uiso   1.00
N435   N     0.14493   0.81890   0.23542   0.00000  Uiso   1.00
N436   N     0.18840   0.84777   0.26457   0.00000  Uiso   1.00
O437   O     0.29769   0.91296   0.25357   0.00000  Uiso   1.00
O438   O     0.24881   0.77004   0.40580   0.00000  Uiso   1.00
O439   O     0.05742   0.90371   0.24423   0.00000  Uiso   1.00
O440   O     0.31490   0.84024   0.33380   0.00000  Uiso   1.00
O441   O     0.07463   0.83099   0.32446   0.00000  Uiso   1.00
O442   O     0.27592   0.76296   0.25576   0.00000  Uiso   1.00
O443   O     0.03565   0.75371   0.24642   0.00000  Uiso   1.00
O444   O     0.25870   0.83567   0.17554   0.00000  Uiso   1.00
O445   O     0.01843   0.82642   0.16620   0.00000  Uiso   1.00
O446   O     0.04676   0.86923   0.07766   0.00000  Uiso   1.00
Zn447  Zn    0.27119   0.83951   0.25623   0.00000  Uiso   1.00
Zn448  Zn    0.06214   0.82716   0.24376   0.00000  Uiso   1.00
C449   C     0.34864   0.93156   0.25021   0.00000  Uiso   1.00
C450   C     0.39669   0.85068   0.40998   0.00000  Uiso   1.00
C451   C     0.35735   0.98636   0.25354   0.00000  Uiso   1.00
C452   C     0.37084   0.83593   0.35392   0.00000  Uiso   1.00
C453   C     0.64438   0.68060   0.25342   0.00000  Uiso   1.00
C454   C     0.65212   0.73522   0.25221   0.00000  Uiso   1.00
C455   C     0.63095   0.83557   0.14676   0.00000  Uiso   1.00
C456   C     0.63476   0.82723   0.00453   0.00000  Uiso   1.00
C457   C     0.61423   0.84621   0.09008   0.00000  Uiso   1.00
C458   C     0.37277   0.89276   0.43155   0.00000  Uiso   1.00
C459   C     0.40570   0.92192   0.47650   0.00000  Uiso   1.00
C460   C     0.48307   0.86274   0.48391   0.00000  Uiso   1.00
C461   C     0.46094   0.90726   0.00213   0.00000  Uiso   1.00
C462   C     0.37956   0.92021   0.10211   0.00000  Uiso   1.00
C463   C     0.44101   0.94981   0.11641   0.00000  Uiso   1.00
C464   C     0.45212   0.98615   0.16682   0.00000  Uiso   1.00
C465   C     0.55416   0.72599   0.37240   0.00000  Uiso   1.00
C466   C     0.53693   0.68088   0.40568   0.00000  Uiso   1.00
C467   C     0.51668   0.96409   0.37040   0.00000  Uiso   1.00
C468   C     0.45357   0.83584   0.43565   0.00000  Uiso   1.00
C469   C     0.53798   0.84858   0.01025   0.00000  Uiso   1.00
C470   C     0.57344   0.82409   0.48123   0.00000  Uiso   1.00
C471   C     0.54619   0.79655   0.43217   0.00000  Uiso   1.00
C472   C     0.48408   0.79827   0.41300   0.00000  Uiso   1.00
C473   C     0.55661   0.85411   0.06601   0.00000  Uiso   1.00
C474   C     0.65555   0.84752   0.05808   0.00000  Uiso   1.00
H475   H     0.60040   0.99657   0.25230   0.00000  Uiso   1.00
H476   H     0.40144   0.67069   0.25615   0.00000  Uiso   1.00
H477   H     0.36440   0.91760   0.13988   0.00000  Uiso   1.00
H478   H     0.34891   0.94452   0.07434   0.00000  Uiso   1.00
H479   H     0.47564   0.92175   0.12309   0.00000  Uiso   1.00
H480   H     0.44489   0.97540   0.08284   0.00000  Uiso   1.00
H481   H     0.41519   0.67827   0.16413   0.00000  Uiso   1.00
H482   H     0.49337   0.67822   0.17034   0.00000  Uiso   1.00
H483   H     0.45799   0.96282   0.20351   0.00000  Uiso   1.00
H484   H     0.58705   0.71200   0.35152   0.00000  Uiso   1.00
H485   H     0.51706   0.73624   0.33912   0.00000  Uiso   1.00
H486   H     0.48983   0.79284   0.20907   0.00000  Uiso   1.00
H487   H     0.57558   0.67333   0.43885   0.00000  Uiso   1.00
H488   H     0.50081   0.69145   0.42418   0.00000  Uiso   1.00
H489   H     0.47766   0.97038   0.33719   0.00000  Uiso   1.00
H490   H     0.50448   0.93231   0.39538   0.00000  Uiso   1.00
H491   H     0.55277   0.95164   0.35279   0.00000  Uiso   1.00
H492   H     0.51010   0.87365   0.29101   0.00000  Uiso   1.00
H493   H     0.66533   0.81503   0.48197   0.00000  Uiso   1.00
H494   H     0.52549   0.86082   0.09016   0.00000  Uiso   1.00
H495   H     0.66403   0.90614   0.41088   0.00000  Uiso   1.00
H496   H     0.48915   0.93251   0.03376   0.00000  Uiso   1.00
H497   H     0.38915   0.95683   0.49017   0.00000  Uiso   1.00
H498   H     0.46018   0.77265   0.37963   0.00000  Uiso   1.00
N499   N     0.47827   0.81890   0.23542   0.00000  Uiso   1.00
N500   N     0.52173   0.84777   0.26457   0.00000  Uiso   1.00
O501   O     0.63102   0.91296   0.25357   0.00000  Uiso   1.00
O502   O     0.58214   0.77004   0.40580   0.00000  Uiso   1.00
O503   O     0.39075   0.90371   0.24423   0.00000  Uiso   1.00
O504   O     0.64823   0.84024   0.33380   0.00000  Uiso   1.00
O505   O     0.40796   0.83099   0.32446   0.00000  Uiso   1.00
O506   O     0.60925   0.76296   0.25576   0.00000  Uiso   1.00
O507   O     0.36898   0.75371   0.24642   0.00000  Uiso   1.00
O508   O     0.59204   0.83567   0.17554   0.00000  Uiso   1.00
O509   O     0.35177   0.82642   0.16620   0.00000  Uiso   1.00
O510   O     0.38009   0.86923   0.07766   0.00000  Uiso   1.00
Zn511  Zn    0.60453   0.83951   0.25623   0.00000  Uiso   1.00
Zn512  Zn    0.39547   0.82716   0.24376   0.00000  Uiso   1.00
C513   C     0.68198   0.93156   0.25021   0.00000  Uiso   1.00
C514   C     0.73002   0.85068   0.40998   0.00000  Uiso   1.00
C515   C     0.69069   0.98636   0.25354   0.00000  Uiso   1.00
C516   C     0.70417   0.83593   0.35392   0.00000  Uiso   1.00
C517   C     0.97772   0.68060   0.25342   0.00000  Uiso   1.00
C518   C     0.98545   0.73522   0.25221   0.00000  Uiso   1.00
C519   C     0.96428   0.83557   0.14676   0.00000  Uiso   1.00
C520   C     0.96809   0.82723   0.00453   0.00000  Uiso   1.00
C521   C     0.94756   0.84621   0.09008   0.00000  Uiso   1.00
C522   C     0.70610   0.89276   0.43155   0.00000  Uiso   1.00
C523   C     0.73903   0.92192   0.47650   0.00000  Uiso   1.00
C524   C     0.81641   0.86274   0.48391   0.00000  Uiso   1.00
C525   C     0.79428   0.90726   0.00213   0.00000  Uiso   1.00
C526   C     0.71289   0.92021   0.10211   0.00000  Uiso   1.00
C527   C     0.77435   0.94981   0.11641   0.00000  Uiso   1.00
C528   C     0.78545   0.98615   0.16682   0.00000  Uiso   1.00
C529   C     0.88749   0.72599   0.37240   0.00000  Uiso   1.00
C530   C     0.87026   0.68088   0.40568   0.00000  Uiso   1.00
C531   C     0.85001   0.96409   0.37040   0.00000  Uiso   1.00
C532   C     0.78690   0.83584   0.43565   0.00000  Uiso   1.00
C533   C     0.87131   0.84858   0.01025   0.00000  Uiso   1.00
C534   C     0.90678   0.82409   0.48123   0.00000  Uiso   1.00
C535   C     0.87953   0.79655   0.43217   0.00000  Uiso   1.00
C536   C     0.81741   0.79827   0.41300   0.00000  Uiso   1.00
C537   C     0.88994   0.85411   0.06601   0.00000  Uiso   1.00
C538   C     0.98888   0.84752   0.05808   0.00000  Uiso   1.00
H539   H     0.93373   0.99657   0.25230   0.00000  Uiso   1.00
H540   H     0.73477   0.67069   0.25615   0.00000  Uiso   1.00
H541   H     0.69773   0.91760   0.13988   0.00000  Uiso   1.00
H542   H     0.68224   0.94452   0.07434   0.00000  Uiso   1.00
H543   H     0.80897   0.92175   0.12309   0.00000  Uiso   1.00
H544   H     0.77822   0.97540   0.08284   0.00000  Uiso   1.00
H545   H     0.74852   0.67827   0.16413   0.00000  Uiso   1.00
H546   H     0.82670   0.67822   0.17034   0.00000  Uiso   1.00
H547   H     0.79132   0.96282   0.20351   0.00000  Uiso   1.00
H548   H     0.92038   0.71200   0.35152   0.00000  Uiso   1.00
H549   H     0.85040   0.73624   0.33912   0.00000  Uiso   1.00
H550   H     0.82316   0.79284   0.20907   0.00000  Uiso   1.00
H551   H     0.90892   0.67333   0.43885   0.00000  Uiso   1.00
H552   H     0.83414   0.69145   0.42418   0.00000  Uiso   1.00
H553   H     0.81099   0.97038   0.33719   0.00000  Uiso   1.00
H554   H     0.83781   0.93231   0.39538   0.00000  Uiso   1.00
H555   H     0.88610   0.95164   0.35279   0.00000  Uiso   1.00
H556   H     0.84343   0.87365   0.29101   0.00000  Uiso   1.00
H557   H     0.99867   0.81503   0.48197   0.00000  Uiso   1.00
H558   H     0.85883   0.86082   0.09016   0.00000  Uiso   1.00
H559   H     0.99736   0.90614   0.41088   0.00000  Uiso   1.00
H560   H     0.82249   0.93251   0.03376   0.00000  Uiso   1.00
H561   H     0.72248   0.95683   0.49017   0.00000  Uiso   1.00
H562   H     0.79351   0.77265   0.37963   0.00000  Uiso   1.00
N563   N     0.81160   0.81890   0.23542   0.00000  Uiso   1.00
N564   N     0.85507   0.84777   0.26457   0.00000  Uiso   1.00
O565   O     0.96435   0.91296   0.25357   0.00000  Uiso   1.00
O566   O     0.91548   0.77004   0.40580   0.00000  Uiso   1.00
O567   O     0.72408   0.90371   0.24423   0.00000  Uiso   1.00
O568   O     0.98157   0.84024   0.33380   0.00000  Uiso   1.00
O569   O     0.74130   0.83099   0.32446   0.00000  Uiso   1.00
O570   O     0.94258   0.76296   0.25576   0.00000  Uiso   1.00
O571   O     0.70231   0.75371   0.24642   0.00000  Uiso   1.00
O572   O     0.92537   0.83567   0.17554   0.00000  Uiso   1.00
O573   O     0.68510   0.82642   0.16620   0.00000  Uiso   1.00
O574   O     0.71343   0.86923   0.07766   0.00000  Uiso   1.00
Zn575  Zn    0.93786   0.83951   0.25623   0.00000  Uiso   1.00
Zn576  Zn    0.72881   0.82716   0.24376   0.00000  Uiso   1.00
C577   C     0.01531   0.26489   0.75021   0.00000  Uiso   1.00
C578   C     0.06336   0.18402   0.90998   0.00000  Uiso   1.00
C579   C     0.02402   0.31969   0.75354   0.00000  Uiso   1.00
C580   C     0.03750   0.16926   0.85392   0.00000  Uiso   1.00
C581   C     0.31105   0.01393   0.75342   0.00000  Uiso   1.00
C582   C     0.31879   0.06855   0.75221   0.00000  Uiso   1.00
C583   C     0.29762   0.16890   0.64676   0.00000  Uiso   1.00
C584   C     0.30142   0.16056   0.50453   0.00000  Uiso   1.00
C585   C     0.28089   0.17954   0.59008   0.00000  Uiso   1.00
C586   C     0.03944   0.22609   0.93155   0.00000  Uiso   1.00
C587   C     0.07236   0.25525   0.97650   0.00000  Uiso   1.00
C588   C     0.14974   0.19607   0.98391   0.00000  Uiso   1.00
C589   C     0.12761   0.24059   0.50213   0.00000  Uiso   1.00
C590   C     0.04623   0.25355   0.60211   0.00000  Uiso   1.00
C591   C     0.10768   0.28314   0.61641   0.00000  Uiso   1.00
C592   C     0.11878   0.31949   0.66682   0.00000  Uiso   1.00
C593   C     0.22083   0.05932   0.87240   0.00000  Uiso   1.00
C594   C     0.20359   0.01421   0.90568   0.00000  Uiso   1.00
C595   C     0.18334   0.29742   0.87040   0.00000  Uiso   1.00
C596   C     0.12023   0.16917   0.93565   0.00000  Uiso   1.00
C597   C     0.20464   0.18191   0.51025   0.00000  Uiso   1.00
C598   C     0.24011   0.15742   0.98123   0.00000  Uiso   1.00
C599   C     0.21286   0.12989   0.93217   0.00000  Uiso   1.00
C600   C     0.15075   0.13160   0.91300   0.00000  Uiso   1.00
C601   C     0.22327   0.18745   0.56601   0.00000  Uiso   1.00
C602   C     0.32222   0.18085   0.55808   0.00000  Uiso   1.00
H603   H     0.26706   0.32991   0.75230   0.00000  Uiso   1.00
H604   H     0.06811   0.00402   0.75615   0.00000  Uiso   1.00
H605   H     0.03106   0.25093   0.63988   0.00000  Uiso   1.00
H606   H     0.01558   0.27785   0.57434   0.00000  Uiso   1.00
H607   H     0.14230   0.25509   0.62309   0.00000  Uiso   1.00
H608   H     0.11156   0.30873   0.58284   0.00000  Uiso   1.00
H609   H     0.08186   0.01160   0.66413   0.00000  Uiso   1.00
H610   H     0.16003   0.01156   0.67034   0.00000  Uiso   1.00
H611   H     0.12466   0.29615   0.70351   0.00000  Uiso   1.00
H612   H     0.25371   0.04533   0.85152   0.00000  Uiso   1.00
H613   H     0.18373   0.06957   0.83912   0.00000  Uiso   1.00
H614   H     0.15649   0.12618   0.70907   0.00000  Uiso   1.00
H615   H     0.24225   0.00667   0.93885   0.00000  Uiso   1.00
H616   H     0.16747   0.02479   0.92418   0.00000  Uiso   1.00
H617   H     0.14432   0.30372   0.83719   0.00000  Uiso   1.00
H618   H     0.17114   0.26565   0.89538   0.00000  Uiso   1.00
H619   H     0.21943   0.28498   0.85279   0.00000  Uiso   1.00
H620   H     0.17676   0.20698   0.79101   0.00000  Uiso   1.00
H621   H     0.33200   0.14836   0.98197   0.00000  Uiso   1.00
H622   H     0.19216   0.19415   0.59016   0.00000  Uiso   1.00
H623   H     0.33070   0.23947   0.91088   0.00000  Uiso   1.00
H624   H     0.15582   0.26584   0.53376   0.00000  Uiso   1.00
H625   H     0.05581   0.29017   0.99017   0.00000  Uiso   1.00
H626   H     0.12685   0.10599   0.87963   0.00000  Uiso   1.00
N627   N     0.14493   0.15223   0.73542   0.00000  Uiso   1.00
N628   N     0.18840   0.18110   0.76457   0.00000  Uiso   1.00
O629   O     0.29769   0.24629   0.75357   0.00000  Uiso   1.00
O630   O     0.24881   0.10337   0.90580   0.00000  Uiso   1.00
O631   O     0.05742   0.23704   0.74423   0.00000  Uiso   1.00
O632   O     0.31490   0.17358   0.83380   0.00000  Uiso   1.00
O633   O     0.07463   0.16433   0.82446   0.00000  Uiso   1.00
O634   O     0.27592   0.09629   0.75576   0.00000  Uiso   1.00
O635   O     0.03565   0.08704   0.74642   0.00000  Uiso   1.00
O636   O     0.25870   0.16901   0.67554   0.00000  Uiso   1.00
O637   O     0.01843   0.15976   0.66620   0.00000  Uiso   1.00
O638   O     0.04676   0.20256   0.57766   0.00000  Uiso   1.00
Zn639  Zn    0.27119   0.17284   0.75623   0.00000  Uiso   1.00
Zn640  Zn    0.06214   0.16049   0.74376   0.00000  Uiso   1.00
C641   C     0.34864   0.26489   0.75021   0.00000  Uiso   1.00
C642   C     0.39669   0.18402   0.90998   0.00000  Uiso   1.00
C643   C     0.35735   0.31969   0.75354   0.00000  Uiso   1.00
C644   C     0.37084   0.16926   0.85392   0.00000  Uiso   1.00
C645   C     0.64438   0.01393   0.75342   0.00000  Uiso   1.00
C646   C     0.65212   0.06855   0.75221   0.00000  Uiso   1.00
C647   C     0.63095   0.16890   0.64676   0.00000  Uiso   1.00
C648   C     0.63476   0.16056   0.50453   0.00000  Uiso   1.00
C649   C     0.61423   0.17954   0.59008   0.00000  Uiso   1.00
C650   C     0.37277   0.22609   0.93155   0.00000  Uiso   1.00
C651   C     0.40570   0.25525   0.97650   0.00000  Uiso   1.00
C652   C     0.48307   0.19607   0.98391   0.00000  Uiso   1.00
C653   C     0.46094   0.24059   0.50213   0.00000  Uiso   1.00
C654   C     0.37956   0.25355   0.60211   0.00000  Uiso   1.00
C655   C     0.44101   0.28314   0.61641   0.00000  Uiso   1.00
C656   C     0.45212   0.31949   0.66682   0.00000  Uiso   1.00
C657   C     0.55416   0.05932   0.87240   0.00000  Uiso   1.00
C658   C     0.53693   0.01421   0.90568   0.00000  Uiso   1.00
C659   C     0.51668   0.29742   0.87040   0.00000  Uiso   1.00
C660   C     0.45357   0.16917   0.93565   0.00000  Uiso   1.00
C661   C     0.53798   0.18191   0.51025   0.00000  Uiso   1.00
C662   C     0.57344   0.15742   0.98123   0.00000  Uiso   1.00
C663   C     0.54619   0.12989   0.93217   0.00000  Uiso   1.00
C664   C     0.48408   0.13160   0.91300   0.00000  Uiso   1.00
C665   C     0.55661   0.18745   0.56601   0.00000  Uiso   1.00
C666   C     0.65555   0.18085   0.55808   0.00000  Uiso   1.00
H667   H     0.60040   0.32991   0.75230   0.00000  Uiso   1.00
H668   H     0.40144   0.00402   0.75615   0.00000  Uiso   1.00
H669   H     0.36440   0.25093   0.63988   0.00000  Uiso   1.00
H670   H     0.34891   0.27785   0.57434   0.00000  Uiso   1.00
H671   H     0.47564   0.25509   0.62309   0.00000  Uiso   1.00
H672   H     0.44489   0.30873   0.58284   0.00000  Uiso   1.00
H673   H     0.41519   0.01160   0.66413   0.00000  Uiso   1.00
H674   H     0.49337   0.01156   0.67034   0.00000  Uiso   1.00
H675   H     0.45799   0.29615   0.70351   0.00000  Uiso   1.00
H676   H     0.58705   0.04533   0.85152   0.00000  Uiso   1.00
H677   H     0.51706   0.06957   0.83912   0.00000  Uiso   1.00
H678   H     0.48983   0.12618   0.70907   0.00000  Uiso   1.00
H679   H     0.57558   0.00667   0.93885   0.00000  Uiso   1.00
H680   H     0.50081   0.02479   0.92418   0.00000  Uiso   1.00
H681   H     0.47766   0.30372   0.83719   0.00000  Uiso   1.00
H682   H     0.50448   0.26565   0.89538   0.00000  Uiso   1.00
H683   H     0.55277   0.28498   0.85279   0.00000  Uiso   1.00
H684   H     0.51010   0.20698   0.79101   0.00000  Uiso   1.00
H685   H     0.66533   0.14836   0.98197   0.00000  Uiso   1.00
H686   H     0.52549   0.19415   0.59016   0.00000  Uiso   1.00
H687   H     0.66403   0.23947   0.91088   0.00000  Uiso   1.00
H688   H     0.48915   0.26584   0.53376   0.00000  Uiso   1.00
H689   H     0.38915   0.29017   0.99017   0.00000  Uiso   1.00
H690   H     0.46018   0.10599   0.87963   0.00000  Uiso   1.00
N691   N     0.47827   0.15223   0.73542   0.00000  Uiso   1.00
N692   N     0.52173   0.18110   0.76457   0.00000  Uiso   1.00
O693   O     0.63102   0.24629   0.75357   0.00000  Uiso   1.00
O694   O     0.58214   0.10337   0.90580   0.00000  Uiso   1.00
O695   O     0.39075   0.23704   0.74423   0.00000  Uiso   1.00
O696   O     0.64823   0.17358   0.83380   0.00000  Uiso   1.00
O697   O     0.40796   0.16433   0.82446   0.00000  Uiso   1.00
O698   O     0.60925   0.09629   0.75576   0.00000  Uiso   1.00
O699   O     0.36898   0.08704   0.74642   0.00000  Uiso   1.00
O700   O     0.59204   0.16901   0.67554   0.00000  Uiso   1.00
O701   O     0.35177   0.15976   0.66620   0.00000  Uiso   1.00
O702   O     0.38009   0.20256   0.57766   0.00000  Uiso   1.00
Zn703  Zn    0.60453   0.17284   0.75623   0.00000  Uiso   1.00
Zn704  Zn    0.39547   0.16049   0.74376   0.00000  Uiso   1.00
C705   C     0.68198   0.26489   0.75021   0.00000  Uiso   1.00
C706   C     0.73002   0.18402   0.90998   0.00000  Uiso   1.00
C707   C     0.69069   0.31969   0.75354   0.00000  Uiso   1.00
C708   C     0.70417   0.16926   0.85392   0.00000  Uiso   1.00
C709   C     0.97772   0.01393   0.75342   0.00000  Uiso   1.00
C710   C     0.98545   0.06855   0.75221   0.00000  Uiso   1.00
C711   C     0.96428   0.16890   0.64676   0.00000  Uiso   1.00
C712   C     0.96809   0.16056   0.50453   0.00000  Uiso   1.00
C713   C     0.94756   0.17954   0.59008   0.00000  Uiso   1.00
C714   C     0.70610   0.22609   0.93155   0.00000  Uiso   1.00
C715   C     0.73903   0.25525   0.97650   0.00000  Uiso   1.00
C716   C     0.81641   0.19607   0.98391   0.00000  Uiso   1.00
C717   C     0.79428   0.24059   0.50213   0.00000  Uiso   1.00
C718   C     0.71289   0.25355   0.60211   0.00000  Uiso   1.00
C719   C     0.77435   0.28314   0.61641   0.00000  Uiso   1.00
C720   C     0.78545   0.31949   0.66682   0.00000  Uiso   1.00
C721   C     0.88749   0.05932   0.87240   0.00000  Uiso   1.00
C722   C     0.87026   0.01421   0.90568   0.00000  Uiso   1.00
C723   C     0.85001   0.29742   0.87040   0.00000  Uiso   1.00
C724   C     0.78690   0.16917   0.93565   0.00000  Uiso   1.00
C725   C     0.87131   0.18191   0.51025   0.00000  Uiso   1.00
C726   C     0.90678   0.15742   0.98123   0.00000  Uiso   1.00
C727   C     0.87953   0.12989   0.93217   0.00000  Uiso   1.00
C728   C     0.81741   0.13160   0.91300   0.00000  Uiso   1.00
C729   C     0.88994   0.18745   0.56601   0.00000  Uiso   1.00
C730   C     0.98888   0.18085   0.55808   0.00000  Uiso   1.00
H731   H     0.93373   0.32991   0.75230   0.00000  Uiso   1.00
H732   H     0.73477   0.00402   0.75615   0.00000  Uiso   1.00
H733   H     0.69773   0.25093   0.63988   0.00000  Uiso   1.00
H734   H     0.68224   0.27785   0.57434   0.00000  Uiso   1.00
H735   H     0.80897   0.25509   0.62309   0.00000  Uiso   1.00
H736   H     0.77822   0.30873   0.58284   0.00000  Uiso   1.00
H737   H     0.74852   0.01160   0.66413   0.00000  Uiso   1.00
H738   H     0.82670   0.01156   0.67034   0.00000  Uiso   1.00
H739   H     0.79132   0.29615   0.70351   0.00000  Uiso   1.00
H740   H     0.92038   0.04533   0.85152   0.00000  Uiso   1.00
H741   H     0.85040   0.06957   0.83912   0.00000  Uiso   1.00
H742   H     0.82316   0.12618   0.70907   0.00000  Uiso   1.00
H743   H     0.90892   0.00667   0.93885   0.00000  Uiso   1.00
H744   H     0.83414   0.02479   0.92418   0.00000  Uiso   1.00
H745   H     0.81099   0.30372   0.83719   0.00000  Uiso   1.00
H746   H     0.83781   0.26565   0.89538   0.00000  Uiso   1.00
H747   H     0.88610   0.28498   0.85279   0.00000  Uiso   1.00
H748   H     0.84343   0.20698   0.79101   0.00000  Uiso   1.00
H749   H     0.99867   0.14836   0.98197   0.00000  Uiso   1.00
H750   H     0.85883   0.19415   0.59016   0.00000  Uiso   1.00
H751   H     0.99736   0.23947   0.91088   0.00000  Uiso   1.00
H752   H     0.82249   0.26584   0.53376   0.00000  Uiso   1.00
H753   H     0.72248   0.29017   0.99017   0.00000  Uiso   1.00
H754   H     0.79351   0.10599   0.87963   0.00000  Uiso   1.00
N755   N     0.81160   0.15223   0.73542   0.00000  Uiso   1.00
N756   N     0.85507   0.18110   0.76457   0.00000  Uiso   1.00
O757   O     0.96435   0.24629   0.75357   0.00000  Uiso   1.00
O758   O     0.91548   0.10337   0.90580   0.00000  Uiso   1.00
O759   O     0.72408   0.23704   0.74423   0.00000  Uiso   1.00
O760   O     0.98157   0.17358   0.83380   0.00000  Uiso   1.00
O761   O     0.74130   0.16433   0.82446   0.00000  Uiso   1.00
O762   O     0.94258   0.09629   0.75576   0.00000  Uiso   1.00
O763   O     0.70231   0.08704   0.74642   0.00000  Uiso   1.00
O764   O     0.92537   0.16901   0.67554   0.00000  Uiso   1.00
O765   O     0.68510   0.15976   0.66620   0.00000  Uiso   1.00
O766   O     0.71343   0.20256   0.57766   0.00000  Uiso   1.00
Zn767  Zn    0.93786   0.17284   0.75623   0.00000  Uiso   1.00
Zn768  Zn    0.72881   0.16049   0.74376   0.00000  Uiso   1.00
C769   C     0.01531   0.59822   0.75021   0.00000  Uiso   1.00
C770   C     0.06336   0.51735   0.90998   0.00000  Uiso   1.00
C771   C     0.02402   0.65303   0.75354   0.00000  Uiso   1.00
C772   C     0.03750   0.50260   0.85392   0.00000  Uiso   1.00
C773   C     0.31105   0.34726   0.75342   0.00000  Uiso   1.00
C774   C     0.31879   0.40188   0.75221   0.00000  Uiso   1.00
C775   C     0.29762   0.50223   0.64676   0.00000  Uiso   1.00
C776   C     0.30142   0.49389   0.50453   0.00000  Uiso   1.00
C777   C     0.28089   0.51287   0.59008   0.00000  Uiso   1.00
C778   C     0.03944   0.55942   0.93155   0.00000  Uiso   1.00
C779   C     0.07236   0.58858   0.97650   0.00000  Uiso   1.00
C780   C     0.14974   0.52941   0.98391   0.00000  Uiso   1.00
C781   C     0.12761   0.57392   0.50213   0.00000  Uiso   1.00
C782   C     0.04623   0.58688   0.60211   0.00000  Uiso   1.00
C783   C     0.10768   0.61648   0.61641   0.00000  Uiso   1.00
C784   C     0.11878   0.65282   0.66682   0.00000  Uiso   1.00
C785   C     0.22083   0.39265   0.87240   0.00000  Uiso   1.00
C786   C     0.20359   0.34754   0.90568   0.00000  Uiso   1.00
C787   C     0.18334   0.63076   0.87040   0.00000  Uiso   1.00
C788   C     0.12023   0.50251   0.93565   0.00000  Uiso   1.00
C789   C     0.20464   0.51525   0.51025   0.00000  Uiso   1.00
C790   C     0.24011   0.49075   0.98123   0.00000  Uiso   1.00
C791   C     0.21286   0.46322   0.93217   0.00000  Uiso   1.00
C792   C     0.15075   0.46493   0.91300   0.00000  Uiso   1.00
C793   C     0.22327   0.52078   0.56601   0.00000  Uiso   1.00
C794   C     0.32222   0.51419   0.55808   0.00000  Uiso   1.00
H795   H     0.26706   0.66324   0.75230   0.00000  Uiso   1.00
H796   H     0.06811   0.33736   0.75615   0.00000  Uiso   1.00
H797   H     0.03106   0.58427   0.63988   0.00000  Uiso   1.00
H798   H     0.01558   0.61119   0.57434   0.00000  Uiso   1.00
H799   H     0.14230   0.58842   0.62309   0.00000  Uiso   1.00
H800   H     0.11156   0.64206   0.58284   0.00000  Uiso   1.00
H801   H     0.08186   0.34493   0.66413   0.00000  Uiso   1.00
H802   H     0.16003   0.34489   0.67034   0.00000  Uiso   1.00
H803   H     0.12466   0.62949   0.70351   0.00000  Uiso   1.00
H804   H     0.25371   0.37867   0.85152   0.00000  Uiso   1.00
H805   H     0.18373   0.40291   0.83912   0.00000  Uiso   1.00
H806   H     0.15649   0.45951   0.70907   0.00000  Uiso   1.00
H807   H     0.24225   0.34000   0.93885   0.00000  Uiso   1.00
H808   H     0.16747   0.35812   0.92418   0.00000  Uiso   1.00
H809   H     0.14432   0.63705   0.83719   0.00000  Uiso   1.00
H810   H     0.17114   0.59898   0.89538   0.00000  Uiso   1.00
H811   H     0.21943   0.61831   0.85279   0.00000  Uiso   1.00
H812   H     0.17676   0.54032   0.79101   0.00000  Uiso   1.00
H813   H     0.33200   0.48169   0.98197   0.00000  Uiso   1.00
H814   H     0.19216   0.52748   0.59016   0.00000  Uiso   1.00
H815   H     0.33070   0.57281   0.91088   0.00000  Uiso   1.00
H816   H     0.15582   0.59917   0.53376   0.00000  Uiso   1.00
H817   H     0.05581   0.62350   0.99017   0.00000  Uiso   1.00
H818   H     0.12685   0.43932   0.87963   0.00000  Uiso   1.00
N819   N     0.14493   0.48556   0.73542   0.00000  Uiso   1.00
N820   N     0.18840   0.51444   0.76457   0.00000  Uiso   1.00
O821   O     0.29769   0.57963   0.75357   0.00000  Uiso   1.00
O822   O     0.24881   0.43670   0.90580   0.00000  Uiso   1.00
O823   O     0.05742   0.57038   0.74423   0.00000  Uiso   1.00
O824   O     0.31490   0.50691   0.83380   0.00000  Uiso   1.00
O825   O     0.07463   0.49766   0.82446   0.00000  Uiso   1.00
O826   O     0.27592   0.42962   0.75576   0.00000  Uiso   1.00
O827   O     0.03565   0.42037   0.74642   0.00000  Uiso   1.00
O828   O     0.25870   0.50234   0.67554   0.00000  Uiso   1.00
O829   O     0.01843   0.49309   0.66620   0.00000  Uiso   1.00
O830   O     0.04676   0.53590   0.57766   0.00000  Uiso   1.00
Zn831  Zn    0.27119   0.50618   0.75623   0.00000  Uiso   1.00
Zn832  Zn    0.06214   0.49382   0.74376   0.00000  Uiso   1.00
C833   C     0.34864   0.59822   0.75021   0.00000  Uiso   1.00
C834   C     0.39669   0.51735   0.90998   0.00000  Uiso   1.00
C835   C     0.35735   0.65303   0.75354   0.00000  Uiso   1.00
C836   C     0.37084   0.50260   0.85392   0.00000  Uiso   1.00
C837   C     0.64438   0.34726   0.75342   0.00000  Uiso   1.00
C838   C     0.65212   0.40188   0.75221   0.00000  Uiso   1.00
C839   C     0.63095   0.50223   0.64676   0.00000  Uiso   1.00
C840   C     0.63476   0.49389   0.50453   0.00000  Uiso   1.00
C841   C     0.61423   0.51287   0.59008   0.00000  Uiso   1.00
C842   C     0.37277   0.55942   0.93155   0.00000  Uiso   1.00
C843   C     0.40570   0.58858   0.97650   0.00000  Uiso   1.00
C844   C     0.48307   0.52941   0.98391   0.00000  Uiso   1.00
C845   C     0.46094   0.57392   0.50213   0.00000  Uiso   1.00
C846   C     0.37956   0.58688   0.60211   0.00000  Uiso   1.00
C847   C     0.44101   0.61648   0.61641   0.00000  Uiso   1.00
C848   C     0.45212   0.65282   0.66682   0.00000  Uiso   1.00
C849   C     0.55416   0.39265   0.87240   0.00000  Uiso   1.00
C850   C     0.53693   0.34754   0.90568   0.00000  Uiso   1.00
C851   C     0.51668   0.63076   0.87040   0.00000  Uiso   1.00
C852   C     0.45357   0.50251   0.93565   0.00000  Uiso   1.00
C853   C     0.53798   0.51525   0.51025   0.00000  Uiso   1.00
C854   C     0.57344   0.49075   0.98123   0.00000  Uiso   1.00
C855   C     0.54619   0.46322   0.93217   0.00000  Uiso   1.00
C856   C     0.48408   0.46493   0.91300   0.00000  Uiso   1.00
C857   C     0.55661   0.52078   0.56601   0.00000  Uiso   1.00
C858   C     0.65555   0.51419   0.55808   0.00000  Uiso   1.00
H859   H     0.60040   0.66324   0.75230   0.00000  Uiso   1.00
H860   H     0.40144   0.33736   0.75615   0.00000  Uiso   1.00
H861   H     0.36440   0.58427   0.63988   0.00000  Uiso   1.00
H862   H     0.34891   0.61119   0.57434   0.00000  Uiso   1.00
H863   H     0.47564   0.58842   0.62309   0.00000  Uiso   1.00
H864   H     0.44489   0.64206   0.58284   0.00000  Uiso   1.00
H865   H     0.41519   0.34493   0.66413   0.00000  Uiso   1.00
H866   H     0.49337   0.34489   0.67034   0.00000  Uiso   1.00
H867   H     0.45799   0.62949   0.70351   0.00000  Uiso   1.00
H868   H     0.58705   0.37867   0.85152   0.00000  Uiso   1.00
H869   H     0.51706   0.40291   0.83912   0.00000  Uiso   1.00
H870   H     0.48983   0.45951   0.70907   0.00000  Uiso   1.00
H871   H     0.57558   0.34000   0.93885   0.00000  Uiso   1.00
H872   H     0.50081   0.35812   0.92418   0.00000  Uiso   1.00
H873   H     0.47766   0.63705   0.83719   0.00000  Uiso   1.00
H874   H     0.50448   0.59898   0.89538   0.00000  Uiso   1.00
H875   H     0.55277   0.61831   0.85279   0.00000  Uiso   1.00
H876   H     0.51010   0.54032   0.79101   0.00000  Uiso   1.00
H877   H     0.66533   0.48169   0.98197   0.00000  Uiso   1.00
H878   H     0.52549   0.52748   0.59016   0.00000  Uiso   1.00
H879   H     0.66403   0.57281   0.91088   0.00000  Uiso   1.00
H880   H     0.48915   0.59917   0.53376   0.00000  Uiso   1.00
H881   H     0.38915   0.62350   0.99017   0.00000  Uiso   1.00
H882   H     0.46018   0.43932   0.87963   0.00000  Uiso   1.00
N883   N     0.47827   0.48556   0.73542   0.00000  Uiso   1.00
N884   N     0.52173   0.51444   0.76457   0.00000  Uiso   1.00
O885   O     0.63102   0.57963   0.75357   0.00000  Uiso   1.00
O886   O     0.58214   0.43670   0.90580   0.00000  Uiso   1.00
O887   O     0.39075   0.57038   0.74423   0.00000  Uiso   1.00
O888   O     0.64823   0.50691   0.83380   0.00000  Uiso   1.00
O889   O     0.40796   0.49766   0.82446   0.00000  Uiso   1.00
O890   O     0.60925   0.42962   0.75576   0.00000  Uiso   1.00
O891   O     0.36898   0.42037   0.74642   0.00000  Uiso   1.00
O892   O     0.59204   0.50234   0.67554   0.00000  Uiso   1.00
O893   O     0.35177   0.49309   0.66620   0.00000  Uiso   1.00
O894   O     0.38009   0.53590   0.57766   0.00000  Uiso   1.00
Zn895  Zn    0.60453   0.50618   0.75623   0.00000  Uiso   1.00
Zn896  Zn    0.39547   0.49382   0.74376   0.00000  Uiso   1.00
C897   C     0.68198   0.59822   0.75021   0.00000  Uiso   1.00
C898   C     0.73002   0.51735   0.90998   0.00000  Uiso   1.00
C899   C     0.69069   0.65303   0.75354   0.00000  Uiso   1.00
C900   C     0.70417   0.50260   0.85392   0.00000  Uiso   1.00
C901   C     0.97772   0.34726   0.75342   0.00000  Uiso   1.00
C902   C     0.98545   0.40188   0.75221   0.00000  Uiso   1.00
C903   C     0.96428   0.50223   0.64676   0.00000  Uiso   1.00
C904   C     0.96809   0.49389   0.50453   0.00000  Uiso   1.00
C905   C     0.94756   0.51287   0.59008   0.00000  Uiso   1.00
C906   C     0.70610   0.55942   0.93155   0.00000  Uiso   1.00
C907   C     0.73903   0.58858   0.97650   0.00000  Uiso   1.00
C908   C     0.81641   0.52941   0.98391   0.00000  Uiso   1.00
C909   C     0.79428   0.57392   0.50213   0.00000  Uiso   1.00
C910   C     0.71289   0.58688   0.60211   0.00000  Uiso   1.00
C911   C     0.77435   0.61648   0.61641   0.00000  Uiso   1.00
C912   C     0.78545   0.65282   0.66682   0.00000  Uiso   1.00
C913   C     0.88749   0.39265   0.87240   0.00000  Uiso   1.00
C914   C     0.87026   0.34754   0.90568   0.00000  Uiso   1.00
C915   C     0.85001   0.63076   0.87040   0.00000  Uiso   1.00
C916   C     0.78690   0.50251   0.93565   0.00000  Uiso   1.00
C917   C     0.87131   0.51525   0.51025   0.00000  Uiso   1.00
C918   C     0.90678   0.49075   0.98123   0.00000  Uiso   1.00
C919   C     0.87953   0.46322   0.93217   0.00000  Uiso   1.00
C920   C     0.81741   0.46493   0.91300   0.00000  Uiso   1.00
C921   C     0.88994   0.52078   0.56601   0.00000  Uiso   1.00
C922   C     0.98888   0.51419   0.55808   0.00000  Uiso   1.00
H923   H     0.93373   0.66324   0.75230   0.00000  Uiso   1.00
H924   H     0.73477   0.33736   0.75615   0.00000  Uiso   1.00
H925   H     0.69773   0.58427   0.63988   0.00000  Uiso   1.00
H926   H     0.68224   0.61119   0.57434   0.00000  Uiso   1.00
H927   H     0.80897   0.58842   0.62309   0.00000  Uiso   1.00
H928   H     0.77822   0.64206   0.58284   0.00000  Uiso   1.00
H929   H     0.74852   0.34493   0.66413   0.00000  Uiso   1.00
H930   H     0.82670   0.34489   0.67034   0.00000  Uiso   1.00
H931   H     0.79132   0.62949   0.70351   0.00000  Uiso   1.00
H932   H     0.92038   0.37867   0.85152   0.00000  Uiso   1.00
H933   H     0.85040   0.40291   0.83912   0.00000  Uiso   1.00
H934   H     0.82316   0.45951   0.70907   0.00000  Uiso   1.00
H935   H     0.90892   0.34000   0.93885   0.00000  Uiso   1.00
H936   H     0.83414   0.35812   0.92418   0.00000  Uiso   1.00
H937   H     0.81099   0.63705   0.83719   0.00000  Uiso   1.00
H938   H     0.83781   0.59898   0.89538   0.00000  Uiso   1.00
H939   H     0.88610   0.61831   0.85279   0.00000  Uiso   1.00
H940   H     0.84343   0.54032   0.79101   0.00000  Uiso   1.00
H941   H     0.99867   0.48169   0.98197   0.00000  Uiso   1.00
H942   H     0.85883   0.52748   0.59016   0.00000  Uiso   1.00
H943   H     0.99736   0.57281   0.91088   0.00000  Uiso   1.00
H944   H     0.82249   0.59917   0.53376   0.00000  Uiso   1.00
H945   H     0.72248   0.62350   0.99017   0.00000  Uiso   1.00
H946   H     0.79351   0.43932   0.87963   0.00000  Uiso   1.00
N947   N     0.81160   0.48556   0.73542   0.00000  Uiso   1.00
N948   N     0.85507   0.51444   0.76457   0.00000  Uiso   1.00
O949   O     0.96435   0.57963   0.75357   0.00000  Uiso   1.00
O950   O     0.91548   0.43670   0.90580   0.00000  Uiso   1.00
O951   O     0.72408   0.57038   0.74423   0.00000  Uiso   1.00
O952   O     0.98157   0.50691   0.83380   0.00000  Uiso   1.00
O953   O     0.74130   0.49766   0.82446   0.00000  Uiso   1.00
O954   O     0.94258   0.42962   0.75576   0.00000  Uiso   1.00
O955   O     0.70231   0.42037   0.74642   0.00000  Uiso   1.00
O956   O     0.92537   0.50234   0.67554   0.00000  Uiso   1.00
O957   O     0.68510   0.49309   0.66620   0.00000  Uiso   1.00
O958   O     0.71343   0.53590   0.57766   0.00000  Uiso   1.00
Zn959  Zn    0.93786   0.50618   0.75623   0.00000  Uiso   1.00
Zn960  Zn    0.72881   0.49382   0.74376   0.00000  Uiso   1.00
C961   C     0.01531   0.93156   0.75021   0.00000  Uiso   1.00
C962   C     0.06336   0.85068   0.90998   0.00000  Uiso   1.00
C963   C     0.02402   0.98636   0.75354   0.00000  Uiso   1.00
C964   C     0.03750   0.83593   0.85392   0.00000  Uiso   1.00
C965   C     0.31105   0.68060   0.75342   0.00000  Uiso   1.00
C966   C     0.31879   0.73522   0.75221   0.00000  Uiso   1.00
C967   C     0.29762   0.83557   0.64676   0.00000  Uiso   1.00
C968   C     0.30142   0.82723   0.50453   0.00000  Uiso   1.00
C969   C     0.28089   0.84621   0.59008   0.00000  Uiso   1.00
C970   C     0.03944   0.89276   0.93155   0.00000  Uiso   1.00
C971   C     0.07236   0.92192   0.97650   0.00000  Uiso   1.00
C972   C     0.14974   0.86274   0.98391   0.00000  Uiso   1.00
C973   C     0.12761   0.90726   0.50213   0.00000  Uiso   1.00
C974   C     0.04623   0.92021   0.60211   0.00000  Uiso   1.00
C975   C     0.10768   0.94981   0.61641   0.00000  Uiso   1.00
C976   C     0.11878   0.98615   0.66682   0.00000  Uiso   1.00
C977   C     0.22083   0.72599   0.87240   0.00000  Uiso   1.00
C978   C     0.20359   0.68088   0.90568   0.00000  Uiso   1.00
C979   C     0.18334   0.96409   0.87040   0.00000  Uiso   1.00
C980   C     0.12023   0.83584   0.93565   0.00000  Uiso   1.00
C981   C     0.20464   0.84858   0.51025   0.00000  Uiso   1.00
C982   C     0.24011   0.82409   0.98123   0.00000  Uiso   1.00
C983   C     0.21286   0.79655   0.93217   0.00000  Uiso   1.00
C984   C     0.15075   0.79827   0.91300   0.00000  Uiso   1.00
C985   C     0.22327   0.85411   0.56601   0.00000  Uiso   1.00
C986   C     0.32222   0.84752   0.55808   0.00000  Uiso   1.00
H987   H     0.26706   0.99657   0.75230   0.00000  Uiso   1.00
H988   H     0.06811   0.67069   0.75615   0.00000  Uiso   1.00
H989   H     0.03106   0.91760   0.63988   0.00000  Uiso   1.00
H990   H     0.01558   0.94452   0.57434   0.00000  Uiso   1.00
H991   H     0.14230   0.92175   0.62309   0.00000  Uiso   1.00
H992   H     0.11156   0.97540   0.58284   0.00000  Uiso   1.00
H993   H     0.08186   0.67827   0.66413   0.00000  Uiso   1.00
H994   H     0.16003   0.67822   0.67034   0.00000  Uiso   1.00
H995   H     0.12466   0.96282   0.70351   0.00000  Uiso   1.00
H996   H     0.25371   0.71200   0.85152   0.00000  Uiso   1.00
H997   H     0.18373   0.73624   0.83912   0.00000  Uiso   1.00
H998   H     0.15649   0.79284   0.70907   0.00000  Uiso   1.00
H999   H     0.24225   0.67333   0.93885   0.00000  Uiso   1.00
H1000  H     0.16747   0.69145   0.92418   0.00000  Uiso   1.00
H1001  H     0.14432   0.97038   0.83719   0.00000  Uiso   1.00
H1002  H     0.17114   0.93231   0.89538   0.00000  Uiso   1.00
H1003  H     0.21943   0.95164   0.85279   0.00000  Uiso   1.00
H1004  H     0.17676   0.87365   0.79101   0.00000  Uiso   1.00
H1005  H     0.33200   0.81503   0.98197   0.00000  Uiso   1.00
H1006  H     0.19216   0.86082   0.59016   0.00000  Uiso   1.00
H1007  H     0.33070   0.90614   0.91088   0.00000  Uiso   1.00
H1008  H     0.15582   0.93251   0.53376   0.00000  Uiso   1.00
H1009  H     0.05581   0.95683   0.99017   0.00000  Uiso   1.00
H1010  H     0.12685   0.77265   0.87963   0.00000  Uiso   1.00
N1011  N     0.14493   0.81890   0.73542   0.00000  Uiso   1.00
N1012  N     0.18840   0.84777   0.76457   0.00000  Uiso   1.00
O1013  O     0.29769   0.91296   0.75357   0.00000  Uiso   1.00
O1014  O     0.24881   0.77004   0.90580   0.00000  Uiso   1.00
O1015  O     0.05742   0.90371   0.74423   0.00000  Uiso   1.00
O1016  O     0.31490   0.84024   0.83380   0.00000  Uiso   1.00
O1017  O     0.07463   0.83099   0.82446   0.00000  Uiso   1.00
O1018  O     0.27592   0.76296   0.75576   0.00000  Uiso   1.00
O1019  O     0.03565   0.75371   0.74642   0.00000  Uiso   1.00
O1020  O     0.25870   0.83567   0.67554   0.00000  Uiso   1.00
O1021  O     0.01843   0.82642   0.66620   0.00000  Uiso   1.00
O1022  O     0.04676   0.86923   0.57766   0.00000  Uiso   1.00
Zn1023 Zn    0.27119   0.83951   0.75623   0.00000  Uiso   1.00
Zn1024 Zn    0.06214   0.82716   0.74376   0.00000  Uiso   1.00
C1025  C     0.34864   0.93156   0.75021   0.00000  Uiso   1.00
C1026  C     0.39669   0.85068   0.90998   0.00000  Uiso   1.00
C1027  C     0.35735   0.98636   0.75354   0.00000  Uiso   1.00
C1028  C     0.37084   0.83593   0.85392   0.00000  Uiso   1.00
C1029  C     0.64438   0.68060   0.75342   0.00000  Uiso   1.00
C1030  C     0.65212   0.73522   0.75221   0.00000  Uiso   1.00
C1031  C     0.63095   0.83557   0.64676   0.00000  Uiso   1.00
C1032  C     0.63476   0.82723   0.50453   0.00000  Uiso   1.00
C1033  C     0.61423   0.84621   0.59008   0.00000  Uiso   1.00
C1034  C     0.37277   0.89276   0.93155   0.00000  Uiso   1.00
C1035  C     0.40570   0.92192   0.97650   0.00000  Uiso   1.00
C1036  C     0.48307   0.86274   0.98391   0.00000  Uiso   1.00
C1037  C     0.46094   0.90726   0.50213   0.00000  Uiso   1.00
C1038  C     0.37956   0.92021   0.60211   0.00000  Uiso   1.00
C1039  C     0.44101   0.94981   0.61641   0.00000  Uiso   1.00
C1040  C     0.45212   0.98615   0.66682   0.00000  Uiso   1.00
C1041  C     0.55416   0.72599   0.87240   0.00000  Uiso   1.00
C1042  C     0.53693   0.68088   0.90568   0.00000  Uiso   1.00
C1043  C     0.51668   0.96409   0.87040   0.00000  Uiso   1.00
C1044  C     0.45357   0.83584   0.93565   0.00000  Uiso   1.00
C1045  C     0.53798   0.84858   0.51025   0.00000  Uiso   1.00
C1046  C     0.57344   0.82409   0.98123   0.00000  Uiso   1.00
C1047  C     0.54619   0.79655   0.93217   0.00000  Uiso   1.00
C1048  C     0.48408   0.79827   0.91300   0.00000  Uiso   1.00
C1049  C     0.55661   0.85411   0.56601   0.00000  Uiso   1.00
C1050  C     0.65555   0.84752   0.55808   0.00000  Uiso   1.00
H1051  H     0.60040   0.99657   0.75230   0.00000  Uiso   1.00
H1052  H     0.40144   0.67069   0.75615   0.00000  Uiso   1.00
H1053  H     0.36440   0.91760   0.63988   0.00000  Uiso   1.00
H1054  H     0.34891   0.94452   0.57434   0.00000  Uiso   1.00
H1055  H     0.47564   0.92175   0.62309   0.00000  Uiso   1.00
H1056  H     0.44489   0.97540   0.58284   0.00000  Uiso   1.00
H1057  H     0.41519   0.67827   0.66413   0.00000  Uiso   1.00
H1058  H     0.49337   0.67822   0.67034   0.00000  Uiso   1.00
H1059  H     0.45799   0.96282   0.70351   0.00000  Uiso   1.00
H1060  H     0.58705   0.71200   0.85152   0.00000  Uiso   1.00
H1061  H     0.51706   0.73624   0.83912   0.00000  Uiso   1.00
H1062  H     0.48983   0.79284   0.70907   0.00000  Uiso   1.00
H1063  H     0.57558   0.67333   0.93885   0.00000  Uiso   1.00
H1064  H     0.50081   0.69145   0.92418   0.00000  Uiso   1.00
H1065  H     0.47766   0.97038   0.83719   0.00000  Uiso   1.00
H1066  H     0.50448   0.93231   0.89538   0.00000  Uiso   1.00
H1067  H     0.55277   0.95164   0.85279   0.00000  Uiso   1.00
H1068  H     0.51010   0.87365   0.79101   0.00000  Uiso   1.00
H1069  H     0.66533   0.81503   0.98197   0.00000  Uiso   1.00
H1070  H     0.52549   0.86082   0.59016   0.00000  Uiso   1.00
H1071  H     0.66403   0.90614   0.91088   0.00000  Uiso   1.00
H1072  H     0.48915   0.93251   0.53376   0.00000  Uiso   1.00
H1073  H     0.38915   0.95683   0.99017   0.00000  Uiso   1.00
H1074  H     0.46018   0.77265   0.87963   0.00000  Uiso   1.00
N1075  N     0.47827   0.81890   0.73542   0.00000  Uiso   1.00
N1076  N     0.52173   0.84777   0.76457   0.00000  Uiso   1.00
O1077  O     0.63102   0.91296   0.75357   0.00000  Uiso   1.00
O1078  O     0.58214   0.77004   0.90580   0.00000  Uiso   1.00
O1079  O     0.39075   0.90371   0.74423   0.00000  Uiso   1.00
O1080  O     0.64823   0.84024   0.83380   0.00000  Uiso   1.00
O1081  O     0.40796   0.83099   0.82446   0.00000  Uiso   1.00
O1082  O     0.60925   0.76296   0.75576   0.00000  Uiso   1.00
O1083  O     0.36898   0.75371   0.74642   0.00000  Uiso   1.00
O1084  O     0.59204   0.83567   0.67554   0.00000  Uiso   1.00
O1085  O     0.35177   0.82642   0.66620   0.00000  Uiso   1.00
O1086  O     0.38009   0.86923   0.57766   0.00000  Uiso   1.00
Zn1087 Zn    0.60453   0.83951   0.75623   0.00000  Uiso   1.00
Zn1088 Zn    0.39547   0.82716   0.74376   0.00000  Uiso   1.00
C1089  C     0.68198   0.93156   0.75021   0.00000  Uiso   1.00
C1090  C     0.73002   0.85068   0.90998   0.00000  Uiso   1.00
C1091  C     0.69069   0.98636   0.75354   0.00000  Uiso   1.00
C1092  C     0.70417   0.83593   0.85392   0.00000  Uiso   1.00
C1093  C     0.97772   0.68060   0.75342   0.00000  Uiso   1.00
C1094  C     0.98545   0.73522   0.75221   0.00000  Uiso   1.00
C1095  C     0.96428   0.83557   0.64676   0.00000  Uiso   1.00
C1096  C     0.96809   0.82723   0.50453   0.00000  Uiso   1.00
C1097  C     0.94756   0.84621   0.59008   0.00000  Uiso   1.00
C1098  C     0.70610   0.89276   0.93155   0.00000  Uiso   1.00
C1099  C     0.73903   0.92192   0.97650   0.00000  Uiso   1.00
C1100  C     0.81641   0.86274   0.98391   0.00000  Uiso   1.00
C1101  C     0.79428   0.90726   0.50213   0.00000  Uiso   1.00
C1102  C     0.71289   0.92021   0.60211   0.00000  Uiso   1.00
C1103  C     0.77435   0.94981   0.61641   0.00000  Uiso   1.00
C1104  C     0.78545   0.98615   0.66682   0.00000  Uiso   1.00
C1105  C     0.88749   0.72599   0.87240   0.00000  Uiso   1.00
C1106  C     0.87026   0.68088   0.90568   0.00000  Uiso   1.00
C1107  C     0.85001   0.96409   0.87040   0.00000  Uiso   1.00
C1108  C     0.78690   0.83584   0.93565   0.00000  Uiso   1.00
C1109  C     0.87131   0.84858   0.51025   0.00000  Uiso   1.00
C1110  C     0.90678   0.82409   0.98123   0.00000  Uiso   1.00
C1111  C     0.87953   0.79655   0.93217   0.00000  Uiso   1.00
C1112  C     0.81741   0.79827   0.91300   0.00000  Uiso   1.00
C1113  C     0.88994   0.85411   0.56601   0.00000  Uiso   1.00
C1114  C     0.98888   0.84752   0.55808   0.00000  Uiso   1.00
H1115  H     0.93373   0.99657   0.75230   0.00000  Uiso   1.00
H1116  H     0.73477   0.67069   0.75615   0.00000  Uiso   1.00
H1117  H     0.69773   0.91760   0.63988   0.00000  Uiso   1.00
H1118  H     0.68224   0.94452   0.57434   0.00000  Uiso   1.00
H1119  H     0.80897   0.92175   0.62309   0.00000  Uiso   1.00
H1120  H     0.77822   0.97540   0.58284   0.00000  Uiso   1.00
H1121  H     0.74852   0.67827   0.66413   0.00000  Uiso   1.00
H1122  H     0.82670   0.67822   0.67034   0.00000  Uiso   1.00
H1123  H     0.79132   0.96282   0.70351   0.00000  Uiso   1.00
H1124  H     0.92038   0.71200   0.85152   0.00000  Uiso   1.00
H1125  H     0.85040   0.73624   0.83912   0.00000  Uiso   1.00
H1126  H     0.82316   0.79284   0.70907   0.00000  Uiso   1.00
H1127  H     0.90892   0.67333   0.93885   0.00000  Uiso   1.00
H1128  H     0.83414   0.69145   0.92418   0.00000  Uiso   1.00
H1129  H     0.81099   0.97038   0.83719   0.00000  Uiso   1.00
H1130  H     0.83781   0.93231   0.89538   0.00000  Uiso   1.00
H1131  H     0.88610   0.95164   0.85279   0.00000  Uiso   1.00
H1132  H     0.84343   0.87365   0.79101   0.00000  Uiso   1.00
H1133  H     0.99867   0.81503   0.98197   0.00000  Uiso   1.00
H1134  H     0.85883   0.86082   0.59016   0.00000  Uiso   1.00
H1135  H     0.99736   0.90614   0.91088   0.00000  Uiso   1.00
H1136  H     0.82249   0.93251   0.53376   0.00000  Uiso   1.00
H1137  H     0.72248   0.95683   0.99017   0.00000  Uiso   1.00
H1138  H     0.79351   0.77265   0.87963   0.00000  Uiso   1.00
N1139  N     0.81160   0.81890   0.73542   0.00000  Uiso   1.00
N1140  N     0.85507   0.84777   0.76457   0.00000  Uiso   1.00
O1141  O     0.96435   0.91296   0.75357   0.00000  Uiso   1.00
O1142  O     0.91548   0.77004   0.90580   0.00000  Uiso   1.00
O1143  O     0.72408   0.90371   0.74423   0.00000  Uiso   1.00
O1144  O     0.98157   0.84024   0.83380   0.00000  Uiso   1.00
O1145  O     0.74130   0.83099   0.82446   0.00000  Uiso   1.00
O1146  O     0.94258   0.76296   0.75576   0.00000  Uiso   1.00
O1147  O     0.70231   0.75371   0.74642   0.00000  Uiso   1.00
O1148  O     0.92537   0.83567   0.67554   0.00000  Uiso   1.00
O1149  O     0.68510   0.82642   0.66620   0.00000  Uiso   1.00
O1150  O     0.71343   0.86923   0.57766   0.00000  Uiso   1.00
Zn1151 Zn    0.93786   0.83951   0.75623   0.00000  Uiso   1.00
Zn1152 Zn    0.72881   0.82716   0.74376   0.00000  Uiso   1.00
loop_
_geom_bond_atom_site_label_1
_geom_bond_atom_site_label_2
_geom_bond_distance
_geom_bond_site_symmetry_2
_ccdc_geom_bond_type
C1     O55     1.294   .     A
C1     C3      1.401   .     S
C1     O181    1.279   1_455 S
C2     C4      1.438   .     S
C2     C20     1.420   .     A
C2     C10     1.408   .     A
C3     C325    1.337   1_455 S
C3     H220    1.086   .     S
C4     O57     1.290   .     A
C4     O184    1.302   1_455 S
C5     C6      1.400   .     S
C5     C451    1.337   1_545 S
C5     H411    1.088   1_545 S
C6     O58     1.291   .     A
C6     O123    1.281   .     S
C7     O60     1.302   .     A
C7     C9      1.439   .     S
C7     O125    1.288   .     S
C8     C26     1.404   .     A
C8     C598    1.413   1_554 S
C8     H621    1.079   1_554 S
C9     C25     1.374   .     A
C9     C26     1.409   .     A
C10    C11     1.382   .     A
C10    H175    1.084   1_455 S
C11    H49     1.082   .     S
C11    C589    1.386   .     S
C12    C20     1.393   .     A
C12    C589    1.399   .     S
C12    C597    1.379   .     S
C13    H48     1.077   .     S
C13    C587    1.386   1_554 S
C13    C588    1.399   1_554 S
C14    H30     1.116   .     S
C14    H29     1.105   .     S
C14    O62     1.434   .     S
C14    C15     1.538   .     S
C15    H31     1.108   .     S
C15    H32     1.107   .     S
C15    C16     1.524   .     S
C16    H35     1.107   .     S
C16    H225    1.111   .     S
C16    H226    1.111   .     S
C17    H36     1.111   .     S
C17    C18     1.538   .     S
C17    H37     1.110   .     S
C17    O54     1.415   .     S
C18    H39     1.112   .     S
C18    H40     1.110   .     S
C18    C403    1.526   1_545 S
C19    H42     1.109   .     S
C19    H43     1.111   .     S
C19    H41     1.110   .     S
C19    C210    1.526   .     S
C20    C24     1.428   .     A
C21    C25     1.381   .     A
C21    C588    1.379   1_554 S
C21    C598    1.407   1_554 S
C22    C23     1.404   .     A
C22    C584    1.413   .     S
C22    C597    1.407   .     S
C23    C24     1.425   .     A
C23    O54     1.398   .     S
C24    H50     1.075   .     S
C25    H46     1.082   .     S
C26    O126    1.398   .     S
H27    C197    1.088   .     S
H28    C387    1.086   1_545 S
H33    C400    1.111   1_545 S
H34    C400    1.111   1_545 S
H38    N51     1.029   .     S
H44    N52     1.029   .     S
H45    C584    1.079   .     S
H47    C74     1.084   .     S
N51    N52     1.279   .     D
N51    Zn64    2.030   .     S
N52    Zn63    2.030   .     S
O53    Zn63    1.947   .     S
O53    C65     1.279   .     S
O55    Zn64    1.971   .     S
O56    Zn63    1.992   .     S
O56    C68     1.302   .     S
O57    Zn64    2.002   .     S
O58    Zn63    1.971   .     S
O59    Zn64    1.947   .     S
O59    C134    1.281   1_455 S
O60    Zn63    2.002   .     S
O61    Zn64    1.992   .     S
O61    C135    1.288   1_455 S
O62    C154    1.398   1_455 S
C65    O119    1.294   .     A
C65    C67     1.401   .     S
C66    C68     1.438   .     S
C66    C84     1.420   .     A
C66    C74     1.408   .     A
C67    C197    1.337   .     S
C67    H284    1.086   .     S
C68    O121    1.290   .     A
C69    C70     1.400   .     S
C69    C515    1.337   1_545 S
C69    H475    1.088   1_545 S
C70    O122    1.291   .     A
C70    O187    1.281   .     S
C71    O124    1.302   .     A
C71    C73     1.439   .     S
C71    O189    1.288   .     S
C72    C90     1.404   .     A
C72    C662    1.413   1_554 S
C72    H685    1.079   1_554 S
C73    C89     1.374   .     A
C73    C90     1.409   .     A
C74    C75     1.382   .     A
C75    H113    1.082   .     S
C75    C653    1.386   .     S
C76    C84     1.393   .     A
C76    C653    1.399   .     S
C76    C661    1.379   .     S
C77    H112    1.077   .     S
C77    C651    1.386   1_554 S
C77    C652    1.399   1_554 S
C78    H94     1.116   .     S
C78    H93     1.105   .     S
C78    O126    1.434   .     S
C78    C79     1.538   .     S
C79    H95     1.108   .     S
C79    H96     1.107   .     S
C79    C80     1.524   .     S
C80    H99     1.107   .     S
C80    H289    1.111   .     S
C80    H290    1.111   .     S
C81    H100    1.111   .     S
C81    C82     1.538   .     S
C81    H101    1.110   .     S
C81    O118    1.415   .     S
C82    H103    1.112   .     S
C82    H104    1.110   .     S
C82    C467    1.526   1_545 S
C83    H106    1.109   .     S
C83    H107    1.111   .     S
C83    H105    1.110   .     S
C83    C274    1.526   .     S
C84    C88     1.428   .     A
C85    C89     1.381   .     A
C85    C652    1.379   1_554 S
C85    C662    1.407   1_554 S
C86    C87     1.404   .     A
C86    C648    1.413   .     S
C86    C661    1.407   .     S
C87    C88     1.425   .     A
C87    O118    1.398   .     S
C88    H114    1.075   .     S
C89    H110    1.082   .     S
C90    O190    1.398   .     S
H91    C261    1.088   .     S
H92    C451    1.086   1_545 S
H97    C464    1.111   1_545 S
H98    C464    1.111   1_545 S
H102   N115    1.029   .     S
H108   N116    1.029   .     S
H109   C648    1.079   .     S
H111   C138    1.084   .     S
N115   N116    1.279   .     D
N115   Zn128   2.030   .     S
N116   Zn127   2.030   .     S
O117   Zn127   1.947   .     S
O117   C129    1.279   .     S
O119   Zn128   1.971   .     S
O120   Zn127   1.992   .     S
O120   C132    1.302   .     S
O121   Zn128   2.002   .     S
O122   Zn127   1.971   .     S
O123   Zn128   1.947   .     S
O124   Zn127   2.002   .     S
O125   Zn128   1.992   .     S
C129   O183    1.294   .     A
C129   C131    1.401   .     S
C130   C132    1.438   .     S
C130   C148    1.420   .     A
C130   C138    1.408   .     A
C131   C261    1.337   .     S
C131   H348    1.086   .     S
C132   O185    1.290   .     A
C133   C134    1.400   .     S
C133   C387    1.337   1_645 S
C133   H539    1.088   1_545 S
C134   O186    1.291   .     A
C134   O59     1.281   1_655 S
C135   O188    1.302   .     A
C135   C137    1.439   .     S
C135   O61     1.288   1_655 S
C136   C154    1.404   .     A
C136   C726    1.413   1_554 S
C136   H749    1.079   1_554 S
C137   C153    1.374   .     A
C137   C154    1.409   .     A
C138   C139    1.382   .     A
C139   H177    1.082   .     S
C139   C717    1.386   .     S
C140   C148    1.393   .     A
C140   C717    1.399   .     S
C140   C725    1.379   .     S
C141   H176    1.077   .     S
C141   C715    1.386   1_554 S
C141   C716    1.399   1_554 S
C142   H158    1.116   .     S
C142   H157    1.105   .     S
C142   O190    1.434   .     S
C142   C143    1.538   .     S
C143   H159    1.108   .     S
C143   H160    1.107   .     S
C143   C144    1.524   .     S
C144   H163    1.107   .     S
C144   H353    1.111   .     S
C144   H354    1.111   .     S
C145   H164    1.111   .     S
C145   C146    1.538   .     S
C145   H165    1.110   .     S
C145   O182    1.415   .     S
C146   H167    1.112   .     S
C146   H168    1.110   .     S
C146   C531    1.526   1_545 S
C147   H170    1.109   .     S
C147   H171    1.111   .     S
C147   H169    1.110   .     S
C147   C338    1.526   .     S
C148   C152    1.428   .     A
C149   C153    1.381   .     A
C149   C716    1.379   1_554 S
C149   C726    1.407   1_554 S
C150   C151    1.404   .     A
C150   C712    1.413   .     S
C150   C725    1.407   .     S
C151   C152    1.425   .     A
C151   O182    1.398   .     S
C152   H178    1.075   .     S
C153   H174    1.082   .     S
C154   O62     1.398   1_655 S
H155   C325    1.088   .     S
H156   C515    1.086   1_545 S
H161   C528    1.111   1_545 S
H162   C528    1.111   1_545 S
H166   N179    1.029   .     S
H172   N180    1.029   .     S
H173   C712    1.079   .     S
H175   C10     1.084   1_655 S
N179   N180    1.279   .     D
N179   Zn192   2.030   .     S
N180   Zn191   2.030   .     S
O181   Zn191   1.947   .     S
O181   C1      1.279   1_655 S
O183   Zn192   1.971   .     S
O184   Zn191   1.992   .     S
O184   C4      1.302   1_655 S
O185   Zn192   2.002   .     S
O186   Zn191   1.971   .     S
O187   Zn192   1.947   .     S
O188   Zn191   2.002   .     S
O189   Zn192   1.992   .     S
C193   O247    1.294   .     A
C193   C195    1.401   .     S
C193   O373    1.279   1_455 S
C194   C196    1.438   .     S
C194   C212    1.420   .     A
C194   C202    1.408   .     A
C195   C517    1.337   1_455 S
C195   H412    1.086   .     S
C196   O249    1.290   .     A
C196   O376    1.302   1_455 S
C197   C198    1.400   .     S
C198   O250    1.291   .     A
C198   O315    1.281   .     S
C199   O252    1.302   .     A
C199   C201    1.439   .     S
C199   O317    1.288   .     S
C200   C218    1.404   .     A
C200   C790    1.413   1_554 S
C200   H813    1.079   1_554 S
C201   C217    1.374   .     A
C201   C218    1.409   .     A
C202   C203    1.382   .     A
C202   H367    1.084   1_455 S
C203   H241    1.082   .     S
C203   C781    1.386   .     S
C204   C212    1.393   .     A
C204   C781    1.399   .     S
C204   C789    1.379   .     S
C205   H240    1.077   .     S
C205   C779    1.386   1_554 S
C205   C780    1.399   1_554 S
C206   H222    1.116   .     S
C206   H221    1.105   .     S
C206   O254    1.434   .     S
C206   C207    1.538   .     S
C207   H223    1.108   .     S
C207   H224    1.107   .     S
C207   C208    1.524   .     S
C208   H227    1.107   .     S
C208   H417    1.111   .     S
C208   H418    1.111   .     S
C209   H228    1.111   .     S
C209   C210    1.538   .     S
C209   H229    1.110   .     S
C209   O246    1.415   .     S
C210   H231    1.112   .     S
C210   H232    1.110   .     S
C211   H234    1.109   .     S
C211   H235    1.111   .     S
C211   H233    1.110   .     S
C211   C402    1.526   .     S
C212   C216    1.428   .     A
C213   C217    1.381   .     A
C213   C780    1.379   1_554 S
C213   C790    1.407   1_554 S
C214   C215    1.404   .     A
C214   C776    1.413   .     S
C214   C789    1.407   .     S
C215   C216    1.425   .     A
C215   O246    1.398   .     S
C216   H242    1.075   .     S
C217   H238    1.082   .     S
C218   O318    1.398   .     S
H219   C389    1.088   .     S
H230   N243    1.029   .     S
H236   N244    1.029   .     S
H237   C776    1.079   .     S
H239   C266    1.084   .     S
N243   N244    1.279   .     D
N243   Zn256   2.030   .     S
N244   Zn255   2.030   .     S
O245   Zn255   1.947   .     S
O245   C257    1.279   .     S
O247   Zn256   1.971   .     S
O248   Zn255   1.992   .     S
O248   C260    1.302   .     S
O249   Zn256   2.002   .     S
O250   Zn255   1.971   .     S
O251   Zn256   1.947   .     S
O251   C326    1.281   1_455 S
O252   Zn255   2.002   .     S
O253   Zn256   1.992   .     S
O253   C327    1.288   1_455 S
O254   C346    1.398   1_455 S
C257   O311    1.294   .     A
C257   C259    1.401   .     S
C258   C260    1.438   .     S
C258   C276    1.420   .     A
C258   C266    1.408   .     A
C259   C389    1.337   .     S
C259   H476    1.086   .     S
C260   O313    1.290   .     A
C261   C262    1.400   .     S
C262   O314    1.291   .     A
C262   O379    1.281   .     S
C263   O316    1.302   .     A
C263   C265    1.439   .     S
C263   O381    1.288   .     S
C264   C282    1.404   .     A
C264   C854    1.413   1_554 S
C264   H877    1.079   1_554 S
C265   C281    1.374   .     A
C265   C282    1.409   .     A
C266   C267    1.382   .     A
C267   H305    1.082   .     S
C267   C845    1.386   .     S
C268   C276    1.393   .     A
C268   C845    1.399   .     S
C268   C853    1.379   .     S
C269   H304    1.077   .     S
C269   C843    1.386   1_554 S
C269   C844    1.399   1_554 S
C270   H286    1.116   .     S
C270   H285    1.105   .     S
C270   O318    1.434   .     S
C270   C271    1.538   .     S
C271   H287    1.108   .     S
C271   H288    1.107   .     S
C271   C272    1.524   .     S
C272   H291    1.107   .     S
C272   H481    1.111   .     S
C272   H482    1.111   .     S
C273   H292    1.111   .     S
C273   C274    1.538   .     S
C273   H293    1.110   .     S
C273   O310    1.415   .     S
C274   H295    1.112   .     S
C274   H296    1.110   .     S
C275   H298    1.109   .     S
C275   H299    1.111   .     S
C275   H297    1.110   .     S
C275   C466    1.526   .     S
C276   C280    1.428   .     A
C277   C281    1.381   .     A
C277   C844    1.379   1_554 S
C277   C854    1.407   1_554 S
C278   C279    1.404   .     A
C278   C840    1.413   .     S
C278   C853    1.407   .     S
C279   C280    1.425   .     A
C279   O310    1.398   .     S
C280   H306    1.075   .     S
C281   H302    1.082   .     S
C282   O382    1.398   .     S
H283   C453    1.088   .     S
H294   N307    1.029   .     S
H300   N308    1.029   .     S
H301   C840    1.079   .     S
H303   C330    1.084   .     S
N307   N308    1.279   .     D
N307   Zn320   2.030   .     S
N308   Zn319   2.030   .     S
O309   Zn319   1.947   .     S
O309   C321    1.279   .     S
O311   Zn320   1.971   .     S
O312   Zn319   1.992   .     S
O312   C324    1.302   .     S
O313   Zn320   2.002   .     S
O314   Zn319   1.971   .     S
O315   Zn320   1.947   .     S
O316   Zn319   2.002   .     S
O317   Zn320   1.992   .     S
C321   O375    1.294   .     A
C321   C323    1.401   .     S
C322   C324    1.438   .     S
C322   C340    1.420   .     A
C322   C330    1.408   .     A
C323   C453    1.337   .     S
C323   H540    1.086   .     S
C324   O377    1.290   .     A
C325   C326    1.400   .     S
C325   C3      1.337   1_655 S
C326   O378    1.291   .     A
C326   O251    1.281   1_655 S
C327   O380    1.302   .     A
C327   C329    1.439   .     S
C327   O253    1.288   1_655 S
C328   C346    1.404   .     A
C328   C918    1.413   1_554 S
C328   H941    1.079   1_554 S
C329   C345    1.374   .     A
C329   C346    1.409   .     A
C330   C331    1.382   .     A
C331   H369    1.082   .     S
C331   C909    1.386   .     S
C332   C340    1.393   .     A
C332   C909    1.399   .     S
C332   C917    1.379   .     S
C333   H368    1.077   .     S
C333   C907    1.386   1_554 S
C333   C908    1.399   1_554 S
C334   H350    1.116   .     S
C334   H349    1.105   .     S
C334   O382    1.434   .     S
C334   C335    1.538   .     S
C335   H351    1.108   .     S
C335   H352    1.107   .     S
C335   C336    1.524   .     S
C336   H355    1.107   .     S
C336   H545    1.111   .     S
C336   H546    1.111   .     S
C337   H356    1.111   .     S
C337   C338    1.538   .     S
C337   H357    1.110   .     S
C337   O374    1.415   .     S
C338   H359    1.112   .     S
C338   H360    1.110   .     S
C339   H362    1.109   .     S
C339   H363    1.111   .     S
C339   H361    1.110   .     S
C339   C530    1.526   .     S
C340   C344    1.428   .     A
C341   C345    1.381   .     A
C341   C908    1.379   1_554 S
C341   C918    1.407   1_554 S
C342   C343    1.404   .     A
C342   C904    1.413   .     S
C342   C917    1.407   .     S
C343   C344    1.425   .     A
C343   O374    1.398   .     S
C344   H370    1.075   .     S
C345   H366    1.082   .     S
C346   O254    1.398   1_655 S
H347   C517    1.088   .     S
H358   N371    1.029   .     S
H364   N372    1.029   .     S
H365   C904    1.079   .     S
H367   C202    1.084   1_655 S
N371   N372    1.279   .     D
N371   Zn384   2.030   .     S
N372   Zn383   2.030   .     S
O373   Zn383   1.947   .     S
O373   C193    1.279   1_655 S
O375   Zn384   1.971   .     S
O376   Zn383   1.992   .     S
O376   C196    1.302   1_655 S
O377   Zn384   2.002   .     S
O378   Zn383   1.971   .     S
O379   Zn384   1.947   .     S
O380   Zn383   2.002   .     S
O381   Zn384   1.992   .     S
C385   O439    1.294   .     A
C385   C387    1.401   .     S
C385   O565    1.279   1_455 S
C386   C388    1.438   .     S
C386   C404    1.420   .     A
C386   C394    1.408   .     A
C387   C133    1.337   1_465 S
C387   H28     1.086   1_565 S
C388   O441    1.290   .     A
C388   O568    1.302   1_455 S
C389   C390    1.400   .     S
C390   O442    1.291   .     A
C390   O507    1.281   .     S
C391   O444    1.302   .     A
C391   C393    1.439   .     S
C391   O509    1.288   .     S
C392   C410    1.404   .     A
C392   C982    1.413   1_554 S
C392   H1005   1.079   1_554 S
C393   C409    1.374   .     A
C393   C410    1.409   .     A
C394   C395    1.382   .     A
C394   H559    1.084   1_455 S
C395   H433    1.082   .     S
C395   C973    1.386   .     S
C396   C404    1.393   .     A
C396   C973    1.399   .     S
C396   C981    1.379   .     S
C397   H432    1.077   .     S
C397   C971    1.386   1_554 S
C397   C972    1.399   1_554 S
C398   H414    1.116   .     S
C398   H413    1.105   .     S
C398   O446    1.434   .     S
C398   C399    1.538   .     S
C399   H415    1.108   .     S
C399   H416    1.107   .     S
C399   C400    1.524   .     S
C400   H419    1.107   .     S
C400   H33     1.111   1_565 S
C400   H34     1.111   1_565 S
C401   H420    1.111   .     S
C401   C402    1.538   .     S
C401   H421    1.110   .     S
C401   O438    1.415   .     S
C402   H423    1.112   .     S
C402   H424    1.110   .     S
C403   H426    1.109   .     S
C403   H427    1.111   .     S
C403   H425    1.110   .     S
C403   C18     1.526   1_565 S
C404   C408    1.428   .     A
C405   C409    1.381   .     A
C405   C972    1.379   1_554 S
C405   C982    1.407   1_554 S
C406   C407    1.404   .     A
C406   C968    1.413   .     S
C406   C981    1.407   .     S
C407   C408    1.425   .     A
C407   O438    1.398   .     S
C408   H434    1.075   .     S
C409   H430    1.082   .     S
C410   O510    1.398   .     S
H411   C5      1.088   1_565 S
H422   N435    1.029   .     S
H428   N436    1.029   .     S
H429   C968    1.079   .     S
H431   C458    1.084   .     S
N435   N436    1.279   .     D
N435   Zn448   2.030   .     S
N436   Zn447   2.030   .     S
O437   Zn447   1.947   .     S
O437   C449    1.279   .     S
O439   Zn448   1.971   .     S
O440   Zn447   1.992   .     S
O440   C452    1.302   .     S
O441   Zn448   2.002   .     S
O442   Zn447   1.971   .     S
O443   Zn448   1.947   .     S
O443   C518    1.281   1_455 S
O444   Zn447   2.002   .     S
O445   Zn448   1.992   .     S
O445   C519    1.288   1_455 S
O446   C538    1.398   1_455 S
C449   O503    1.294   .     A
C449   C451    1.401   .     S
C450   C452    1.438   .     S
C450   C468    1.420   .     A
C450   C458    1.408   .     A
C451   C5      1.337   1_565 S
C451   H92     1.086   1_565 S
C452   O505    1.290   .     A
C453   C454    1.400   .     S
C454   O506    1.291   .     A
C454   O571    1.281   .     S
C455   O508    1.302   .     A
C455   C457    1.439   .     S
C455   O573    1.288   .     S
C456   C474    1.404   .     A
C456   C1046   1.413   1_554 S
C456   H1069   1.079   1_554 S
C457   C473    1.374   .     A
C457   C474    1.409   .     A
C458   C459    1.382   .     A
C459   H497    1.082   .     S
C459   C1037   1.386   .     S
C460   C468    1.393   .     A
C460   C1037   1.399   .     S
C460   C1045   1.379   .     S
C461   H496    1.077   .     S
C461   C1035   1.386   1_554 S
C461   C1036   1.399   1_554 S
C462   H478    1.116   .     S
C462   H477    1.105   .     S
C462   O510    1.434   .     S
C462   C463    1.538   .     S
C463   H479    1.108   .     S
C463   H480    1.107   .     S
C463   C464    1.524   .     S
C464   H483    1.107   .     S
C464   H97     1.111   1_565 S
C464   H98     1.111   1_565 S
C465   H484    1.111   .     S
C465   C466    1.538   .     S
C465   H485    1.110   .     S
C465   O502    1.415   .     S
C466   H487    1.112   .     S
C466   H488    1.110   .     S
C467   H490    1.109   .     S
C467   H491    1.111   .     S
C467   H489    1.110   .     S
C467   C82     1.526   1_565 S
C468   C472    1.428   .     A
C469   C473    1.381   .     A
C469   C1036   1.379   1_554 S
C469   C1046   1.407   1_554 S
C470   C471    1.404   .     A
C470   C1032   1.413   .     S
C470   C1045   1.407   .     S
C471   C472    1.425   .     A
C471   O502    1.398   .     S
C472   H498    1.075   .     S
C473   H494    1.082   .     S
C474   O574    1.398   .     S
H475   C69     1.088   1_565 S
H486   N499    1.029   .     S
H492   N500    1.029   .     S
H493   C1032   1.079   .     S
H495   C522    1.084   .     S
N499   N500    1.279   .     D
N499   Zn512   2.030   .     S
N500   Zn511   2.030   .     S
O501   Zn511   1.947   .     S
O501   C513    1.279   .     S
O503   Zn512   1.971   .     S
O504   Zn511   1.992   .     S
O504   C516    1.302   .     S
O505   Zn512   2.002   .     S
O506   Zn511   1.971   .     S
O507   Zn512   1.947   .     S
O508   Zn511   2.002   .     S
O509   Zn512   1.992   .     S
C513   O567    1.294   .     A
C513   C515    1.401   .     S
C514   C516    1.438   .     S
C514   C532    1.420   .     A
C514   C522    1.408   .     A
C515   C69     1.337   1_565 S
C515   H156    1.086   1_565 S
C516   O569    1.290   .     A
C517   C518    1.400   .     S
C517   C195    1.337   1_655 S
C518   O570    1.291   .     A
C518   O443    1.281   1_655 S
C519   O572    1.302   .     A
C519   C521    1.439   .     S
C519   O445    1.288   1_655 S
C520   C538    1.404   .     A
C520   C1110   1.413   1_554 S
C520   H1133   1.079   1_554 S
C521   C537    1.374   .     A
C521   C538    1.409   .     A
C522   C523    1.382   .     A
C523   H561    1.082   .     S
C523   C1101   1.386   .     S
C524   C532    1.393   .     A
C524   C1101   1.399   .     S
C524   C1109   1.379   .     S
C525   H560    1.077   .     S
C525   C1099   1.386   1_554 S
C525   C1100   1.399   1_554 S
C526   H542    1.116   .     S
C526   H541    1.105   .     S
C526   O574    1.434   .     S
C526   C527    1.538   .     S
C527   H543    1.108   .     S
C527   H544    1.107   .     S
C527   C528    1.524   .     S
C528   H547    1.107   .     S
C528   H161    1.111   1_565 S
C528   H162    1.111   1_565 S
C529   H548    1.111   .     S
C529   C530    1.538   .     S
C529   H549    1.110   .     S
C529   O566    1.415   .     S
C530   H551    1.112   .     S
C530   H552    1.110   .     S
C531   H554    1.109   .     S
C531   H555    1.111   .     S
C531   H553    1.110   .     S
C531   C146    1.526   1_565 S
C532   C536    1.428   .     A
C533   C537    1.381   .     A
C533   C1100   1.379   1_554 S
C533   C1110   1.407   1_554 S
C534   C535    1.404   .     A
C534   C1096   1.413   .     S
C534   C1109   1.407   .     S
C535   C536    1.425   .     A
C535   O566    1.398   .     S
C536   H562    1.075   .     S
C537   H558    1.082   .     S
C538   O446    1.398   1_655 S
H539   C133    1.088   1_565 S
H550   N563    1.029   .     S
H556   N564    1.029   .     S
H557   C1096   1.079   .     S
H559   C394    1.084   1_655 S
N563   N564    1.279   .     D
N563   Zn576   2.030   .     S
N564   Zn575   2.030   .     S
O565   Zn575   1.947   .     S
O565   C385    1.279   1_655 S
O567   Zn576   1.971   .     S
O568   Zn575   1.992   .     S
O568   C388    1.302   1_655 S
O569   Zn576   2.002   .     S
O570   Zn575   1.971   .     S
O571   Zn576   1.947   .     S
O572   Zn575   2.002   .     S
O573   Zn576   1.992   .     S
C577   O631    1.294   .     A
C577   C579    1.401   .     S
C577   O757    1.279   1_455 S
C578   C580    1.438   .     S
C578   C596    1.420   .     A
C578   C586    1.408   .     A
C579   C901    1.337   1_455 S
C579   H796    1.086   .     S
C580   O633    1.290   .     A
C580   O760    1.302   1_455 S
C581   C582    1.400   .     S
C581   C1027   1.337   1_545 S
C581   H987    1.088   1_545 S
C582   O634    1.291   .     A
C582   O699    1.281   .     S
C583   O636    1.302   .     A
C583   C585    1.439   .     S
C583   O701    1.288   .     S
C584   C602    1.404   .     A
C585   C601    1.374   .     A
C585   C602    1.409   .     A
C586   C587    1.382   .     A
C586   H751    1.084   1_455 S
C587   H625    1.082   .     S
C587   C13     1.386   1_556 S
C588   C596    1.393   .     A
C588   C13     1.399   1_556 S
C588   C21     1.379   1_556 S
C589   H624    1.077   .     S
C590   H606    1.116   .     S
C590   H605    1.105   .     S
C590   O638    1.434   .     S
C590   C591    1.538   .     S
C591   H607    1.108   .     S
C591   H608    1.107   .     S
C591   C592    1.524   .     S
C592   H611    1.107   .     S
C592   H801    1.111   .     S
C592   H802    1.111   .     S
C593   H612    1.111   .     S
C593   C594    1.538   .     S
C593   H613    1.110   .     S
C593   O630    1.415   .     S
C594   H615    1.112   .     S
C594   H616    1.110   .     S
C594   C979    1.526   1_545 S
C595   H618    1.109   .     S
C595   H619    1.111   .     S
C595   H617    1.110   .     S
C595   C786    1.526   .     S
C596   C600    1.428   .     A
C597   C601    1.381   .     A
C598   C599    1.404   .     A
C598   C8      1.413   1_556 S
C598   C21     1.407   1_556 S
C599   C600    1.425   .     A
C599   O630    1.398   .     S
C600   H626    1.075   .     S
C601   H622    1.082   .     S
C602   O702    1.398   .     S
H603   C773    1.088   .     S
H604   C963    1.086   1_545 S
H609   C976    1.111   1_545 S
H610   C976    1.111   1_545 S
H614   N627    1.029   .     S
H620   N628    1.029   .     S
H621   C8      1.079   1_556 S
H623   C650    1.084   .     S
N627   N628    1.279   .     D
N627   Zn640   2.030   .     S
N628   Zn639   2.030   .     S
O629   Zn639   1.947   .     S
O629   C641    1.279   .     S
O631   Zn640   1.971   .     S
O632   Zn639   1.992   .     S
O632   C644    1.302   .     S
O633   Zn640   2.002   .     S
O634   Zn639   1.971   .     S
O635   Zn640   1.947   .     S
O635   C710    1.281   1_455 S
O636   Zn639   2.002   .     S
O637   Zn640   1.992   .     S
O637   C711    1.288   1_455 S
O638   C730    1.398   1_455 S
C641   O695    1.294   .     A
C641   C643    1.401   .     S
C642   C644    1.438   .     S
C642   C660    1.420   .     A
C642   C650    1.408   .     A
C643   C773    1.337   .     S
C643   H860    1.086   .     S
C644   O697    1.290   .     A
C645   C646    1.400   .     S
C645   C1091   1.337   1_545 S
C645   H1051   1.088   1_545 S
C646   O698    1.291   .     A
C646   O763    1.281   .     S
C647   O700    1.302   .     A
C647   C649    1.439   .     S
C647   O765    1.288   .     S
C648   C666    1.404   .     A
C649   C665    1.374   .     A
C649   C666    1.409   .     A
C650   C651    1.382   .     A
C651   H689    1.082   .     S
C651   C77     1.386   1_556 S
C652   C660    1.393   .     A
C652   C77     1.399   1_556 S
C652   C85     1.379   1_556 S
C653   H688    1.077   .     S
C654   H670    1.116   .     S
C654   H669    1.105   .     S
C654   O702    1.434   .     S
C654   C655    1.538   .     S
C655   H671    1.108   .     S
C655   H672    1.107   .     S
C655   C656    1.524   .     S
C656   H675    1.107   .     S
C656   H865    1.111   .     S
C656   H866    1.111   .     S
C657   H676    1.111   .     S
C657   C658    1.538   .     S
C657   H677    1.110   .     S
C657   O694    1.415   .     S
C658   H679    1.112   .     S
C658   H680    1.110   .     S
C658   C1043   1.526   1_545 S
C659   H682    1.109   .     S
C659   H683    1.111   .     S
C659   H681    1.110   .     S
C659   C850    1.526   .     S
C660   C664    1.428   .     A
C661   C665    1.381   .     A
C662   C663    1.404   .     A
C662   C72     1.413   1_556 S
C662   C85     1.407   1_556 S
C663   C664    1.425   .     A
C663   O694    1.398   .     S
C664   H690    1.075   .     S
C665   H686    1.082   .     S
C666   O766    1.398   .     S
H667   C837    1.088   .     S
H668   C1027   1.086   1_545 S
H673   C1040   1.111   1_545 S
H674   C1040   1.111   1_545 S
H678   N691    1.029   .     S
H684   N692    1.029   .     S
H685   C72     1.079   1_556 S
H687   C714    1.084   .     S
N691   N692    1.279   .     D
N691   Zn704   2.030   .     S
N692   Zn703   2.030   .     S
O693   Zn703   1.947   .     S
O693   C705    1.279   .     S
O695   Zn704   1.971   .     S
O696   Zn703   1.992   .     S
O696   C708    1.302   .     S
O697   Zn704   2.002   .     S
O698   Zn703   1.971   .     S
O699   Zn704   1.947   .     S
O700   Zn703   2.002   .     S
O701   Zn704   1.992   .     S
C705   O759    1.294   .     A
C705   C707    1.401   .     S
C706   C708    1.438   .     S
C706   C724    1.420   .     A
C706   C714    1.408   .     A
C707   C837    1.337   .     S
C707   H924    1.086   .     S
C708   O761    1.290   .     A
C709   C710    1.400   .     S
C709   C963    1.337   1_645 S
C709   H1115   1.088   1_545 S
C710   O762    1.291   .     A
C710   O635    1.281   1_655 S
C711   O764    1.302   .     A
C711   C713    1.439   .     S
C711   O637    1.288   1_655 S
C712   C730    1.404   .     A
C713   C729    1.374   .     A
C713   C730    1.409   .     A
C714   C715    1.382   .     A
C715   H753    1.082   .     S
C715   C141    1.386   1_556 S
C716   C724    1.393   .     A
C716   C141    1.399   1_556 S
C716   C149    1.379   1_556 S
C717   H752    1.077   .     S
C718   H734    1.116   .     S
C718   H733    1.105   .     S
C718   O766    1.434   .     S
C718   C719    1.538   .     S
C719   H735    1.108   .     S
C719   H736    1.107   .     S
C719   C720    1.524   .     S
C720   H739    1.107   .     S
C720   H929    1.111   .     S
C720   H930    1.111   .     S
C721   H740    1.111   .     S
C721   C722    1.538   .     S
C721   H741    1.110   .     S
C721   O758    1.415   .     S
C722   H743    1.112   .     S
C722   H744    1.110   .     S
C722   C1107   1.526   1_545 S
C723   H746    1.109   .     S
C723   H747    1.111   .     S
C723   H745    1.110   .     S
C723   C914    1.526   .     S
C724   C728    1.428   .     A
C725   C729    1.381   .     A
C726   C727    1.404   .     A
C726   C136    1.413   1_556 S
C726   C149    1.407   1_556 S
C727   C728    1.425   .     A
C727   O758    1.398   .     S
C728   H754    1.075   .     S
C729   H750    1.082   .     S
C730   O638    1.398   1_655 S
H731   C901    1.088   .     S
H732   C1091   1.086   1_545 S
H737   C1104   1.111   1_545 S
H738   C1104   1.111   1_545 S
H742   N755    1.029   .     S
H748   N756    1.029   .     S
H749   C136    1.079   1_556 S
H751   C586    1.084   1_655 S
N755   N756    1.279   .     D
N755   Zn768   2.030   .     S
N756   Zn767   2.030   .     S
O757   Zn767   1.947   .     S
O757   C577    1.279   1_655 S
O759   Zn768   1.971   .     S
O760   Zn767   1.992   .     S
O760   C580    1.302   1_655 S
O761   Zn768   2.002   .     S
O762   Zn767   1.971   .     S
O763   Zn768   1.947   .     S
O764   Zn767   2.002   .     S
O765   Zn768   1.992   .     S
C769   O823    1.294   .     A
C769   C771    1.401   .     S
C769   O949    1.279   1_455 S
C770   C772    1.438   .     S
C770   C788    1.420   .     A
C770   C778    1.408   .     A
C771   C1093   1.337   1_455 S
C771   H988    1.086   .     S
C772   O825    1.290   .     A
C772   O952    1.302   1_455 S
C773   C774    1.400   .     S
C774   O826    1.291   .     A
C774   O891    1.281   .     S
C775   O828    1.302   .     A
C775   C777    1.439   .     S
C775   O893    1.288   .     S
C776   C794    1.404   .     A
C777   C793    1.374   .     A
C777   C794    1.409   .     A
C778   C779    1.382   .     A
C778   H943    1.084   1_455 S
C779   H817    1.082   .     S
C779   C205    1.386   1_556 S
C780   C788    1.393   .     A
C780   C205    1.399   1_556 S
C780   C213    1.379   1_556 S
C781   H816    1.077   .     S
C782   H798    1.116   .     S
C782   H797    1.105   .     S
C782   O830    1.434   .     S
C782   C783    1.538   .     S
C783   H799    1.108   .     S
C783   H800    1.107   .     S
C783   C784    1.524   .     S
C784   H803    1.107   .     S
C784   H993    1.111   .     S
C784   H994    1.111   .     S
C785   H804    1.111   .     S
C785   C786    1.538   .     S
C785   H805    1.110   .     S
C785   O822    1.415   .     S
C786   H807    1.112   .     S
C786   H808    1.110   .     S
C787   H810    1.109   .     S
C787   H811    1.111   .     S
C787   H809    1.110   .     S
C787   C978    1.526   .     S
C788   C792    1.428   .     A
C789   C793    1.381   .     A
C790   C791    1.404   .     A
C790   C200    1.413   1_556 S
C790   C213    1.407   1_556 S
C791   C792    1.425   .     A
C791   O822    1.398   .     S
C792   H818    1.075   .     S
C793   H814    1.082   .     S
C794   O894    1.398   .     S
H795   C965    1.088   .     S
H806   N819    1.029   .     S
H812   N820    1.029   .     S
H813   C200    1.079   1_556 S
H815   C842    1.084   .     S
N819   N820    1.279   .     D
N819   Zn832   2.030   .     S
N820   Zn831   2.030   .     S
O821   Zn831   1.947   .     S
O821   C833    1.279   .     S
O823   Zn832   1.971   .     S
O824   Zn831   1.992   .     S
O824   C836    1.302   .     S
O825   Zn832   2.002   .     S
O826   Zn831   1.971   .     S
O827   Zn832   1.947   .     S
O827   C902    1.281   1_455 S
O828   Zn831   2.002   .     S
O829   Zn832   1.992   .     S
O829   C903    1.288   1_455 S
O830   C922    1.398   1_455 S
C833   O887    1.294   .     A
C833   C835    1.401   .     S
C834   C836    1.438   .     S
C834   C852    1.420   .     A
C834   C842    1.408   .     A
C835   C965    1.337   .     S
C835   H1052   1.086   .     S
C836   O889    1.290   .     A
C837   C838    1.400   .     S
C838   O890    1.291   .     A
C838   O955    1.281   .     S
C839   O892    1.302   .     A
C839   C841    1.439   .     S
C839   O957    1.288   .     S
C840   C858    1.404   .     A
C841   C857    1.374   .     A
C841   C858    1.409   .     A
C842   C843    1.382   .     A
C843   H881    1.082   .     S
C843   C269    1.386   1_556 S
C844   C852    1.393   .     A
C844   C269    1.399   1_556 S
C844   C277    1.379   1_556 S
C845   H880    1.077   .     S
C846   H862    1.116   .     S
C846   H861    1.105   .     S
C846   O894    1.434   .     S
C846   C847    1.538   .     S
C847   H863    1.108   .     S
C847   H864    1.107   .     S
C847   C848    1.524   .     S
C848   H867    1.107   .     S
C848   H1057   1.111   .     S
C848   H1058   1.111   .     S
C849   H868    1.111   .     S
C849   C850    1.538   .     S
C849   H869    1.110   .     S
C849   O886    1.415   .     S
C850   H871    1.112   .     S
C850   H872    1.110   .     S
C851   H874    1.109   .     S
C851   H875    1.111   .     S
C851   H873    1.110   .     S
C851   C1042   1.526   .     S
C852   C856    1.428   .     A
C853   C857    1.381   .     A
C854   C855    1.404   .     A
C854   C264    1.413   1_556 S
C854   C277    1.407   1_556 S
C855   C856    1.425   .     A
C855   O886    1.398   .     S
C856   H882    1.075   .     S
C857   H878    1.082   .     S
C858   O958    1.398   .     S
H859   C1029   1.088   .     S
H870   N883    1.029   .     S
H876   N884    1.029   .     S
H877   C264    1.079   1_556 S
H879   C906    1.084   .     S
N883   N884    1.279   .     D
N883   Zn896   2.030   .     S
N884   Zn895   2.030   .     S
O885   Zn895   1.947   .     S
O885   C897    1.279   .     S
O887   Zn896   1.971   .     S
O888   Zn895   1.992   .     S
O888   C900    1.302   .     S
O889   Zn896   2.002   .     S
O890   Zn895   1.971   .     S
O891   Zn896   1.947   .     S
O892   Zn895   2.002   .     S
O893   Zn896   1.992   .     S
C897   O951    1.294   .     A
C897   C899    1.401   .     S
C898   C900    1.438   .     S
C898   C916    1.420   .     A
C898   C906    1.408   .     A
C899   C1029   1.337   .     S
C899   H1116   1.086   .     S
C900   O953    1.290   .     A
C901   C902    1.400   .     S
C901   C579    1.337   1_655 S
C902   O954    1.291   .     A
C902   O827    1.281   1_655 S
C903   O956    1.302   .     A
C903   C905    1.439   .     S
C903   O829    1.288   1_655 S
C904   C922    1.404   .     A
C905   C921    1.374   .     A
C905   C922    1.409   .     A
C906   C907    1.382   .     A
C907   H945    1.082   .     S
C907   C333    1.386   1_556 S
C908   C916    1.393   .     A
C908   C333    1.399   1_556 S
C908   C341    1.379   1_556 S
C909   H944    1.077   .     S
C910   H926    1.116   .     S
C910   H925    1.105   .     S
C910   O958    1.434   .     S
C910   C911    1.538   .     S
C911   H927    1.108   .     S
C911   H928    1.107   .     S
C911   C912    1.524   .     S
C912   H931    1.107   .     S
C912   H1121   1.111   .     S
C912   H1122   1.111   .     S
C913   H932    1.111   .     S
C913   C914    1.538   .     S
C913   H933    1.110   .     S
C913   O950    1.415   .     S
C914   H935    1.112   .     S
C914   H936    1.110   .     S
C915   H938    1.109   .     S
C915   H939    1.111   .     S
C915   H937    1.110   .     S
C915   C1106   1.526   .     S
C916   C920    1.428   .     A
C917   C921    1.381   .     A
C918   C919    1.404   .     A
C918   C328    1.413   1_556 S
C918   C341    1.407   1_556 S
C919   C920    1.425   .     A
C919   O950    1.398   .     S
C920   H946    1.075   .     S
C921   H942    1.082   .     S
C922   O830    1.398   1_655 S
H923   C1093   1.088   .     S
H934   N947    1.029   .     S
H940   N948    1.029   .     S
H941   C328    1.079   1_556 S
H943   C778    1.084   1_655 S
N947   N948    1.279   .     D
N947   Zn960   2.030   .     S
N948   Zn959   2.030   .     S
O949   Zn959   1.947   .     S
O949   C769    1.279   1_655 S
O951   Zn960   1.971   .     S
O952   Zn959   1.992   .     S
O952   C772    1.302   1_655 S
O953   Zn960   2.002   .     S
O954   Zn959   1.971   .     S
O955   Zn960   1.947   .     S
O956   Zn959   2.002   .     S
O957   Zn960   1.992   .     S
C961   O1015   1.294   .     A
C961   C963    1.401   .     S
C961   O1141   1.279   1_455 S
C962   C964    1.438   .     S
C962   C980    1.420   .     A
C962   C970    1.408   .     A
C963   C709    1.337   1_465 S
C963   H604    1.086   1_565 S
C964   O1017   1.290   .     A
C964   O1144   1.302   1_455 S
C965   C966    1.400   .     S
C966   O1018   1.291   .     A
C966   O1083   1.281   .     S
C967   O1020   1.302   .     A
C967   C969    1.439   .     S
C967   O1085   1.288   .     S
C968   C986    1.404   .     A
C969   C985    1.374   .     A
C969   C986    1.409   .     A
C970   C971    1.382   .     A
C970   H1135   1.084   1_455 S
C971   H1009   1.082   .     S
C971   C397    1.386   1_556 S
C972   C980    1.393   .     A
C972   C397    1.399   1_556 S
C972   C405    1.379   1_556 S
C973   H1008   1.077   .     S
C974   H990    1.116   .     S
C974   H989    1.105   .     S
C974   O1022   1.434   .     S
C974   C975    1.538   .     S
C975   H991    1.108   .     S
C975   H992    1.107   .     S
C975   C976    1.524   .     S
C976   H995    1.107   .     S
C976   H609    1.111   1_565 S
C976   H610    1.111   1_565 S
C977   H996    1.111   .     S
C977   C978    1.538   .     S
C977   H997    1.110   .     S
C977   O1014   1.415   .     S
C978   H999    1.112   .     S
C978   H1000   1.110   .     S
C979   H1002   1.109   .     S
C979   H1003   1.111   .     S
C979   H1001   1.110   .     S
C979   C594    1.526   1_565 S
C980   C984    1.428   .     A
C981   C985    1.381   .     A
C982   C983    1.404   .     A
C982   C392    1.413   1_556 S
C982   C405    1.407   1_556 S
C983   C984    1.425   .     A
C983   O1014   1.398   .     S
C984   H1010   1.075   .     S
C985   H1006   1.082   .     S
C986   O1086   1.398   .     S
H987   C581    1.088   1_565 S
H998   N1011   1.029   .     S
H1004  N1012   1.029   .     S
H1005  C392    1.079   1_556 S
H1007  C1034   1.084   .     S
N1011  N1012   1.279   .     D
N1011  Zn1024  2.030   .     S
N1012  Zn1023  2.030   .     S
O1013  Zn1023  1.947   .     S
O1013  C1025   1.279   .     S
O1015  Zn1024  1.971   .     S
O1016  Zn1023  1.992   .     S
O1016  C1028   1.302   .     S
O1017  Zn1024  2.002   .     S
O1018  Zn1023  1.971   .     S
O1019  Zn1024  1.947   .     S
O1019  C1094   1.281   1_455 S
O1020  Zn1023  2.002   .     S
O1021  Zn1024  1.992   .     S
O1021  C1095   1.288   1_455 S
O1022  C1114   1.398   1_455 S
C1025  O1079   1.294   .     A
C1025  C1027   1.401   .     S
C1026  C1028   1.438   .     S
C1026  C1044   1.420   .     A
C1026  C1034   1.408   .     A
C1027  C581    1.337   1_565 S
C1027  H668    1.086   1_565 S
C1028  O1081   1.290   .     A
C1029  C1030   1.400   .     S
C1030  O1082   1.291   .     A
C1030  O1147   1.281   .     S
C1031  O1084   1.302   .     A
C1031  C1033   1.439   .     S
C1031  O1149   1.288   .     S
C1032  C1050   1.404   .     A
C1033  C1049   1.374   .     A
C1033  C1050   1.409   .     A
C1034  C1035   1.382   .     A
C1035  H1073   1.082   .     S
C1035  C461    1.386   1_556 S
C1036  C1044   1.393   .     A
C1036  C461    1.399   1_556 S
C1036  C469    1.379   1_556 S
C1037  H1072   1.077   .     S
C1038  H1054   1.116   .     S
C1038  H1053   1.105   .     S
C1038  O1086   1.434   .     S
C1038  C1039   1.538   .     S
C1039  H1055   1.108   .     S
C1039  H1056   1.107   .     S
C1039  C1040   1.524   .     S
C1040  H1059   1.107   .     S
C1040  H673    1.111   1_565 S
C1040  H674    1.111   1_565 S
C1041  H1060   1.111   .     S
C1041  C1042   1.538   .     S
C1041  H1061   1.110   .     S
C1041  O1078   1.415   .     S
C1042  H1063   1.112   .     S
C1042  H1064   1.110   .     S
C1043  H1066   1.109   .     S
C1043  H1067   1.111   .     S
C1043  H1065   1.110   .     S
C1043  C658    1.526   1_565 S
C1044  C1048   1.428   .     A
C1045  C1049   1.381   .     A
C1046  C1047   1.404   .     A
C1046  C456    1.413   1_556 S
C1046  C469    1.407   1_556 S
C1047  C1048   1.425   .     A
C1047  O1078   1.398   .     S
C1048  H1074   1.075   .     S
C1049  H1070   1.082   .     S
C1050  O1150   1.398   .     S
H1051  C645    1.088   1_565 S
H1062  N1075   1.029   .     S
H1068  N1076   1.029   .     S
H1069  C456    1.079   1_556 S
H1071  C1098   1.084   .     S
N1075  N1076   1.279   .     D
N1075  Zn1088  2.030   .     S
N1076  Zn1087  2.030   .     S
O1077  Zn1087  1.947   .     S
O1077  C1089   1.279   .     S
O1079  Zn1088  1.971   .     S
O1080  Zn1087  1.992   .     S
O1080  C1092   1.302   .     S
O1081  Zn1088  2.002   .     S
O1082  Zn1087  1.971   .     S
O1083  Zn1088  1.947   .     S
O1084  Zn1087  2.002   .     S
O1085  Zn1088  1.992   .     S
C1089  O1143   1.294   .     A
C1089  C1091   1.401   .     S
C1090  C1092   1.438   .     S
C1090  C1108   1.420   .     A
C1090  C1098   1.408   .     A
C1091  C645    1.337   1_565 S
C1091  H732    1.086   1_565 S
C1092  O1145   1.290   .     A
C1093  C1094   1.400   .     S
C1093  C771    1.337   1_655 S
C1094  O1146   1.291   .     A
C1094  O1019   1.281   1_655 S
C1095  O1148   1.302   .     A
C1095  C1097   1.439   .     S
C1095  O1021   1.288   1_655 S
C1096  C1114   1.404   .     A
C1097  C1113   1.374   .     A
C1097  C1114   1.409   .     A
C1098  C1099   1.382   .     A
C1099  H1137   1.082   .     S
C1099  C525    1.386   1_556 S
C1100  C1108   1.393   .     A
C1100  C525    1.399   1_556 S
C1100  C533    1.379   1_556 S
C1101  H1136   1.077   .     S
C1102  H1118   1.116   .     S
C1102  H1117   1.105   .     S
C1102  O1150   1.434   .     S
C1102  C1103   1.538   .     S
C1103  H1119   1.108   .     S
C1103  H1120   1.107   .     S
C1103  C1104   1.524   .     S
C1104  H1123   1.107   .     S
C1104  H737    1.111   1_565 S
C1104  H738    1.111   1_565 S
C1105  H1124   1.111   .     S
C1105  C1106   1.538   .     S
C1105  H1125   1.110   .     S
C1105  O1142   1.415   .     S
C1106  H1127   1.112   .     S
C1106  H1128   1.110   .     S
C1107  H1130   1.109   .     S
C1107  H1131   1.111   .     S
C1107  H1129   1.110   .     S
C1107  C722    1.526   1_565 S
C1108  C1112   1.428   .     A
C1109  C1113   1.381   .     A
C1110  C1111   1.404   .     A
C1110  C520    1.413   1_556 S
C1110  C533    1.407   1_556 S
C1111  C1112   1.425   .     A
C1111  O1142   1.398   .     S
C1112  H1138   1.075   .     S
C1113  H1134   1.082   .     S
C1114  O1022   1.398   1_655 S
H1115  C709    1.088   1_565 S
H1126  N1139   1.029   .     S
H1132  N1140   1.029   .     S
H1133  C520    1.079   1_556 S
H1135  C970    1.084   1_655 S
N1139  N1140   1.279   .     D
N1139  Zn1152  2.030   .     S
N1140  Zn1151  2.030   .     S
O1141  Zn1151  1.947   .     S
O1141  C961    1.279   1_655 S
O1143  Zn1152  1.971   .     S
O1144  Zn1151  1.992   .     S
O1144  C964    1.302   1_655 S
O1145  Zn1152  2.002   .     S
O1146  Zn1151  1.971   .     S
O1147  Zn1152  1.947   .     S
O1148  Zn1151  2.002   .     S
O1149  Zn1152  1.992   .     S
