data_str_m2_o1_o10_pcu_sym.200
_audit_creation_date              2020-01-03
_audit_creation_method            'Materials Studio'
_symmetry_space_group_name_H-M    'P1'
_symmetry_Int_Tables_number       1
_symmetry_cell_setting            triclinic
loop_
_symmetry_equiv_pos_as_xyz
  x,y,z
_cell_length_a                    26.1528
_cell_length_b                    32.2927
_cell_length_c                    28.8735
_cell_angle_alpha                 88.3972
_cell_angle_beta                  97.5124
_cell_angle_gamma                 91.9948
loop_
_atom_site_label
_atom_site_type_symbol
_atom_site_fract_x
_atom_site_fract_y
_atom_site_fract_z
_atom_site_U_iso_or_equiv
_atom_site_adp_type
_atom_site_occupancy
C1     C     0.16749   0.08757   0.16722   0.00000  Uiso   1.00
C2     C     0.16544   0.24574   0.16612   0.00000  Uiso   1.00
C3     C     0.06808   0.16681   0.15470   0.00000  Uiso   1.00
C4     C     0.26526   0.16696   0.17859   0.00000  Uiso   1.00
C5     C     0.01278   0.16677   0.14812   0.00000  Uiso   1.00
C6     C     0.32054   0.16759   0.18508   0.00000  Uiso   1.00
C7     C     0.13369   0.02245   0.13386   0.00000  Uiso   1.00
C8     C     0.19819   0.31085   0.20005   0.00000  Uiso   1.00
C9     C     0.13066   0.31290   0.13302   0.00000  Uiso   1.00
C10    C     0.20091   0.02037   0.20115   0.00000  Uiso   1.00
C11    C     0.16438   0.29038   0.16587   0.00000  Uiso   1.00
C12    C     0.16783   0.04292   0.16780   0.00000  Uiso   1.00
C13    C     0.13929   0.13751   0.02350   0.00000  Uiso   1.00
C14    C     0.19239   0.19691   0.30991   0.00000  Uiso   1.00
C15    C     0.14189   0.13499   0.30820   0.00000  Uiso   1.00
C16    C     0.19412   0.19668   0.02599   0.00000  Uiso   1.00
Cu17   Cu    0.16667   0.16667   0.21355   0.00000  Uiso   1.00
Cu18   Cu    0.16667   0.16666   0.11978   0.00000  Uiso   1.00
H19    H     0.32636   0.16586   0.11259   0.00000  Uiso   1.00
H20    H     0.00694   0.16882   0.22057   0.00000  Uiso   1.00
H21    H     0.10790   0.03995   0.10872   0.00000  Uiso   1.00
H22    H     0.22396   0.29339   0.22525   0.00000  Uiso   1.00
H23    H     0.11810   0.11424   0.04167   0.00000  Uiso   1.00
H24    H     0.21377   0.22049   0.29238   0.00000  Uiso   1.00
N25    N     0.16668   0.16668   0.28403   0.00000  Uiso   1.00
N26    N     0.16665   0.16666   0.04931   0.00000  Uiso   1.00
O27    O     0.16666   0.10655   0.20625   0.00000  Uiso   1.00
O28    O     0.16667   0.22678   0.12709   0.00000  Uiso   1.00
O29    O     0.16666   0.10654   0.12706   0.00000  Uiso   1.00
O30    O     0.16667   0.22679   0.20628   0.00000  Uiso   1.00
O31    O     0.09161   0.16667   0.19712   0.00000  Uiso   1.00
O32    O     0.24172   0.16666   0.13621   0.00000  Uiso   1.00
O33    O     0.09161   0.16666   0.11793   0.00000  Uiso   1.00
O34    O     0.24172   0.16667   0.21540   0.00000  Uiso   1.00
O35    O     0.09345   0.29475   0.10083   0.00000  Uiso   1.00
H36    H     0.08695   0.26561   0.11042   0.00000  Uiso   1.00
O37    O     0.23716   0.03848   0.23422   0.00000  Uiso   1.00
H38    H     0.24485   0.06733   0.22429   0.00000  Uiso   1.00
C39    C     0.12403   0.09240   0.28920   0.00000  Uiso   1.00
C40    C     0.07143   0.09106   0.25844   0.00000  Uiso   1.00
C41    C     0.04610   0.04768   0.25821   0.00000  Uiso   1.00
H42    H     0.07230   0.02473   0.24681   0.00000  Uiso   1.00
H43    H     0.03663   0.03868   0.29360   0.00000  Uiso   1.00
H44    H     0.00986   0.04733   0.23345   0.00000  Uiso   1.00
H45    H     0.04514   0.11316   0.27126   0.00000  Uiso   1.00
H46    H     0.07608   0.09885   0.22186   0.00000  Uiso   1.00
H47    H     0.15474   0.07694   0.27426   0.00000  Uiso   1.00
H48    H     0.12003   0.07055   0.31913   0.00000  Uiso   1.00
C49    C     0.22917   0.22990   0.05039   0.00000  Uiso   1.00
C50    C     0.20693   0.27319   0.04075   0.00000  Uiso   1.00
C51    C     0.24113   0.30634   0.06724   0.00000  Uiso   1.00
H52    H     0.24533   0.29946   0.10541   0.00000  Uiso   1.00
H53    H     0.27994   0.30774   0.05547   0.00000  Uiso   1.00
H54    H     0.22343   0.00371   0.06045   0.00000  Uiso   1.00
H55    H     0.20371   0.28112   0.00280   0.00000  Uiso   1.00
H56    H     0.16767   0.27360   0.05130   0.00000  Uiso   1.00
H57    H     0.23788   0.22426   0.08802   0.00000  Uiso   1.00
H58    H     0.26729   0.22941   0.03724   0.00000  Uiso   1.00
C59    C     0.50082   0.08757   0.16722   0.00000  Uiso   1.00
C60    C     0.49878   0.24574   0.16612   0.00000  Uiso   1.00
C61    C     0.40141   0.16681   0.15470   0.00000  Uiso   1.00
C62    C     0.59859   0.16696   0.17859   0.00000  Uiso   1.00
C63    C     0.34612   0.16677   0.14812   0.00000  Uiso   1.00
C64    C     0.65387   0.16759   0.18508   0.00000  Uiso   1.00
C65    C     0.46703   0.02245   0.13386   0.00000  Uiso   1.00
C66    C     0.53152   0.31085   0.20005   0.00000  Uiso   1.00
C67    C     0.46399   0.31290   0.13302   0.00000  Uiso   1.00
C68    C     0.53424   0.02037   0.20115   0.00000  Uiso   1.00
C69    C     0.49771   0.29038   0.16587   0.00000  Uiso   1.00
C70    C     0.50117   0.04292   0.16780   0.00000  Uiso   1.00
C71    C     0.47263   0.13751   0.02350   0.00000  Uiso   1.00
C72    C     0.52572   0.19691   0.30991   0.00000  Uiso   1.00
C73    C     0.47522   0.13499   0.30820   0.00000  Uiso   1.00
C74    C     0.52745   0.19668   0.02599   0.00000  Uiso   1.00
Cu75   Cu    0.50000   0.16667   0.21355   0.00000  Uiso   1.00
Cu76   Cu    0.50000   0.16666   0.11978   0.00000  Uiso   1.00
H77    H     0.65970   0.16586   0.11259   0.00000  Uiso   1.00
H78    H     0.34027   0.16882   0.22057   0.00000  Uiso   1.00
H79    H     0.44123   0.03995   0.10872   0.00000  Uiso   1.00
H80    H     0.55729   0.29339   0.22525   0.00000  Uiso   1.00
H81    H     0.45143   0.11424   0.04167   0.00000  Uiso   1.00
H82    H     0.54710   0.22049   0.29238   0.00000  Uiso   1.00
N83    N     0.50001   0.16668   0.28403   0.00000  Uiso   1.00
N84    N     0.49999   0.16666   0.04931   0.00000  Uiso   1.00
O85    O     0.50000   0.10655   0.20625   0.00000  Uiso   1.00
O86    O     0.50000   0.22678   0.12709   0.00000  Uiso   1.00
O87    O     0.50000   0.10654   0.12706   0.00000  Uiso   1.00
O88    O     0.50000   0.22679   0.20628   0.00000  Uiso   1.00
O89    O     0.42495   0.16667   0.19712   0.00000  Uiso   1.00
O90    O     0.57505   0.16666   0.13621   0.00000  Uiso   1.00
O91    O     0.42494   0.16666   0.11793   0.00000  Uiso   1.00
O92    O     0.57506   0.16667   0.21540   0.00000  Uiso   1.00
O93    O     0.42678   0.29475   0.10083   0.00000  Uiso   1.00
H94    H     0.42028   0.26561   0.11042   0.00000  Uiso   1.00
O95    O     0.57049   0.03848   0.23422   0.00000  Uiso   1.00
H96    H     0.57818   0.06733   0.22429   0.00000  Uiso   1.00
C97    C     0.45737   0.09240   0.28920   0.00000  Uiso   1.00
C98    C     0.40476   0.09106   0.25844   0.00000  Uiso   1.00
C99    C     0.37943   0.04768   0.25821   0.00000  Uiso   1.00
H100   H     0.40563   0.02473   0.24681   0.00000  Uiso   1.00
H101   H     0.36996   0.03868   0.29360   0.00000  Uiso   1.00
H102   H     0.34320   0.04733   0.23345   0.00000  Uiso   1.00
H103   H     0.37847   0.11316   0.27126   0.00000  Uiso   1.00
H104   H     0.40941   0.09885   0.22186   0.00000  Uiso   1.00
H105   H     0.48807   0.07694   0.27426   0.00000  Uiso   1.00
H106   H     0.45336   0.07055   0.31913   0.00000  Uiso   1.00
C107   C     0.56251   0.22990   0.05039   0.00000  Uiso   1.00
C108   C     0.54026   0.27319   0.04075   0.00000  Uiso   1.00
C109   C     0.57446   0.30634   0.06724   0.00000  Uiso   1.00
H110   H     0.57866   0.29946   0.10541   0.00000  Uiso   1.00
H111   H     0.61327   0.30774   0.05547   0.00000  Uiso   1.00
H112   H     0.55676   0.00371   0.06045   0.00000  Uiso   1.00
H113   H     0.53704   0.28112   0.00280   0.00000  Uiso   1.00
H114   H     0.50100   0.27360   0.05130   0.00000  Uiso   1.00
H115   H     0.57121   0.22426   0.08802   0.00000  Uiso   1.00
H116   H     0.60062   0.22941   0.03724   0.00000  Uiso   1.00
C117   C     0.83416   0.08757   0.16722   0.00000  Uiso   1.00
C118   C     0.83211   0.24574   0.16612   0.00000  Uiso   1.00
C119   C     0.73474   0.16681   0.15470   0.00000  Uiso   1.00
C120   C     0.93192   0.16696   0.17859   0.00000  Uiso   1.00
C121   C     0.67945   0.16677   0.14812   0.00000  Uiso   1.00
C122   C     0.98721   0.16759   0.18508   0.00000  Uiso   1.00
C123   C     0.80036   0.02245   0.13386   0.00000  Uiso   1.00
C124   C     0.86485   0.31085   0.20005   0.00000  Uiso   1.00
C125   C     0.79732   0.31290   0.13302   0.00000  Uiso   1.00
C126   C     0.86758   0.02037   0.20115   0.00000  Uiso   1.00
C127   C     0.83104   0.29038   0.16587   0.00000  Uiso   1.00
C128   C     0.83450   0.04292   0.16780   0.00000  Uiso   1.00
C129   C     0.80596   0.13751   0.02350   0.00000  Uiso   1.00
C130   C     0.85906   0.19691   0.30991   0.00000  Uiso   1.00
C131   C     0.80855   0.13499   0.30820   0.00000  Uiso   1.00
C132   C     0.86079   0.19668   0.02599   0.00000  Uiso   1.00
Cu133  Cu    0.83333   0.16667   0.21355   0.00000  Uiso   1.00
Cu134  Cu    0.83333   0.16666   0.11978   0.00000  Uiso   1.00
H135   H     0.99303   0.16586   0.11259   0.00000  Uiso   1.00
H136   H     0.67361   0.16882   0.22057   0.00000  Uiso   1.00
H137   H     0.77457   0.03995   0.10872   0.00000  Uiso   1.00
H138   H     0.89062   0.29339   0.22525   0.00000  Uiso   1.00
H139   H     0.78476   0.11424   0.04167   0.00000  Uiso   1.00
H140   H     0.88044   0.22049   0.29238   0.00000  Uiso   1.00
N141   N     0.83335   0.16668   0.28403   0.00000  Uiso   1.00
N142   N     0.83332   0.16666   0.04931   0.00000  Uiso   1.00
O143   O     0.83333   0.10655   0.20625   0.00000  Uiso   1.00
O144   O     0.83334   0.22678   0.12709   0.00000  Uiso   1.00
O145   O     0.83333   0.10654   0.12706   0.00000  Uiso   1.00
O146   O     0.83334   0.22679   0.20628   0.00000  Uiso   1.00
O147   O     0.75828   0.16667   0.19712   0.00000  Uiso   1.00
O148   O     0.90839   0.16666   0.13621   0.00000  Uiso   1.00
O149   O     0.75828   0.16666   0.11793   0.00000  Uiso   1.00
O150   O     0.90839   0.16667   0.21540   0.00000  Uiso   1.00
O151   O     0.76011   0.29475   0.10083   0.00000  Uiso   1.00
H152   H     0.75361   0.26561   0.11042   0.00000  Uiso   1.00
O153   O     0.90382   0.03848   0.23422   0.00000  Uiso   1.00
H154   H     0.91151   0.06733   0.22429   0.00000  Uiso   1.00
C155   C     0.79070   0.09240   0.28920   0.00000  Uiso   1.00
C156   C     0.73809   0.09106   0.25844   0.00000  Uiso   1.00
C157   C     0.71277   0.04768   0.25821   0.00000  Uiso   1.00
H158   H     0.73897   0.02473   0.24681   0.00000  Uiso   1.00
H159   H     0.70330   0.03868   0.29360   0.00000  Uiso   1.00
H160   H     0.67653   0.04733   0.23345   0.00000  Uiso   1.00
H161   H     0.71180   0.11316   0.27126   0.00000  Uiso   1.00
H162   H     0.74274   0.09885   0.22186   0.00000  Uiso   1.00
H163   H     0.82140   0.07694   0.27426   0.00000  Uiso   1.00
H164   H     0.78669   0.07055   0.31913   0.00000  Uiso   1.00
C165   C     0.89584   0.22990   0.05039   0.00000  Uiso   1.00
C166   C     0.87360   0.27319   0.04075   0.00000  Uiso   1.00
C167   C     0.90780   0.30634   0.06724   0.00000  Uiso   1.00
H168   H     0.91199   0.29946   0.10541   0.00000  Uiso   1.00
H169   H     0.94661   0.30774   0.05547   0.00000  Uiso   1.00
H170   H     0.89009   0.00371   0.06045   0.00000  Uiso   1.00
H171   H     0.87037   0.28112   0.00280   0.00000  Uiso   1.00
H172   H     0.83434   0.27360   0.05130   0.00000  Uiso   1.00
H173   H     0.90454   0.22426   0.08802   0.00000  Uiso   1.00
H174   H     0.93395   0.22941   0.03724   0.00000  Uiso   1.00
C175   C     0.16749   0.42091   0.16722   0.00000  Uiso   1.00
C176   C     0.16544   0.57908   0.16612   0.00000  Uiso   1.00
C177   C     0.06808   0.50014   0.15470   0.00000  Uiso   1.00
C178   C     0.26526   0.50030   0.17859   0.00000  Uiso   1.00
C179   C     0.01278   0.50010   0.14812   0.00000  Uiso   1.00
C180   C     0.32054   0.50092   0.18508   0.00000  Uiso   1.00
C181   C     0.13369   0.35578   0.13386   0.00000  Uiso   1.00
C182   C     0.19819   0.64419   0.20005   0.00000  Uiso   1.00
C183   C     0.13066   0.64623   0.13302   0.00000  Uiso   1.00
C184   C     0.20091   0.35370   0.20115   0.00000  Uiso   1.00
C185   C     0.16438   0.62371   0.16587   0.00000  Uiso   1.00
C186   C     0.16783   0.37625   0.16780   0.00000  Uiso   1.00
C187   C     0.13929   0.47085   0.02350   0.00000  Uiso   1.00
C188   C     0.19239   0.53024   0.30991   0.00000  Uiso   1.00
C189   C     0.14189   0.46832   0.30820   0.00000  Uiso   1.00
C190   C     0.19412   0.53001   0.02599   0.00000  Uiso   1.00
Cu191  Cu    0.16667   0.50001   0.21355   0.00000  Uiso   1.00
Cu192  Cu    0.16667   0.49999   0.11978   0.00000  Uiso   1.00
H193   H     0.32636   0.49920   0.11259   0.00000  Uiso   1.00
H194   H     0.00694   0.50216   0.22057   0.00000  Uiso   1.00
H195   H     0.10790   0.37328   0.10872   0.00000  Uiso   1.00
H196   H     0.22396   0.62672   0.22525   0.00000  Uiso   1.00
H197   H     0.11810   0.44758   0.04167   0.00000  Uiso   1.00
H198   H     0.21377   0.55383   0.29238   0.00000  Uiso   1.00
N199   N     0.16668   0.50001   0.28403   0.00000  Uiso   1.00
N200   N     0.16665   0.49999   0.04931   0.00000  Uiso   1.00
O201   O     0.16666   0.43989   0.20625   0.00000  Uiso   1.00
O202   O     0.16667   0.56011   0.12709   0.00000  Uiso   1.00
O203   O     0.16666   0.43988   0.12706   0.00000  Uiso   1.00
O204   O     0.16667   0.56012   0.20628   0.00000  Uiso   1.00
O205   O     0.09161   0.50000   0.19712   0.00000  Uiso   1.00
O206   O     0.24172   0.50000   0.13621   0.00000  Uiso   1.00
O207   O     0.09161   0.49999   0.11793   0.00000  Uiso   1.00
O208   O     0.24172   0.50001   0.21540   0.00000  Uiso   1.00
O209   O     0.09345   0.62808   0.10083   0.00000  Uiso   1.00
H210   H     0.08695   0.59894   0.11042   0.00000  Uiso   1.00
O211   O     0.23716   0.37181   0.23422   0.00000  Uiso   1.00
H212   H     0.24485   0.40066   0.22429   0.00000  Uiso   1.00
C213   C     0.12403   0.42573   0.28920   0.00000  Uiso   1.00
C214   C     0.07143   0.42439   0.25844   0.00000  Uiso   1.00
C215   C     0.04610   0.38101   0.25821   0.00000  Uiso   1.00
H216   H     0.07230   0.35806   0.24681   0.00000  Uiso   1.00
H217   H     0.03663   0.37201   0.29360   0.00000  Uiso   1.00
H218   H     0.00986   0.38066   0.23345   0.00000  Uiso   1.00
H219   H     0.04514   0.44649   0.27126   0.00000  Uiso   1.00
H220   H     0.07608   0.43218   0.22186   0.00000  Uiso   1.00
H221   H     0.15474   0.41027   0.27426   0.00000  Uiso   1.00
H222   H     0.12003   0.40388   0.31913   0.00000  Uiso   1.00
C223   C     0.22917   0.56324   0.05039   0.00000  Uiso   1.00
C224   C     0.20693   0.60652   0.04075   0.00000  Uiso   1.00
C225   C     0.24113   0.63967   0.06724   0.00000  Uiso   1.00
H226   H     0.24533   0.63279   0.10541   0.00000  Uiso   1.00
H227   H     0.27994   0.64108   0.05547   0.00000  Uiso   1.00
H228   H     0.22343   0.33705   0.06045   0.00000  Uiso   1.00
H229   H     0.20371   0.61446   0.00280   0.00000  Uiso   1.00
H230   H     0.16767   0.60694   0.05130   0.00000  Uiso   1.00
H231   H     0.23788   0.55759   0.08802   0.00000  Uiso   1.00
H232   H     0.26729   0.56275   0.03724   0.00000  Uiso   1.00
C233   C     0.50082   0.42091   0.16722   0.00000  Uiso   1.00
C234   C     0.49878   0.57908   0.16612   0.00000  Uiso   1.00
C235   C     0.40141   0.50014   0.15470   0.00000  Uiso   1.00
C236   C     0.59859   0.50030   0.17859   0.00000  Uiso   1.00
C237   C     0.34612   0.50010   0.14812   0.00000  Uiso   1.00
C238   C     0.65387   0.50092   0.18508   0.00000  Uiso   1.00
C239   C     0.46703   0.35578   0.13386   0.00000  Uiso   1.00
C240   C     0.53152   0.64419   0.20005   0.00000  Uiso   1.00
C241   C     0.46399   0.64623   0.13302   0.00000  Uiso   1.00
C242   C     0.53424   0.35370   0.20115   0.00000  Uiso   1.00
C243   C     0.49771   0.62371   0.16587   0.00000  Uiso   1.00
C244   C     0.50117   0.37625   0.16780   0.00000  Uiso   1.00
C245   C     0.47263   0.47085   0.02350   0.00000  Uiso   1.00
C246   C     0.52572   0.53024   0.30991   0.00000  Uiso   1.00
C247   C     0.47522   0.46832   0.30820   0.00000  Uiso   1.00
C248   C     0.52745   0.53001   0.02599   0.00000  Uiso   1.00
Cu249  Cu    0.50000   0.50001   0.21355   0.00000  Uiso   1.00
Cu250  Cu    0.50000   0.49999   0.11978   0.00000  Uiso   1.00
H251   H     0.65970   0.49920   0.11259   0.00000  Uiso   1.00
H252   H     0.34027   0.50216   0.22057   0.00000  Uiso   1.00
H253   H     0.44123   0.37328   0.10872   0.00000  Uiso   1.00
H254   H     0.55729   0.62672   0.22525   0.00000  Uiso   1.00
H255   H     0.45143   0.44758   0.04167   0.00000  Uiso   1.00
H256   H     0.54710   0.55383   0.29238   0.00000  Uiso   1.00
N257   N     0.50001   0.50001   0.28403   0.00000  Uiso   1.00
N258   N     0.49999   0.49999   0.04931   0.00000  Uiso   1.00
O259   O     0.50000   0.43989   0.20625   0.00000  Uiso   1.00
O260   O     0.50000   0.56011   0.12709   0.00000  Uiso   1.00
O261   O     0.50000   0.43988   0.12706   0.00000  Uiso   1.00
O262   O     0.50000   0.56012   0.20628   0.00000  Uiso   1.00
O263   O     0.42495   0.50000   0.19712   0.00000  Uiso   1.00
O264   O     0.57505   0.50000   0.13621   0.00000  Uiso   1.00
O265   O     0.42494   0.49999   0.11793   0.00000  Uiso   1.00
O266   O     0.57506   0.50001   0.21540   0.00000  Uiso   1.00
O267   O     0.42678   0.62808   0.10083   0.00000  Uiso   1.00
H268   H     0.42028   0.59894   0.11042   0.00000  Uiso   1.00
O269   O     0.57049   0.37181   0.23422   0.00000  Uiso   1.00
H270   H     0.57818   0.40066   0.22429   0.00000  Uiso   1.00
C271   C     0.45737   0.42573   0.28920   0.00000  Uiso   1.00
C272   C     0.40476   0.42439   0.25844   0.00000  Uiso   1.00
C273   C     0.37943   0.38101   0.25821   0.00000  Uiso   1.00
H274   H     0.40563   0.35806   0.24681   0.00000  Uiso   1.00
H275   H     0.36996   0.37201   0.29360   0.00000  Uiso   1.00
H276   H     0.34320   0.38066   0.23345   0.00000  Uiso   1.00
H277   H     0.37847   0.44649   0.27126   0.00000  Uiso   1.00
H278   H     0.40941   0.43218   0.22186   0.00000  Uiso   1.00
H279   H     0.48807   0.41027   0.27426   0.00000  Uiso   1.00
H280   H     0.45336   0.40388   0.31913   0.00000  Uiso   1.00
C281   C     0.56251   0.56324   0.05039   0.00000  Uiso   1.00
C282   C     0.54026   0.60652   0.04075   0.00000  Uiso   1.00
C283   C     0.57446   0.63967   0.06724   0.00000  Uiso   1.00
H284   H     0.57866   0.63279   0.10541   0.00000  Uiso   1.00
H285   H     0.61327   0.64108   0.05547   0.00000  Uiso   1.00
H286   H     0.55676   0.33705   0.06045   0.00000  Uiso   1.00
H287   H     0.53704   0.61446   0.00280   0.00000  Uiso   1.00
H288   H     0.50100   0.60694   0.05130   0.00000  Uiso   1.00
H289   H     0.57121   0.55759   0.08802   0.00000  Uiso   1.00
H290   H     0.60062   0.56275   0.03724   0.00000  Uiso   1.00
C291   C     0.83416   0.42091   0.16722   0.00000  Uiso   1.00
C292   C     0.83211   0.57908   0.16612   0.00000  Uiso   1.00
C293   C     0.73474   0.50014   0.15470   0.00000  Uiso   1.00
C294   C     0.93192   0.50030   0.17859   0.00000  Uiso   1.00
C295   C     0.67945   0.50010   0.14812   0.00000  Uiso   1.00
C296   C     0.98721   0.50092   0.18508   0.00000  Uiso   1.00
C297   C     0.80036   0.35578   0.13386   0.00000  Uiso   1.00
C298   C     0.86485   0.64419   0.20005   0.00000  Uiso   1.00
C299   C     0.79732   0.64623   0.13302   0.00000  Uiso   1.00
C300   C     0.86758   0.35370   0.20115   0.00000  Uiso   1.00
C301   C     0.83104   0.62371   0.16587   0.00000  Uiso   1.00
C302   C     0.83450   0.37625   0.16780   0.00000  Uiso   1.00
C303   C     0.80596   0.47085   0.02350   0.00000  Uiso   1.00
C304   C     0.85906   0.53024   0.30991   0.00000  Uiso   1.00
C305   C     0.80855   0.46832   0.30820   0.00000  Uiso   1.00
C306   C     0.86079   0.53001   0.02599   0.00000  Uiso   1.00
Cu307  Cu    0.83333   0.50001   0.21355   0.00000  Uiso   1.00
Cu308  Cu    0.83333   0.49999   0.11978   0.00000  Uiso   1.00
H309   H     0.99303   0.49920   0.11259   0.00000  Uiso   1.00
H310   H     0.67361   0.50216   0.22057   0.00000  Uiso   1.00
H311   H     0.77457   0.37328   0.10872   0.00000  Uiso   1.00
H312   H     0.89062   0.62672   0.22525   0.00000  Uiso   1.00
H313   H     0.78476   0.44758   0.04167   0.00000  Uiso   1.00
H314   H     0.88044   0.55383   0.29238   0.00000  Uiso   1.00
N315   N     0.83335   0.50001   0.28403   0.00000  Uiso   1.00
N316   N     0.83332   0.49999   0.04931   0.00000  Uiso   1.00
O317   O     0.83333   0.43989   0.20625   0.00000  Uiso   1.00
O318   O     0.83334   0.56011   0.12709   0.00000  Uiso   1.00
O319   O     0.83333   0.43988   0.12706   0.00000  Uiso   1.00
O320   O     0.83334   0.56012   0.20628   0.00000  Uiso   1.00
O321   O     0.75828   0.50000   0.19712   0.00000  Uiso   1.00
O322   O     0.90839   0.50000   0.13621   0.00000  Uiso   1.00
O323   O     0.75828   0.49999   0.11793   0.00000  Uiso   1.00
O324   O     0.90839   0.50001   0.21540   0.00000  Uiso   1.00
O325   O     0.76011   0.62808   0.10083   0.00000  Uiso   1.00
H326   H     0.75361   0.59894   0.11042   0.00000  Uiso   1.00
O327   O     0.90382   0.37181   0.23422   0.00000  Uiso   1.00
H328   H     0.91151   0.40066   0.22429   0.00000  Uiso   1.00
C329   C     0.79070   0.42573   0.28920   0.00000  Uiso   1.00
C330   C     0.73809   0.42439   0.25844   0.00000  Uiso   1.00
C331   C     0.71277   0.38101   0.25821   0.00000  Uiso   1.00
H332   H     0.73897   0.35806   0.24681   0.00000  Uiso   1.00
H333   H     0.70330   0.37201   0.29360   0.00000  Uiso   1.00
H334   H     0.67653   0.38066   0.23345   0.00000  Uiso   1.00
H335   H     0.71180   0.44649   0.27126   0.00000  Uiso   1.00
H336   H     0.74274   0.43218   0.22186   0.00000  Uiso   1.00
H337   H     0.82140   0.41027   0.27426   0.00000  Uiso   1.00
H338   H     0.78669   0.40388   0.31913   0.00000  Uiso   1.00
C339   C     0.89584   0.56324   0.05039   0.00000  Uiso   1.00
C340   C     0.87360   0.60652   0.04075   0.00000  Uiso   1.00
C341   C     0.90780   0.63967   0.06724   0.00000  Uiso   1.00
H342   H     0.91199   0.63279   0.10541   0.00000  Uiso   1.00
H343   H     0.94661   0.64108   0.05547   0.00000  Uiso   1.00
H344   H     0.89009   0.33705   0.06045   0.00000  Uiso   1.00
H345   H     0.87037   0.61446   0.00280   0.00000  Uiso   1.00
H346   H     0.83434   0.60694   0.05130   0.00000  Uiso   1.00
H347   H     0.90454   0.55759   0.08802   0.00000  Uiso   1.00
H348   H     0.93395   0.56275   0.03724   0.00000  Uiso   1.00
C349   C     0.16749   0.75424   0.16722   0.00000  Uiso   1.00
C350   C     0.16544   0.91241   0.16612   0.00000  Uiso   1.00
C351   C     0.06808   0.83347   0.15470   0.00000  Uiso   1.00
C352   C     0.26526   0.83363   0.17859   0.00000  Uiso   1.00
C353   C     0.01278   0.83343   0.14812   0.00000  Uiso   1.00
C354   C     0.32054   0.83425   0.18508   0.00000  Uiso   1.00
C355   C     0.13369   0.68912   0.13386   0.00000  Uiso   1.00
C356   C     0.19819   0.97752   0.20005   0.00000  Uiso   1.00
C357   C     0.13066   0.97957   0.13302   0.00000  Uiso   1.00
C358   C     0.20091   0.68704   0.20115   0.00000  Uiso   1.00
C359   C     0.16438   0.95704   0.16587   0.00000  Uiso   1.00
C360   C     0.16783   0.70959   0.16780   0.00000  Uiso   1.00
C361   C     0.13929   0.80418   0.02350   0.00000  Uiso   1.00
C362   C     0.19239   0.86357   0.30991   0.00000  Uiso   1.00
C363   C     0.14189   0.80166   0.30820   0.00000  Uiso   1.00
C364   C     0.19412   0.86335   0.02599   0.00000  Uiso   1.00
Cu365  Cu    0.16667   0.83334   0.21355   0.00000  Uiso   1.00
Cu366  Cu    0.16667   0.83333   0.11978   0.00000  Uiso   1.00
H367   H     0.32636   0.83253   0.11259   0.00000  Uiso   1.00
H368   H     0.00694   0.83549   0.22057   0.00000  Uiso   1.00
H369   H     0.10790   0.70662   0.10872   0.00000  Uiso   1.00
H370   H     0.22396   0.96006   0.22525   0.00000  Uiso   1.00
H371   H     0.11810   0.78091   0.04167   0.00000  Uiso   1.00
H372   H     0.21377   0.88716   0.29238   0.00000  Uiso   1.00
N373   N     0.16668   0.83334   0.28403   0.00000  Uiso   1.00
N374   N     0.16665   0.83332   0.04931   0.00000  Uiso   1.00
O375   O     0.16666   0.77322   0.20625   0.00000  Uiso   1.00
O376   O     0.16667   0.89345   0.12709   0.00000  Uiso   1.00
O377   O     0.16666   0.77321   0.12706   0.00000  Uiso   1.00
O378   O     0.16667   0.89346   0.20628   0.00000  Uiso   1.00
O379   O     0.09161   0.83334   0.19712   0.00000  Uiso   1.00
O380   O     0.24172   0.83333   0.13621   0.00000  Uiso   1.00
O381   O     0.09161   0.83333   0.11793   0.00000  Uiso   1.00
O382   O     0.24172   0.83334   0.21540   0.00000  Uiso   1.00
O383   O     0.09345   0.96141   0.10083   0.00000  Uiso   1.00
H384   H     0.08695   0.93227   0.11042   0.00000  Uiso   1.00
O385   O     0.23716   0.70514   0.23422   0.00000  Uiso   1.00
H386   H     0.24485   0.73399   0.22429   0.00000  Uiso   1.00
C387   C     0.12403   0.75907   0.28920   0.00000  Uiso   1.00
C388   C     0.07143   0.75773   0.25844   0.00000  Uiso   1.00
C389   C     0.04610   0.71435   0.25821   0.00000  Uiso   1.00
H390   H     0.07230   0.69139   0.24681   0.00000  Uiso   1.00
H391   H     0.03663   0.70534   0.29360   0.00000  Uiso   1.00
H392   H     0.00986   0.71399   0.23345   0.00000  Uiso   1.00
H393   H     0.04514   0.77983   0.27126   0.00000  Uiso   1.00
H394   H     0.07608   0.76551   0.22186   0.00000  Uiso   1.00
H395   H     0.15474   0.74361   0.27426   0.00000  Uiso   1.00
H396   H     0.12003   0.73722   0.31913   0.00000  Uiso   1.00
C397   C     0.22917   0.89657   0.05039   0.00000  Uiso   1.00
C398   C     0.20693   0.93986   0.04075   0.00000  Uiso   1.00
C399   C     0.24113   0.97300   0.06724   0.00000  Uiso   1.00
H400   H     0.24533   0.96613   0.10541   0.00000  Uiso   1.00
H401   H     0.27994   0.97441   0.05547   0.00000  Uiso   1.00
H402   H     0.22343   0.67038   0.06045   0.00000  Uiso   1.00
H403   H     0.20371   0.94779   0.00280   0.00000  Uiso   1.00
H404   H     0.16767   0.94027   0.05130   0.00000  Uiso   1.00
H405   H     0.23788   0.89093   0.08802   0.00000  Uiso   1.00
H406   H     0.26729   0.89608   0.03724   0.00000  Uiso   1.00
C407   C     0.50082   0.75424   0.16722   0.00000  Uiso   1.00
C408   C     0.49878   0.91241   0.16612   0.00000  Uiso   1.00
C409   C     0.40141   0.83347   0.15470   0.00000  Uiso   1.00
C410   C     0.59859   0.83363   0.17859   0.00000  Uiso   1.00
C411   C     0.34612   0.83343   0.14812   0.00000  Uiso   1.00
C412   C     0.65387   0.83425   0.18508   0.00000  Uiso   1.00
C413   C     0.46703   0.68912   0.13386   0.00000  Uiso   1.00
C414   C     0.53152   0.97752   0.20005   0.00000  Uiso   1.00
C415   C     0.46399   0.97957   0.13302   0.00000  Uiso   1.00
C416   C     0.53424   0.68704   0.20115   0.00000  Uiso   1.00
C417   C     0.49771   0.95704   0.16587   0.00000  Uiso   1.00
C418   C     0.50117   0.70959   0.16780   0.00000  Uiso   1.00
C419   C     0.47263   0.80418   0.02350   0.00000  Uiso   1.00
C420   C     0.52572   0.86357   0.30991   0.00000  Uiso   1.00
C421   C     0.47522   0.80166   0.30820   0.00000  Uiso   1.00
C422   C     0.52745   0.86335   0.02599   0.00000  Uiso   1.00
Cu423  Cu    0.50000   0.83334   0.21355   0.00000  Uiso   1.00
Cu424  Cu    0.50000   0.83333   0.11978   0.00000  Uiso   1.00
H425   H     0.65970   0.83253   0.11259   0.00000  Uiso   1.00
H426   H     0.34027   0.83549   0.22057   0.00000  Uiso   1.00
H427   H     0.44123   0.70662   0.10872   0.00000  Uiso   1.00
H428   H     0.55729   0.96006   0.22525   0.00000  Uiso   1.00
H429   H     0.45143   0.78091   0.04167   0.00000  Uiso   1.00
H430   H     0.54710   0.88716   0.29238   0.00000  Uiso   1.00
N431   N     0.50001   0.83334   0.28403   0.00000  Uiso   1.00
N432   N     0.49999   0.83332   0.04931   0.00000  Uiso   1.00
O433   O     0.50000   0.77322   0.20625   0.00000  Uiso   1.00
O434   O     0.50000   0.89345   0.12709   0.00000  Uiso   1.00
O435   O     0.50000   0.77321   0.12706   0.00000  Uiso   1.00
O436   O     0.50000   0.89346   0.20628   0.00000  Uiso   1.00
O437   O     0.42495   0.83334   0.19712   0.00000  Uiso   1.00
O438   O     0.57505   0.83333   0.13621   0.00000  Uiso   1.00
O439   O     0.42494   0.83333   0.11793   0.00000  Uiso   1.00
O440   O     0.57506   0.83334   0.21540   0.00000  Uiso   1.00
O441   O     0.42678   0.96141   0.10083   0.00000  Uiso   1.00
H442   H     0.42028   0.93227   0.11042   0.00000  Uiso   1.00
O443   O     0.57049   0.70514   0.23422   0.00000  Uiso   1.00
H444   H     0.57818   0.73399   0.22429   0.00000  Uiso   1.00
C445   C     0.45737   0.75907   0.28920   0.00000  Uiso   1.00
C446   C     0.40476   0.75773   0.25844   0.00000  Uiso   1.00
C447   C     0.37943   0.71435   0.25821   0.00000  Uiso   1.00
H448   H     0.40563   0.69139   0.24681   0.00000  Uiso   1.00
H449   H     0.36996   0.70534   0.29360   0.00000  Uiso   1.00
H450   H     0.34320   0.71399   0.23345   0.00000  Uiso   1.00
H451   H     0.37847   0.77983   0.27126   0.00000  Uiso   1.00
H452   H     0.40941   0.76551   0.22186   0.00000  Uiso   1.00
H453   H     0.48807   0.74361   0.27426   0.00000  Uiso   1.00
H454   H     0.45336   0.73722   0.31913   0.00000  Uiso   1.00
C455   C     0.56251   0.89657   0.05039   0.00000  Uiso   1.00
C456   C     0.54026   0.93986   0.04075   0.00000  Uiso   1.00
C457   C     0.57446   0.97300   0.06724   0.00000  Uiso   1.00
H458   H     0.57866   0.96613   0.10541   0.00000  Uiso   1.00
H459   H     0.61327   0.97441   0.05547   0.00000  Uiso   1.00
H460   H     0.55676   0.67038   0.06045   0.00000  Uiso   1.00
H461   H     0.53704   0.94779   0.00280   0.00000  Uiso   1.00
H462   H     0.50100   0.94027   0.05130   0.00000  Uiso   1.00
H463   H     0.57121   0.89093   0.08802   0.00000  Uiso   1.00
H464   H     0.60062   0.89608   0.03724   0.00000  Uiso   1.00
C465   C     0.83416   0.75424   0.16722   0.00000  Uiso   1.00
C466   C     0.83211   0.91241   0.16612   0.00000  Uiso   1.00
C467   C     0.73474   0.83347   0.15470   0.00000  Uiso   1.00
C468   C     0.93192   0.83363   0.17859   0.00000  Uiso   1.00
C469   C     0.67945   0.83343   0.14812   0.00000  Uiso   1.00
C470   C     0.98721   0.83425   0.18508   0.00000  Uiso   1.00
C471   C     0.80036   0.68912   0.13386   0.00000  Uiso   1.00
C472   C     0.86485   0.97752   0.20005   0.00000  Uiso   1.00
C473   C     0.79732   0.97957   0.13302   0.00000  Uiso   1.00
C474   C     0.86758   0.68704   0.20115   0.00000  Uiso   1.00
C475   C     0.83104   0.95704   0.16587   0.00000  Uiso   1.00
C476   C     0.83450   0.70959   0.16780   0.00000  Uiso   1.00
C477   C     0.80596   0.80418   0.02350   0.00000  Uiso   1.00
C478   C     0.85906   0.86357   0.30991   0.00000  Uiso   1.00
C479   C     0.80855   0.80166   0.30820   0.00000  Uiso   1.00
C480   C     0.86079   0.86335   0.02599   0.00000  Uiso   1.00
Cu481  Cu    0.83333   0.83334   0.21355   0.00000  Uiso   1.00
Cu482  Cu    0.83333   0.83333   0.11978   0.00000  Uiso   1.00
H483   H     0.99303   0.83253   0.11259   0.00000  Uiso   1.00
H484   H     0.67361   0.83549   0.22057   0.00000  Uiso   1.00
H485   H     0.77457   0.70662   0.10872   0.00000  Uiso   1.00
H486   H     0.89062   0.96006   0.22525   0.00000  Uiso   1.00
H487   H     0.78476   0.78091   0.04167   0.00000  Uiso   1.00
H488   H     0.88044   0.88716   0.29238   0.00000  Uiso   1.00
N489   N     0.83335   0.83334   0.28403   0.00000  Uiso   1.00
N490   N     0.83332   0.83332   0.04931   0.00000  Uiso   1.00
O491   O     0.83333   0.77322   0.20625   0.00000  Uiso   1.00
O492   O     0.83334   0.89345   0.12709   0.00000  Uiso   1.00
O493   O     0.83333   0.77321   0.12706   0.00000  Uiso   1.00
O494   O     0.83334   0.89346   0.20628   0.00000  Uiso   1.00
O495   O     0.75828   0.83334   0.19712   0.00000  Uiso   1.00
O496   O     0.90839   0.83333   0.13621   0.00000  Uiso   1.00
O497   O     0.75828   0.83333   0.11793   0.00000  Uiso   1.00
O498   O     0.90839   0.83334   0.21540   0.00000  Uiso   1.00
O499   O     0.76011   0.96141   0.10083   0.00000  Uiso   1.00
H500   H     0.75361   0.93227   0.11042   0.00000  Uiso   1.00
O501   O     0.90382   0.70514   0.23422   0.00000  Uiso   1.00
H502   H     0.91151   0.73399   0.22429   0.00000  Uiso   1.00
C503   C     0.79070   0.75907   0.28920   0.00000  Uiso   1.00
C504   C     0.73809   0.75773   0.25844   0.00000  Uiso   1.00
C505   C     0.71277   0.71435   0.25821   0.00000  Uiso   1.00
H506   H     0.73897   0.69139   0.24681   0.00000  Uiso   1.00
H507   H     0.70330   0.70534   0.29360   0.00000  Uiso   1.00
H508   H     0.67653   0.71399   0.23345   0.00000  Uiso   1.00
H509   H     0.71180   0.77983   0.27126   0.00000  Uiso   1.00
H510   H     0.74274   0.76551   0.22186   0.00000  Uiso   1.00
H511   H     0.82140   0.74361   0.27426   0.00000  Uiso   1.00
H512   H     0.78669   0.73722   0.31913   0.00000  Uiso   1.00
C513   C     0.89584   0.89657   0.05039   0.00000  Uiso   1.00
C514   C     0.87360   0.93986   0.04075   0.00000  Uiso   1.00
C515   C     0.90780   0.97300   0.06724   0.00000  Uiso   1.00
H516   H     0.91199   0.96613   0.10541   0.00000  Uiso   1.00
H517   H     0.94661   0.97441   0.05547   0.00000  Uiso   1.00
H518   H     0.89009   0.67038   0.06045   0.00000  Uiso   1.00
H519   H     0.87037   0.94779   0.00280   0.00000  Uiso   1.00
H520   H     0.83434   0.94027   0.05130   0.00000  Uiso   1.00
H521   H     0.90454   0.89093   0.08802   0.00000  Uiso   1.00
H522   H     0.93395   0.89608   0.03724   0.00000  Uiso   1.00
C523   C     0.16749   0.08757   0.50056   0.00000  Uiso   1.00
C524   C     0.16544   0.24574   0.49945   0.00000  Uiso   1.00
C525   C     0.06808   0.16681   0.48804   0.00000  Uiso   1.00
C526   C     0.26526   0.16696   0.51193   0.00000  Uiso   1.00
C527   C     0.01278   0.16677   0.48146   0.00000  Uiso   1.00
C528   C     0.32054   0.16759   0.51842   0.00000  Uiso   1.00
C529   C     0.13369   0.02245   0.46719   0.00000  Uiso   1.00
C530   C     0.19819   0.31085   0.53338   0.00000  Uiso   1.00
C531   C     0.13066   0.31290   0.46635   0.00000  Uiso   1.00
C532   C     0.20091   0.02037   0.53449   0.00000  Uiso   1.00
C533   C     0.16438   0.29038   0.49920   0.00000  Uiso   1.00
C534   C     0.16783   0.04292   0.50113   0.00000  Uiso   1.00
C535   C     0.13929   0.13751   0.35684   0.00000  Uiso   1.00
C536   C     0.19239   0.19691   0.64324   0.00000  Uiso   1.00
C537   C     0.14189   0.13499   0.64154   0.00000  Uiso   1.00
C538   C     0.19412   0.19668   0.35932   0.00000  Uiso   1.00
Cu539  Cu    0.16667   0.16667   0.54689   0.00000  Uiso   1.00
Cu540  Cu    0.16667   0.16666   0.45311   0.00000  Uiso   1.00
H541   H     0.32636   0.16586   0.44592   0.00000  Uiso   1.00
H542   H     0.00694   0.16882   0.55390   0.00000  Uiso   1.00
H543   H     0.10790   0.03995   0.44206   0.00000  Uiso   1.00
H544   H     0.22396   0.29339   0.55858   0.00000  Uiso   1.00
H545   H     0.11810   0.11424   0.37501   0.00000  Uiso   1.00
H546   H     0.21377   0.22049   0.62572   0.00000  Uiso   1.00
N547   N     0.16668   0.16668   0.61736   0.00000  Uiso   1.00
N548   N     0.16665   0.16666   0.38264   0.00000  Uiso   1.00
O549   O     0.16666   0.10655   0.53958   0.00000  Uiso   1.00
O550   O     0.16667   0.22678   0.46042   0.00000  Uiso   1.00
O551   O     0.16666   0.10654   0.46039   0.00000  Uiso   1.00
O552   O     0.16667   0.22679   0.53961   0.00000  Uiso   1.00
O553   O     0.09161   0.16667   0.53046   0.00000  Uiso   1.00
O554   O     0.24172   0.16666   0.46954   0.00000  Uiso   1.00
O555   O     0.09161   0.16666   0.45127   0.00000  Uiso   1.00
O556   O     0.24172   0.16667   0.54873   0.00000  Uiso   1.00
O557   O     0.09345   0.29475   0.43416   0.00000  Uiso   1.00
H558   H     0.08695   0.26561   0.44375   0.00000  Uiso   1.00
O559   O     0.23716   0.03848   0.56755   0.00000  Uiso   1.00
H560   H     0.24485   0.06733   0.55762   0.00000  Uiso   1.00
C561   C     0.12403   0.09240   0.62253   0.00000  Uiso   1.00
C562   C     0.07143   0.09106   0.59178   0.00000  Uiso   1.00
C563   C     0.04610   0.04768   0.59155   0.00000  Uiso   1.00
H564   H     0.07230   0.02473   0.58014   0.00000  Uiso   1.00
H565   H     0.03663   0.03868   0.62693   0.00000  Uiso   1.00
H566   H     0.00986   0.04733   0.56679   0.00000  Uiso   1.00
H567   H     0.04514   0.11316   0.60459   0.00000  Uiso   1.00
H568   H     0.07608   0.09885   0.55520   0.00000  Uiso   1.00
H569   H     0.15474   0.07694   0.60759   0.00000  Uiso   1.00
H570   H     0.12003   0.07055   0.65247   0.00000  Uiso   1.00
C571   C     0.22917   0.22990   0.38372   0.00000  Uiso   1.00
C572   C     0.20693   0.27319   0.37408   0.00000  Uiso   1.00
C573   C     0.24113   0.30634   0.40057   0.00000  Uiso   1.00
H574   H     0.24533   0.29946   0.43875   0.00000  Uiso   1.00
H575   H     0.27994   0.30774   0.38880   0.00000  Uiso   1.00
H576   H     0.22343   0.00371   0.39378   0.00000  Uiso   1.00
H577   H     0.20371   0.28112   0.33613   0.00000  Uiso   1.00
H578   H     0.16767   0.27360   0.38463   0.00000  Uiso   1.00
H579   H     0.23788   0.22426   0.42136   0.00000  Uiso   1.00
H580   H     0.26729   0.22941   0.37057   0.00000  Uiso   1.00
C581   C     0.50082   0.08757   0.50056   0.00000  Uiso   1.00
C582   C     0.49878   0.24574   0.49945   0.00000  Uiso   1.00
C583   C     0.40141   0.16681   0.48804   0.00000  Uiso   1.00
C584   C     0.59859   0.16696   0.51193   0.00000  Uiso   1.00
C585   C     0.34612   0.16677   0.48146   0.00000  Uiso   1.00
C586   C     0.65387   0.16759   0.51842   0.00000  Uiso   1.00
C587   C     0.46703   0.02245   0.46719   0.00000  Uiso   1.00
C588   C     0.53152   0.31085   0.53338   0.00000  Uiso   1.00
C589   C     0.46399   0.31290   0.46635   0.00000  Uiso   1.00
C590   C     0.53424   0.02037   0.53449   0.00000  Uiso   1.00
C591   C     0.49771   0.29038   0.49920   0.00000  Uiso   1.00
C592   C     0.50117   0.04292   0.50113   0.00000  Uiso   1.00
C593   C     0.47263   0.13751   0.35684   0.00000  Uiso   1.00
C594   C     0.52572   0.19691   0.64324   0.00000  Uiso   1.00
C595   C     0.47522   0.13499   0.64154   0.00000  Uiso   1.00
C596   C     0.52745   0.19668   0.35932   0.00000  Uiso   1.00
Cu597  Cu    0.50000   0.16667   0.54689   0.00000  Uiso   1.00
Cu598  Cu    0.50000   0.16666   0.45311   0.00000  Uiso   1.00
H599   H     0.65970   0.16586   0.44592   0.00000  Uiso   1.00
H600   H     0.34027   0.16882   0.55390   0.00000  Uiso   1.00
H601   H     0.44123   0.03995   0.44206   0.00000  Uiso   1.00
H602   H     0.55729   0.29339   0.55858   0.00000  Uiso   1.00
H603   H     0.45143   0.11424   0.37501   0.00000  Uiso   1.00
H604   H     0.54710   0.22049   0.62572   0.00000  Uiso   1.00
N605   N     0.50001   0.16668   0.61736   0.00000  Uiso   1.00
N606   N     0.49999   0.16666   0.38264   0.00000  Uiso   1.00
O607   O     0.50000   0.10655   0.53958   0.00000  Uiso   1.00
O608   O     0.50000   0.22678   0.46042   0.00000  Uiso   1.00
O609   O     0.50000   0.10654   0.46039   0.00000  Uiso   1.00
O610   O     0.50000   0.22679   0.53961   0.00000  Uiso   1.00
O611   O     0.42495   0.16667   0.53046   0.00000  Uiso   1.00
O612   O     0.57505   0.16666   0.46954   0.00000  Uiso   1.00
O613   O     0.42494   0.16666   0.45127   0.00000  Uiso   1.00
O614   O     0.57506   0.16667   0.54873   0.00000  Uiso   1.00
O615   O     0.42678   0.29475   0.43416   0.00000  Uiso   1.00
H616   H     0.42028   0.26561   0.44375   0.00000  Uiso   1.00
O617   O     0.57049   0.03848   0.56755   0.00000  Uiso   1.00
H618   H     0.57818   0.06733   0.55762   0.00000  Uiso   1.00
C619   C     0.45737   0.09240   0.62253   0.00000  Uiso   1.00
C620   C     0.40476   0.09106   0.59178   0.00000  Uiso   1.00
C621   C     0.37943   0.04768   0.59155   0.00000  Uiso   1.00
H622   H     0.40563   0.02473   0.58014   0.00000  Uiso   1.00
H623   H     0.36996   0.03868   0.62693   0.00000  Uiso   1.00
H624   H     0.34320   0.04733   0.56679   0.00000  Uiso   1.00
H625   H     0.37847   0.11316   0.60459   0.00000  Uiso   1.00
H626   H     0.40941   0.09885   0.55520   0.00000  Uiso   1.00
H627   H     0.48807   0.07694   0.60759   0.00000  Uiso   1.00
H628   H     0.45336   0.07055   0.65247   0.00000  Uiso   1.00
C629   C     0.56251   0.22990   0.38372   0.00000  Uiso   1.00
C630   C     0.54026   0.27319   0.37408   0.00000  Uiso   1.00
C631   C     0.57446   0.30634   0.40057   0.00000  Uiso   1.00
H632   H     0.57866   0.29946   0.43875   0.00000  Uiso   1.00
H633   H     0.61327   0.30774   0.38880   0.00000  Uiso   1.00
H634   H     0.55676   0.00371   0.39378   0.00000  Uiso   1.00
H635   H     0.53704   0.28112   0.33613   0.00000  Uiso   1.00
H636   H     0.50100   0.27360   0.38463   0.00000  Uiso   1.00
H637   H     0.57121   0.22426   0.42136   0.00000  Uiso   1.00
H638   H     0.60062   0.22941   0.37057   0.00000  Uiso   1.00
C639   C     0.83416   0.08757   0.50056   0.00000  Uiso   1.00
C640   C     0.83211   0.24574   0.49945   0.00000  Uiso   1.00
C641   C     0.73474   0.16681   0.48804   0.00000  Uiso   1.00
C642   C     0.93192   0.16696   0.51193   0.00000  Uiso   1.00
C643   C     0.67945   0.16677   0.48146   0.00000  Uiso   1.00
C644   C     0.98721   0.16759   0.51842   0.00000  Uiso   1.00
C645   C     0.80036   0.02245   0.46719   0.00000  Uiso   1.00
C646   C     0.86485   0.31085   0.53338   0.00000  Uiso   1.00
C647   C     0.79732   0.31290   0.46635   0.00000  Uiso   1.00
C648   C     0.86758   0.02037   0.53449   0.00000  Uiso   1.00
C649   C     0.83104   0.29038   0.49920   0.00000  Uiso   1.00
C650   C     0.83450   0.04292   0.50113   0.00000  Uiso   1.00
C651   C     0.80596   0.13751   0.35684   0.00000  Uiso   1.00
C652   C     0.85906   0.19691   0.64324   0.00000  Uiso   1.00
C653   C     0.80855   0.13499   0.64154   0.00000  Uiso   1.00
C654   C     0.86079   0.19668   0.35932   0.00000  Uiso   1.00
Cu655  Cu    0.83333   0.16667   0.54689   0.00000  Uiso   1.00
Cu656  Cu    0.83333   0.16666   0.45311   0.00000  Uiso   1.00
H657   H     0.99303   0.16586   0.44592   0.00000  Uiso   1.00
H658   H     0.67361   0.16882   0.55390   0.00000  Uiso   1.00
H659   H     0.77457   0.03995   0.44206   0.00000  Uiso   1.00
H660   H     0.89062   0.29339   0.55858   0.00000  Uiso   1.00
H661   H     0.78476   0.11424   0.37501   0.00000  Uiso   1.00
H662   H     0.88044   0.22049   0.62572   0.00000  Uiso   1.00
N663   N     0.83335   0.16668   0.61736   0.00000  Uiso   1.00
N664   N     0.83332   0.16666   0.38264   0.00000  Uiso   1.00
O665   O     0.83333   0.10655   0.53958   0.00000  Uiso   1.00
O666   O     0.83334   0.22678   0.46042   0.00000  Uiso   1.00
O667   O     0.83333   0.10654   0.46039   0.00000  Uiso   1.00
O668   O     0.83334   0.22679   0.53961   0.00000  Uiso   1.00
O669   O     0.75828   0.16667   0.53046   0.00000  Uiso   1.00
O670   O     0.90839   0.16666   0.46954   0.00000  Uiso   1.00
O671   O     0.75828   0.16666   0.45127   0.00000  Uiso   1.00
O672   O     0.90839   0.16667   0.54873   0.00000  Uiso   1.00
O673   O     0.76011   0.29475   0.43416   0.00000  Uiso   1.00
H674   H     0.75361   0.26561   0.44375   0.00000  Uiso   1.00
O675   O     0.90382   0.03848   0.56755   0.00000  Uiso   1.00
H676   H     0.91151   0.06733   0.55762   0.00000  Uiso   1.00
C677   C     0.79070   0.09240   0.62253   0.00000  Uiso   1.00
C678   C     0.73809   0.09106   0.59178   0.00000  Uiso   1.00
C679   C     0.71277   0.04768   0.59155   0.00000  Uiso   1.00
H680   H     0.73897   0.02473   0.58014   0.00000  Uiso   1.00
H681   H     0.70330   0.03868   0.62693   0.00000  Uiso   1.00
H682   H     0.67653   0.04733   0.56679   0.00000  Uiso   1.00
H683   H     0.71180   0.11316   0.60459   0.00000  Uiso   1.00
H684   H     0.74274   0.09885   0.55520   0.00000  Uiso   1.00
H685   H     0.82140   0.07694   0.60759   0.00000  Uiso   1.00
H686   H     0.78669   0.07055   0.65247   0.00000  Uiso   1.00
C687   C     0.89584   0.22990   0.38372   0.00000  Uiso   1.00
C688   C     0.87360   0.27319   0.37408   0.00000  Uiso   1.00
C689   C     0.90780   0.30634   0.40057   0.00000  Uiso   1.00
H690   H     0.91199   0.29946   0.43875   0.00000  Uiso   1.00
H691   H     0.94661   0.30774   0.38880   0.00000  Uiso   1.00
H692   H     0.89009   0.00371   0.39378   0.00000  Uiso   1.00
H693   H     0.87037   0.28112   0.33613   0.00000  Uiso   1.00
H694   H     0.83434   0.27360   0.38463   0.00000  Uiso   1.00
H695   H     0.90454   0.22426   0.42136   0.00000  Uiso   1.00
H696   H     0.93395   0.22941   0.37057   0.00000  Uiso   1.00
C697   C     0.16749   0.42091   0.50056   0.00000  Uiso   1.00
C698   C     0.16544   0.57908   0.49945   0.00000  Uiso   1.00
C699   C     0.06808   0.50014   0.48804   0.00000  Uiso   1.00
C700   C     0.26526   0.50030   0.51193   0.00000  Uiso   1.00
C701   C     0.01278   0.50010   0.48146   0.00000  Uiso   1.00
C702   C     0.32054   0.50092   0.51842   0.00000  Uiso   1.00
C703   C     0.13369   0.35578   0.46719   0.00000  Uiso   1.00
C704   C     0.19819   0.64419   0.53338   0.00000  Uiso   1.00
C705   C     0.13066   0.64623   0.46635   0.00000  Uiso   1.00
C706   C     0.20091   0.35370   0.53449   0.00000  Uiso   1.00
C707   C     0.16438   0.62371   0.49920   0.00000  Uiso   1.00
C708   C     0.16783   0.37625   0.50113   0.00000  Uiso   1.00
C709   C     0.13929   0.47085   0.35684   0.00000  Uiso   1.00
C710   C     0.19239   0.53024   0.64324   0.00000  Uiso   1.00
C711   C     0.14189   0.46832   0.64154   0.00000  Uiso   1.00
C712   C     0.19412   0.53001   0.35932   0.00000  Uiso   1.00
Cu713  Cu    0.16667   0.50001   0.54689   0.00000  Uiso   1.00
Cu714  Cu    0.16667   0.49999   0.45311   0.00000  Uiso   1.00
H715   H     0.32636   0.49920   0.44592   0.00000  Uiso   1.00
H716   H     0.00694   0.50216   0.55390   0.00000  Uiso   1.00
H717   H     0.10790   0.37328   0.44206   0.00000  Uiso   1.00
H718   H     0.22396   0.62672   0.55858   0.00000  Uiso   1.00
H719   H     0.11810   0.44758   0.37501   0.00000  Uiso   1.00
H720   H     0.21377   0.55383   0.62572   0.00000  Uiso   1.00
N721   N     0.16668   0.50001   0.61736   0.00000  Uiso   1.00
N722   N     0.16665   0.49999   0.38264   0.00000  Uiso   1.00
O723   O     0.16666   0.43989   0.53958   0.00000  Uiso   1.00
O724   O     0.16667   0.56011   0.46042   0.00000  Uiso   1.00
O725   O     0.16666   0.43988   0.46039   0.00000  Uiso   1.00
O726   O     0.16667   0.56012   0.53961   0.00000  Uiso   1.00
O727   O     0.09161   0.50000   0.53046   0.00000  Uiso   1.00
O728   O     0.24172   0.50000   0.46954   0.00000  Uiso   1.00
O729   O     0.09161   0.49999   0.45127   0.00000  Uiso   1.00
O730   O     0.24172   0.50001   0.54873   0.00000  Uiso   1.00
O731   O     0.09345   0.62808   0.43416   0.00000  Uiso   1.00
H732   H     0.08695   0.59894   0.44375   0.00000  Uiso   1.00
O733   O     0.23716   0.37181   0.56755   0.00000  Uiso   1.00
H734   H     0.24485   0.40066   0.55762   0.00000  Uiso   1.00
C735   C     0.12403   0.42573   0.62253   0.00000  Uiso   1.00
C736   C     0.07143   0.42439   0.59178   0.00000  Uiso   1.00
C737   C     0.04610   0.38101   0.59155   0.00000  Uiso   1.00
H738   H     0.07230   0.35806   0.58014   0.00000  Uiso   1.00
H739   H     0.03663   0.37201   0.62693   0.00000  Uiso   1.00
H740   H     0.00986   0.38066   0.56679   0.00000  Uiso   1.00
H741   H     0.04514   0.44649   0.60459   0.00000  Uiso   1.00
H742   H     0.07608   0.43218   0.55520   0.00000  Uiso   1.00
H743   H     0.15474   0.41027   0.60759   0.00000  Uiso   1.00
H744   H     0.12003   0.40388   0.65247   0.00000  Uiso   1.00
C745   C     0.22917   0.56324   0.38372   0.00000  Uiso   1.00
C746   C     0.20693   0.60652   0.37408   0.00000  Uiso   1.00
C747   C     0.24113   0.63967   0.40057   0.00000  Uiso   1.00
H748   H     0.24533   0.63279   0.43875   0.00000  Uiso   1.00
H749   H     0.27994   0.64108   0.38880   0.00000  Uiso   1.00
H750   H     0.22343   0.33705   0.39378   0.00000  Uiso   1.00
H751   H     0.20371   0.61446   0.33613   0.00000  Uiso   1.00
H752   H     0.16767   0.60694   0.38463   0.00000  Uiso   1.00
H753   H     0.23788   0.55759   0.42136   0.00000  Uiso   1.00
H754   H     0.26729   0.56275   0.37057   0.00000  Uiso   1.00
C755   C     0.50082   0.42091   0.50056   0.00000  Uiso   1.00
C756   C     0.49878   0.57908   0.49945   0.00000  Uiso   1.00
C757   C     0.40141   0.50014   0.48804   0.00000  Uiso   1.00
C758   C     0.59859   0.50030   0.51193   0.00000  Uiso   1.00
C759   C     0.34612   0.50010   0.48146   0.00000  Uiso   1.00
C760   C     0.65387   0.50092   0.51842   0.00000  Uiso   1.00
C761   C     0.46703   0.35578   0.46719   0.00000  Uiso   1.00
C762   C     0.53152   0.64419   0.53338   0.00000  Uiso   1.00
C763   C     0.46399   0.64623   0.46635   0.00000  Uiso   1.00
C764   C     0.53424   0.35370   0.53449   0.00000  Uiso   1.00
C765   C     0.49771   0.62371   0.49920   0.00000  Uiso   1.00
C766   C     0.50117   0.37625   0.50113   0.00000  Uiso   1.00
C767   C     0.47263   0.47085   0.35684   0.00000  Uiso   1.00
C768   C     0.52572   0.53024   0.64324   0.00000  Uiso   1.00
C769   C     0.47522   0.46832   0.64154   0.00000  Uiso   1.00
C770   C     0.52745   0.53001   0.35932   0.00000  Uiso   1.00
Cu771  Cu    0.50000   0.50001   0.54689   0.00000  Uiso   1.00
Cu772  Cu    0.50000   0.49999   0.45311   0.00000  Uiso   1.00
H773   H     0.65970   0.49920   0.44592   0.00000  Uiso   1.00
H774   H     0.34027   0.50216   0.55390   0.00000  Uiso   1.00
H775   H     0.44123   0.37328   0.44206   0.00000  Uiso   1.00
H776   H     0.55729   0.62672   0.55858   0.00000  Uiso   1.00
H777   H     0.45143   0.44758   0.37501   0.00000  Uiso   1.00
H778   H     0.54710   0.55383   0.62572   0.00000  Uiso   1.00
N779   N     0.50001   0.50001   0.61736   0.00000  Uiso   1.00
N780   N     0.49999   0.49999   0.38264   0.00000  Uiso   1.00
O781   O     0.50000   0.43989   0.53958   0.00000  Uiso   1.00
O782   O     0.50000   0.56011   0.46042   0.00000  Uiso   1.00
O783   O     0.50000   0.43988   0.46039   0.00000  Uiso   1.00
O784   O     0.50000   0.56012   0.53961   0.00000  Uiso   1.00
O785   O     0.42495   0.50000   0.53046   0.00000  Uiso   1.00
O786   O     0.57505   0.50000   0.46954   0.00000  Uiso   1.00
O787   O     0.42494   0.49999   0.45127   0.00000  Uiso   1.00
O788   O     0.57506   0.50001   0.54873   0.00000  Uiso   1.00
O789   O     0.42678   0.62808   0.43416   0.00000  Uiso   1.00
H790   H     0.42028   0.59894   0.44375   0.00000  Uiso   1.00
O791   O     0.57049   0.37181   0.56755   0.00000  Uiso   1.00
H792   H     0.57818   0.40066   0.55762   0.00000  Uiso   1.00
C793   C     0.45737   0.42573   0.62253   0.00000  Uiso   1.00
C794   C     0.40476   0.42439   0.59178   0.00000  Uiso   1.00
C795   C     0.37943   0.38101   0.59155   0.00000  Uiso   1.00
H796   H     0.40563   0.35806   0.58014   0.00000  Uiso   1.00
H797   H     0.36996   0.37201   0.62693   0.00000  Uiso   1.00
H798   H     0.34320   0.38066   0.56679   0.00000  Uiso   1.00
H799   H     0.37847   0.44649   0.60459   0.00000  Uiso   1.00
H800   H     0.40941   0.43218   0.55520   0.00000  Uiso   1.00
H801   H     0.48807   0.41027   0.60759   0.00000  Uiso   1.00
H802   H     0.45336   0.40388   0.65247   0.00000  Uiso   1.00
C803   C     0.56251   0.56324   0.38372   0.00000  Uiso   1.00
C804   C     0.54026   0.60652   0.37408   0.00000  Uiso   1.00
C805   C     0.57446   0.63967   0.40057   0.00000  Uiso   1.00
H806   H     0.57866   0.63279   0.43875   0.00000  Uiso   1.00
H807   H     0.61327   0.64108   0.38880   0.00000  Uiso   1.00
H808   H     0.55676   0.33705   0.39378   0.00000  Uiso   1.00
H809   H     0.53704   0.61446   0.33613   0.00000  Uiso   1.00
H810   H     0.50100   0.60694   0.38463   0.00000  Uiso   1.00
H811   H     0.57121   0.55759   0.42136   0.00000  Uiso   1.00
H812   H     0.60062   0.56275   0.37057   0.00000  Uiso   1.00
C813   C     0.83416   0.42091   0.50056   0.00000  Uiso   1.00
C814   C     0.83211   0.57908   0.49945   0.00000  Uiso   1.00
C815   C     0.73474   0.50014   0.48804   0.00000  Uiso   1.00
C816   C     0.93192   0.50030   0.51193   0.00000  Uiso   1.00
C817   C     0.67945   0.50010   0.48146   0.00000  Uiso   1.00
C818   C     0.98721   0.50092   0.51842   0.00000  Uiso   1.00
C819   C     0.80036   0.35578   0.46719   0.00000  Uiso   1.00
C820   C     0.86485   0.64419   0.53338   0.00000  Uiso   1.00
C821   C     0.79732   0.64623   0.46635   0.00000  Uiso   1.00
C822   C     0.86758   0.35370   0.53449   0.00000  Uiso   1.00
C823   C     0.83104   0.62371   0.49920   0.00000  Uiso   1.00
C824   C     0.83450   0.37625   0.50113   0.00000  Uiso   1.00
C825   C     0.80596   0.47085   0.35684   0.00000  Uiso   1.00
C826   C     0.85906   0.53024   0.64324   0.00000  Uiso   1.00
C827   C     0.80855   0.46832   0.64154   0.00000  Uiso   1.00
C828   C     0.86079   0.53001   0.35932   0.00000  Uiso   1.00
Cu829  Cu    0.83333   0.50001   0.54689   0.00000  Uiso   1.00
Cu830  Cu    0.83333   0.49999   0.45311   0.00000  Uiso   1.00
H831   H     0.99303   0.49920   0.44592   0.00000  Uiso   1.00
H832   H     0.67361   0.50216   0.55390   0.00000  Uiso   1.00
H833   H     0.77457   0.37328   0.44206   0.00000  Uiso   1.00
H834   H     0.89062   0.62672   0.55858   0.00000  Uiso   1.00
H835   H     0.78476   0.44758   0.37501   0.00000  Uiso   1.00
H836   H     0.88044   0.55383   0.62572   0.00000  Uiso   1.00
N837   N     0.83335   0.50001   0.61736   0.00000  Uiso   1.00
N838   N     0.83332   0.49999   0.38264   0.00000  Uiso   1.00
O839   O     0.83333   0.43989   0.53958   0.00000  Uiso   1.00
O840   O     0.83334   0.56011   0.46042   0.00000  Uiso   1.00
O841   O     0.83333   0.43988   0.46039   0.00000  Uiso   1.00
O842   O     0.83334   0.56012   0.53961   0.00000  Uiso   1.00
O843   O     0.75828   0.50000   0.53046   0.00000  Uiso   1.00
O844   O     0.90839   0.50000   0.46954   0.00000  Uiso   1.00
O845   O     0.75828   0.49999   0.45127   0.00000  Uiso   1.00
O846   O     0.90839   0.50001   0.54873   0.00000  Uiso   1.00
O847   O     0.76011   0.62808   0.43416   0.00000  Uiso   1.00
H848   H     0.75361   0.59894   0.44375   0.00000  Uiso   1.00
O849   O     0.90382   0.37181   0.56755   0.00000  Uiso   1.00
H850   H     0.91151   0.40066   0.55762   0.00000  Uiso   1.00
C851   C     0.79070   0.42573   0.62253   0.00000  Uiso   1.00
C852   C     0.73809   0.42439   0.59178   0.00000  Uiso   1.00
C853   C     0.71277   0.38101   0.59155   0.00000  Uiso   1.00
H854   H     0.73897   0.35806   0.58014   0.00000  Uiso   1.00
H855   H     0.70330   0.37201   0.62693   0.00000  Uiso   1.00
H856   H     0.67653   0.38066   0.56679   0.00000  Uiso   1.00
H857   H     0.71180   0.44649   0.60459   0.00000  Uiso   1.00
H858   H     0.74274   0.43218   0.55520   0.00000  Uiso   1.00
H859   H     0.82140   0.41027   0.60759   0.00000  Uiso   1.00
H860   H     0.78669   0.40388   0.65247   0.00000  Uiso   1.00
C861   C     0.89584   0.56324   0.38372   0.00000  Uiso   1.00
C862   C     0.87360   0.60652   0.37408   0.00000  Uiso   1.00
C863   C     0.90780   0.63967   0.40057   0.00000  Uiso   1.00
H864   H     0.91199   0.63279   0.43875   0.00000  Uiso   1.00
H865   H     0.94661   0.64108   0.38880   0.00000  Uiso   1.00
H866   H     0.89009   0.33705   0.39378   0.00000  Uiso   1.00
H867   H     0.87037   0.61446   0.33613   0.00000  Uiso   1.00
H868   H     0.83434   0.60694   0.38463   0.00000  Uiso   1.00
H869   H     0.90454   0.55759   0.42136   0.00000  Uiso   1.00
H870   H     0.93395   0.56275   0.37057   0.00000  Uiso   1.00
C871   C     0.16749   0.75424   0.50056   0.00000  Uiso   1.00
C872   C     0.16544   0.91241   0.49945   0.00000  Uiso   1.00
C873   C     0.06808   0.83347   0.48804   0.00000  Uiso   1.00
C874   C     0.26526   0.83363   0.51193   0.00000  Uiso   1.00
C875   C     0.01278   0.83343   0.48146   0.00000  Uiso   1.00
C876   C     0.32054   0.83425   0.51842   0.00000  Uiso   1.00
C877   C     0.13369   0.68912   0.46719   0.00000  Uiso   1.00
C878   C     0.19819   0.97752   0.53338   0.00000  Uiso   1.00
C879   C     0.13066   0.97957   0.46635   0.00000  Uiso   1.00
C880   C     0.20091   0.68704   0.53449   0.00000  Uiso   1.00
C881   C     0.16438   0.95704   0.49920   0.00000  Uiso   1.00
C882   C     0.16783   0.70959   0.50113   0.00000  Uiso   1.00
C883   C     0.13929   0.80418   0.35684   0.00000  Uiso   1.00
C884   C     0.19239   0.86357   0.64324   0.00000  Uiso   1.00
C885   C     0.14189   0.80166   0.64154   0.00000  Uiso   1.00
C886   C     0.19412   0.86335   0.35932   0.00000  Uiso   1.00
Cu887  Cu    0.16667   0.83334   0.54689   0.00000  Uiso   1.00
Cu888  Cu    0.16667   0.83333   0.45311   0.00000  Uiso   1.00
H889   H     0.32636   0.83253   0.44592   0.00000  Uiso   1.00
H890   H     0.00694   0.83549   0.55390   0.00000  Uiso   1.00
H891   H     0.10790   0.70662   0.44206   0.00000  Uiso   1.00
H892   H     0.22396   0.96006   0.55858   0.00000  Uiso   1.00
H893   H     0.11810   0.78091   0.37501   0.00000  Uiso   1.00
H894   H     0.21377   0.88716   0.62572   0.00000  Uiso   1.00
N895   N     0.16668   0.83334   0.61736   0.00000  Uiso   1.00
N896   N     0.16665   0.83332   0.38264   0.00000  Uiso   1.00
O897   O     0.16666   0.77322   0.53958   0.00000  Uiso   1.00
O898   O     0.16667   0.89345   0.46042   0.00000  Uiso   1.00
O899   O     0.16666   0.77321   0.46039   0.00000  Uiso   1.00
O900   O     0.16667   0.89346   0.53961   0.00000  Uiso   1.00
O901   O     0.09161   0.83334   0.53046   0.00000  Uiso   1.00
O902   O     0.24172   0.83333   0.46954   0.00000  Uiso   1.00
O903   O     0.09161   0.83333   0.45127   0.00000  Uiso   1.00
O904   O     0.24172   0.83334   0.54873   0.00000  Uiso   1.00
O905   O     0.09345   0.96141   0.43416   0.00000  Uiso   1.00
H906   H     0.08695   0.93227   0.44375   0.00000  Uiso   1.00
O907   O     0.23716   0.70514   0.56755   0.00000  Uiso   1.00
H908   H     0.24485   0.73399   0.55762   0.00000  Uiso   1.00
C909   C     0.12403   0.75907   0.62253   0.00000  Uiso   1.00
C910   C     0.07143   0.75773   0.59178   0.00000  Uiso   1.00
C911   C     0.04610   0.71435   0.59155   0.00000  Uiso   1.00
H912   H     0.07230   0.69139   0.58014   0.00000  Uiso   1.00
H913   H     0.03663   0.70534   0.62693   0.00000  Uiso   1.00
H914   H     0.00986   0.71399   0.56679   0.00000  Uiso   1.00
H915   H     0.04514   0.77983   0.60459   0.00000  Uiso   1.00
H916   H     0.07608   0.76551   0.55520   0.00000  Uiso   1.00
H917   H     0.15474   0.74361   0.60759   0.00000  Uiso   1.00
H918   H     0.12003   0.73722   0.65247   0.00000  Uiso   1.00
C919   C     0.22917   0.89657   0.38372   0.00000  Uiso   1.00
C920   C     0.20693   0.93986   0.37408   0.00000  Uiso   1.00
C921   C     0.24113   0.97300   0.40057   0.00000  Uiso   1.00
H922   H     0.24533   0.96613   0.43875   0.00000  Uiso   1.00
H923   H     0.27994   0.97441   0.38880   0.00000  Uiso   1.00
H924   H     0.22343   0.67038   0.39378   0.00000  Uiso   1.00
H925   H     0.20371   0.94779   0.33613   0.00000  Uiso   1.00
H926   H     0.16767   0.94027   0.38463   0.00000  Uiso   1.00
H927   H     0.23788   0.89093   0.42136   0.00000  Uiso   1.00
H928   H     0.26729   0.89608   0.37057   0.00000  Uiso   1.00
C929   C     0.50082   0.75424   0.50056   0.00000  Uiso   1.00
C930   C     0.49878   0.91241   0.49945   0.00000  Uiso   1.00
C931   C     0.40141   0.83347   0.48804   0.00000  Uiso   1.00
C932   C     0.59859   0.83363   0.51193   0.00000  Uiso   1.00
C933   C     0.34612   0.83343   0.48146   0.00000  Uiso   1.00
C934   C     0.65387   0.83425   0.51842   0.00000  Uiso   1.00
C935   C     0.46703   0.68912   0.46719   0.00000  Uiso   1.00
C936   C     0.53152   0.97752   0.53338   0.00000  Uiso   1.00
C937   C     0.46399   0.97957   0.46635   0.00000  Uiso   1.00
C938   C     0.53424   0.68704   0.53449   0.00000  Uiso   1.00
C939   C     0.49771   0.95704   0.49920   0.00000  Uiso   1.00
C940   C     0.50117   0.70959   0.50113   0.00000  Uiso   1.00
C941   C     0.47263   0.80418   0.35684   0.00000  Uiso   1.00
C942   C     0.52572   0.86357   0.64324   0.00000  Uiso   1.00
C943   C     0.47522   0.80166   0.64154   0.00000  Uiso   1.00
C944   C     0.52745   0.86335   0.35932   0.00000  Uiso   1.00
Cu945  Cu    0.50000   0.83334   0.54689   0.00000  Uiso   1.00
Cu946  Cu    0.50000   0.83333   0.45311   0.00000  Uiso   1.00
H947   H     0.65970   0.83253   0.44592   0.00000  Uiso   1.00
H948   H     0.34027   0.83549   0.55390   0.00000  Uiso   1.00
H949   H     0.44123   0.70662   0.44206   0.00000  Uiso   1.00
H950   H     0.55729   0.96006   0.55858   0.00000  Uiso   1.00
H951   H     0.45143   0.78091   0.37501   0.00000  Uiso   1.00
H952   H     0.54710   0.88716   0.62572   0.00000  Uiso   1.00
N953   N     0.50001   0.83334   0.61736   0.00000  Uiso   1.00
N954   N     0.49999   0.83332   0.38264   0.00000  Uiso   1.00
O955   O     0.50000   0.77322   0.53958   0.00000  Uiso   1.00
O956   O     0.50000   0.89345   0.46042   0.00000  Uiso   1.00
O957   O     0.50000   0.77321   0.46039   0.00000  Uiso   1.00
O958   O     0.50000   0.89346   0.53961   0.00000  Uiso   1.00
O959   O     0.42495   0.83334   0.53046   0.00000  Uiso   1.00
O960   O     0.57505   0.83333   0.46954   0.00000  Uiso   1.00
O961   O     0.42494   0.83333   0.45127   0.00000  Uiso   1.00
O962   O     0.57506   0.83334   0.54873   0.00000  Uiso   1.00
O963   O     0.42678   0.96141   0.43416   0.00000  Uiso   1.00
H964   H     0.42028   0.93227   0.44375   0.00000  Uiso   1.00
O965   O     0.57049   0.70514   0.56755   0.00000  Uiso   1.00
H966   H     0.57818   0.73399   0.55762   0.00000  Uiso   1.00
C967   C     0.45737   0.75907   0.62253   0.00000  Uiso   1.00
C968   C     0.40476   0.75773   0.59178   0.00000  Uiso   1.00
C969   C     0.37943   0.71435   0.59155   0.00000  Uiso   1.00
H970   H     0.40563   0.69139   0.58014   0.00000  Uiso   1.00
H971   H     0.36996   0.70534   0.62693   0.00000  Uiso   1.00
H972   H     0.34320   0.71399   0.56679   0.00000  Uiso   1.00
H973   H     0.37847   0.77983   0.60459   0.00000  Uiso   1.00
H974   H     0.40941   0.76551   0.55520   0.00000  Uiso   1.00
H975   H     0.48807   0.74361   0.60759   0.00000  Uiso   1.00
H976   H     0.45336   0.73722   0.65247   0.00000  Uiso   1.00
C977   C     0.56251   0.89657   0.38372   0.00000  Uiso   1.00
C978   C     0.54026   0.93986   0.37408   0.00000  Uiso   1.00
C979   C     0.57446   0.97300   0.40057   0.00000  Uiso   1.00
H980   H     0.57866   0.96613   0.43875   0.00000  Uiso   1.00
H981   H     0.61327   0.97441   0.38880   0.00000  Uiso   1.00
H982   H     0.55676   0.67038   0.39378   0.00000  Uiso   1.00
H983   H     0.53704   0.94779   0.33613   0.00000  Uiso   1.00
H984   H     0.50100   0.94027   0.38463   0.00000  Uiso   1.00
H985   H     0.57121   0.89093   0.42136   0.00000  Uiso   1.00
H986   H     0.60062   0.89608   0.37057   0.00000  Uiso   1.00
C987   C     0.83416   0.75424   0.50056   0.00000  Uiso   1.00
C988   C     0.83211   0.91241   0.49945   0.00000  Uiso   1.00
C989   C     0.73474   0.83347   0.48804   0.00000  Uiso   1.00
C990   C     0.93192   0.83363   0.51193   0.00000  Uiso   1.00
C991   C     0.67945   0.83343   0.48146   0.00000  Uiso   1.00
C992   C     0.98721   0.83425   0.51842   0.00000  Uiso   1.00
C993   C     0.80036   0.68912   0.46719   0.00000  Uiso   1.00
C994   C     0.86485   0.97752   0.53338   0.00000  Uiso   1.00
C995   C     0.79732   0.97957   0.46635   0.00000  Uiso   1.00
C996   C     0.86758   0.68704   0.53449   0.00000  Uiso   1.00
C997   C     0.83104   0.95704   0.49920   0.00000  Uiso   1.00
C998   C     0.83450   0.70959   0.50113   0.00000  Uiso   1.00
C999   C     0.80596   0.80418   0.35684   0.00000  Uiso   1.00
C1000  C     0.85906   0.86357   0.64324   0.00000  Uiso   1.00
C1001  C     0.80855   0.80166   0.64154   0.00000  Uiso   1.00
C1002  C     0.86079   0.86335   0.35932   0.00000  Uiso   1.00
Cu1003 Cu    0.83333   0.83334   0.54689   0.00000  Uiso   1.00
Cu1004 Cu    0.83333   0.83333   0.45311   0.00000  Uiso   1.00
H1005  H     0.99303   0.83253   0.44592   0.00000  Uiso   1.00
H1006  H     0.67361   0.83549   0.55390   0.00000  Uiso   1.00
H1007  H     0.77457   0.70662   0.44206   0.00000  Uiso   1.00
H1008  H     0.89062   0.96006   0.55858   0.00000  Uiso   1.00
H1009  H     0.78476   0.78091   0.37501   0.00000  Uiso   1.00
H1010  H     0.88044   0.88716   0.62572   0.00000  Uiso   1.00
N1011  N     0.83335   0.83334   0.61736   0.00000  Uiso   1.00
N1012  N     0.83332   0.83332   0.38264   0.00000  Uiso   1.00
O1013  O     0.83333   0.77322   0.53958   0.00000  Uiso   1.00
O1014  O     0.83334   0.89345   0.46042   0.00000  Uiso   1.00
O1015  O     0.83333   0.77321   0.46039   0.00000  Uiso   1.00
O1016  O     0.83334   0.89346   0.53961   0.00000  Uiso   1.00
O1017  O     0.75828   0.83334   0.53046   0.00000  Uiso   1.00
O1018  O     0.90839   0.83333   0.46954   0.00000  Uiso   1.00
O1019  O     0.75828   0.83333   0.45127   0.00000  Uiso   1.00
O1020  O     0.90839   0.83334   0.54873   0.00000  Uiso   1.00
O1021  O     0.76011   0.96141   0.43416   0.00000  Uiso   1.00
H1022  H     0.75361   0.93227   0.44375   0.00000  Uiso   1.00
O1023  O     0.90382   0.70514   0.56755   0.00000  Uiso   1.00
H1024  H     0.91151   0.73399   0.55762   0.00000  Uiso   1.00
C1025  C     0.79070   0.75907   0.62253   0.00000  Uiso   1.00
C1026  C     0.73809   0.75773   0.59178   0.00000  Uiso   1.00
C1027  C     0.71277   0.71435   0.59155   0.00000  Uiso   1.00
H1028  H     0.73897   0.69139   0.58014   0.00000  Uiso   1.00
H1029  H     0.70330   0.70534   0.62693   0.00000  Uiso   1.00
H1030  H     0.67653   0.71399   0.56679   0.00000  Uiso   1.00
H1031  H     0.71180   0.77983   0.60459   0.00000  Uiso   1.00
H1032  H     0.74274   0.76551   0.55520   0.00000  Uiso   1.00
H1033  H     0.82140   0.74361   0.60759   0.00000  Uiso   1.00
H1034  H     0.78669   0.73722   0.65247   0.00000  Uiso   1.00
C1035  C     0.89584   0.89657   0.38372   0.00000  Uiso   1.00
C1036  C     0.87360   0.93986   0.37408   0.00000  Uiso   1.00
C1037  C     0.90780   0.97300   0.40057   0.00000  Uiso   1.00
H1038  H     0.91199   0.96613   0.43875   0.00000  Uiso   1.00
H1039  H     0.94661   0.97441   0.38880   0.00000  Uiso   1.00
H1040  H     0.89009   0.67038   0.39378   0.00000  Uiso   1.00
H1041  H     0.87037   0.94779   0.33613   0.00000  Uiso   1.00
H1042  H     0.83434   0.94027   0.38463   0.00000  Uiso   1.00
H1043  H     0.90454   0.89093   0.42136   0.00000  Uiso   1.00
H1044  H     0.93395   0.89608   0.37057   0.00000  Uiso   1.00
C1045  C     0.16749   0.08757   0.83389   0.00000  Uiso   1.00
C1046  C     0.16544   0.24574   0.83279   0.00000  Uiso   1.00
C1047  C     0.06808   0.16681   0.82137   0.00000  Uiso   1.00
C1048  C     0.26526   0.16696   0.84526   0.00000  Uiso   1.00
C1049  C     0.01278   0.16677   0.81479   0.00000  Uiso   1.00
C1050  C     0.32054   0.16759   0.85175   0.00000  Uiso   1.00
C1051  C     0.13369   0.02245   0.80053   0.00000  Uiso   1.00
C1052  C     0.19819   0.31085   0.86672   0.00000  Uiso   1.00
C1053  C     0.13066   0.31290   0.79968   0.00000  Uiso   1.00
C1054  C     0.20091   0.02037   0.86782   0.00000  Uiso   1.00
C1055  C     0.16438   0.29038   0.83253   0.00000  Uiso   1.00
C1056  C     0.16783   0.04292   0.83446   0.00000  Uiso   1.00
C1057  C     0.13929   0.13751   0.69017   0.00000  Uiso   1.00
C1058  C     0.19239   0.19691   0.97658   0.00000  Uiso   1.00
C1059  C     0.14189   0.13499   0.97487   0.00000  Uiso   1.00
C1060  C     0.19412   0.19668   0.69265   0.00000  Uiso   1.00
Cu1061 Cu    0.16667   0.16667   0.88022   0.00000  Uiso   1.00
Cu1062 Cu    0.16667   0.16666   0.78645   0.00000  Uiso   1.00
H1063  H     0.32636   0.16586   0.77926   0.00000  Uiso   1.00
H1064  H     0.00694   0.16882   0.88723   0.00000  Uiso   1.00
H1065  H     0.10790   0.03995   0.77539   0.00000  Uiso   1.00
H1066  H     0.22396   0.29339   0.89191   0.00000  Uiso   1.00
H1067  H     0.11810   0.11424   0.70834   0.00000  Uiso   1.00
H1068  H     0.21377   0.22049   0.95905   0.00000  Uiso   1.00
N1069  N     0.16668   0.16668   0.95069   0.00000  Uiso   1.00
N1070  N     0.16665   0.16666   0.71597   0.00000  Uiso   1.00
O1071  O     0.16666   0.10655   0.87291   0.00000  Uiso   1.00
O1072  O     0.16667   0.22678   0.79375   0.00000  Uiso   1.00
O1073  O     0.16666   0.10654   0.79372   0.00000  Uiso   1.00
O1074  O     0.16667   0.22679   0.87294   0.00000  Uiso   1.00
O1075  O     0.09161   0.16667   0.86379   0.00000  Uiso   1.00
O1076  O     0.24172   0.16666   0.80288   0.00000  Uiso   1.00
O1077  O     0.09161   0.16666   0.78460   0.00000  Uiso   1.00
O1078  O     0.24172   0.16667   0.88207   0.00000  Uiso   1.00
O1079  O     0.09345   0.29475   0.76749   0.00000  Uiso   1.00
H1080  H     0.08695   0.26561   0.77709   0.00000  Uiso   1.00
O1081  O     0.23716   0.03848   0.90088   0.00000  Uiso   1.00
H1082  H     0.24485   0.06733   0.89096   0.00000  Uiso   1.00
C1083  C     0.12403   0.09240   0.95587   0.00000  Uiso   1.00
C1084  C     0.07143   0.09106   0.92511   0.00000  Uiso   1.00
C1085  C     0.04610   0.04768   0.92488   0.00000  Uiso   1.00
H1086  H     0.07230   0.02473   0.91347   0.00000  Uiso   1.00
H1087  H     0.03663   0.03868   0.96026   0.00000  Uiso   1.00
H1088  H     0.00986   0.04733   0.90012   0.00000  Uiso   1.00
H1089  H     0.04514   0.11316   0.93793   0.00000  Uiso   1.00
H1090  H     0.07608   0.09885   0.88853   0.00000  Uiso   1.00
H1091  H     0.15474   0.07694   0.94093   0.00000  Uiso   1.00
H1092  H     0.12003   0.07055   0.98580   0.00000  Uiso   1.00
C1093  C     0.22917   0.22990   0.71705   0.00000  Uiso   1.00
C1094  C     0.20693   0.27319   0.70742   0.00000  Uiso   1.00
C1095  C     0.24113   0.30634   0.73391   0.00000  Uiso   1.00
H1096  H     0.24533   0.29946   0.77208   0.00000  Uiso   1.00
H1097  H     0.27994   0.30774   0.72213   0.00000  Uiso   1.00
H1098  H     0.22343   0.00371   0.72712   0.00000  Uiso   1.00
H1099  H     0.20371   0.28112   0.66947   0.00000  Uiso   1.00
H1100  H     0.16767   0.27360   0.71796   0.00000  Uiso   1.00
H1101  H     0.23788   0.22426   0.75469   0.00000  Uiso   1.00
H1102  H     0.26729   0.22941   0.70390   0.00000  Uiso   1.00
C1103  C     0.50082   0.08757   0.83389   0.00000  Uiso   1.00
C1104  C     0.49878   0.24574   0.83279   0.00000  Uiso   1.00
C1105  C     0.40141   0.16681   0.82137   0.00000  Uiso   1.00
C1106  C     0.59859   0.16696   0.84526   0.00000  Uiso   1.00
C1107  C     0.34612   0.16677   0.81479   0.00000  Uiso   1.00
C1108  C     0.65387   0.16759   0.85175   0.00000  Uiso   1.00
C1109  C     0.46703   0.02245   0.80053   0.00000  Uiso   1.00
C1110  C     0.53152   0.31085   0.86672   0.00000  Uiso   1.00
C1111  C     0.46399   0.31290   0.79968   0.00000  Uiso   1.00
C1112  C     0.53424   0.02037   0.86782   0.00000  Uiso   1.00
C1113  C     0.49771   0.29038   0.83253   0.00000  Uiso   1.00
C1114  C     0.50117   0.04292   0.83446   0.00000  Uiso   1.00
C1115  C     0.47263   0.13751   0.69017   0.00000  Uiso   1.00
C1116  C     0.52572   0.19691   0.97658   0.00000  Uiso   1.00
C1117  C     0.47522   0.13499   0.97487   0.00000  Uiso   1.00
C1118  C     0.52745   0.19668   0.69265   0.00000  Uiso   1.00
Cu1119 Cu    0.50000   0.16667   0.88022   0.00000  Uiso   1.00
Cu1120 Cu    0.50000   0.16666   0.78645   0.00000  Uiso   1.00
H1121  H     0.65970   0.16586   0.77926   0.00000  Uiso   1.00
H1122  H     0.34027   0.16882   0.88723   0.00000  Uiso   1.00
H1123  H     0.44123   0.03995   0.77539   0.00000  Uiso   1.00
H1124  H     0.55729   0.29339   0.89191   0.00000  Uiso   1.00
H1125  H     0.45143   0.11424   0.70834   0.00000  Uiso   1.00
H1126  H     0.54710   0.22049   0.95905   0.00000  Uiso   1.00
N1127  N     0.50001   0.16668   0.95069   0.00000  Uiso   1.00
N1128  N     0.49999   0.16666   0.71597   0.00000  Uiso   1.00
O1129  O     0.50000   0.10655   0.87291   0.00000  Uiso   1.00
O1130  O     0.50000   0.22678   0.79375   0.00000  Uiso   1.00
O1131  O     0.50000   0.10654   0.79372   0.00000  Uiso   1.00
O1132  O     0.50000   0.22679   0.87294   0.00000  Uiso   1.00
O1133  O     0.42495   0.16667   0.86379   0.00000  Uiso   1.00
O1134  O     0.57505   0.16666   0.80288   0.00000  Uiso   1.00
O1135  O     0.42494   0.16666   0.78460   0.00000  Uiso   1.00
O1136  O     0.57506   0.16667   0.88207   0.00000  Uiso   1.00
O1137  O     0.42678   0.29475   0.76749   0.00000  Uiso   1.00
H1138  H     0.42028   0.26561   0.77709   0.00000  Uiso   1.00
O1139  O     0.57049   0.03848   0.90088   0.00000  Uiso   1.00
H1140  H     0.57818   0.06733   0.89096   0.00000  Uiso   1.00
C1141  C     0.45737   0.09240   0.95587   0.00000  Uiso   1.00
C1142  C     0.40476   0.09106   0.92511   0.00000  Uiso   1.00
C1143  C     0.37943   0.04768   0.92488   0.00000  Uiso   1.00
H1144  H     0.40563   0.02473   0.91347   0.00000  Uiso   1.00
H1145  H     0.36996   0.03868   0.96026   0.00000  Uiso   1.00
H1146  H     0.34320   0.04733   0.90012   0.00000  Uiso   1.00
H1147  H     0.37847   0.11316   0.93793   0.00000  Uiso   1.00
H1148  H     0.40941   0.09885   0.88853   0.00000  Uiso   1.00
H1149  H     0.48807   0.07694   0.94093   0.00000  Uiso   1.00
H1150  H     0.45336   0.07055   0.98580   0.00000  Uiso   1.00
C1151  C     0.56251   0.22990   0.71705   0.00000  Uiso   1.00
C1152  C     0.54026   0.27319   0.70742   0.00000  Uiso   1.00
C1153  C     0.57446   0.30634   0.73391   0.00000  Uiso   1.00
H1154  H     0.57866   0.29946   0.77208   0.00000  Uiso   1.00
H1155  H     0.61327   0.30774   0.72213   0.00000  Uiso   1.00
H1156  H     0.55676   0.00371   0.72712   0.00000  Uiso   1.00
H1157  H     0.53704   0.28112   0.66947   0.00000  Uiso   1.00
H1158  H     0.50100   0.27360   0.71796   0.00000  Uiso   1.00
H1159  H     0.57121   0.22426   0.75469   0.00000  Uiso   1.00
H1160  H     0.60062   0.22941   0.70390   0.00000  Uiso   1.00
C1161  C     0.83416   0.08757   0.83389   0.00000  Uiso   1.00
C1162  C     0.83211   0.24574   0.83279   0.00000  Uiso   1.00
C1163  C     0.73474   0.16681   0.82137   0.00000  Uiso   1.00
C1164  C     0.93192   0.16696   0.84526   0.00000  Uiso   1.00
C1165  C     0.67945   0.16677   0.81479   0.00000  Uiso   1.00
C1166  C     0.98721   0.16759   0.85175   0.00000  Uiso   1.00
C1167  C     0.80036   0.02245   0.80053   0.00000  Uiso   1.00
C1168  C     0.86485   0.31085   0.86672   0.00000  Uiso   1.00
C1169  C     0.79732   0.31290   0.79968   0.00000  Uiso   1.00
C1170  C     0.86758   0.02037   0.86782   0.00000  Uiso   1.00
C1171  C     0.83104   0.29038   0.83253   0.00000  Uiso   1.00
C1172  C     0.83450   0.04292   0.83446   0.00000  Uiso   1.00
C1173  C     0.80596   0.13751   0.69017   0.00000  Uiso   1.00
C1174  C     0.85906   0.19691   0.97658   0.00000  Uiso   1.00
C1175  C     0.80855   0.13499   0.97487   0.00000  Uiso   1.00
C1176  C     0.86079   0.19668   0.69265   0.00000  Uiso   1.00
Cu1177 Cu    0.83333   0.16667   0.88022   0.00000  Uiso   1.00
Cu1178 Cu    0.83333   0.16666   0.78645   0.00000  Uiso   1.00
H1179  H     0.99303   0.16586   0.77926   0.00000  Uiso   1.00
H1180  H     0.67361   0.16882   0.88723   0.00000  Uiso   1.00
H1181  H     0.77457   0.03995   0.77539   0.00000  Uiso   1.00
H1182  H     0.89062   0.29339   0.89191   0.00000  Uiso   1.00
H1183  H     0.78476   0.11424   0.70834   0.00000  Uiso   1.00
H1184  H     0.88044   0.22049   0.95905   0.00000  Uiso   1.00
N1185  N     0.83335   0.16668   0.95069   0.00000  Uiso   1.00
N1186  N     0.83332   0.16666   0.71597   0.00000  Uiso   1.00
O1187  O     0.83333   0.10655   0.87291   0.00000  Uiso   1.00
O1188  O     0.83334   0.22678   0.79375   0.00000  Uiso   1.00
O1189  O     0.83333   0.10654   0.79372   0.00000  Uiso   1.00
O1190  O     0.83334   0.22679   0.87294   0.00000  Uiso   1.00
O1191  O     0.75828   0.16667   0.86379   0.00000  Uiso   1.00
O1192  O     0.90839   0.16666   0.80288   0.00000  Uiso   1.00
O1193  O     0.75828   0.16666   0.78460   0.00000  Uiso   1.00
O1194  O     0.90839   0.16667   0.88207   0.00000  Uiso   1.00
O1195  O     0.76011   0.29475   0.76749   0.00000  Uiso   1.00
H1196  H     0.75361   0.26561   0.77709   0.00000  Uiso   1.00
O1197  O     0.90382   0.03848   0.90088   0.00000  Uiso   1.00
H1198  H     0.91151   0.06733   0.89096   0.00000  Uiso   1.00
C1199  C     0.79070   0.09240   0.95587   0.00000  Uiso   1.00
C1200  C     0.73809   0.09106   0.92511   0.00000  Uiso   1.00
C1201  C     0.71277   0.04768   0.92488   0.00000  Uiso   1.00
H1202  H     0.73897   0.02473   0.91347   0.00000  Uiso   1.00
H1203  H     0.70330   0.03868   0.96026   0.00000  Uiso   1.00
H1204  H     0.67653   0.04733   0.90012   0.00000  Uiso   1.00
H1205  H     0.71180   0.11316   0.93793   0.00000  Uiso   1.00
H1206  H     0.74274   0.09885   0.88853   0.00000  Uiso   1.00
H1207  H     0.82140   0.07694   0.94093   0.00000  Uiso   1.00
H1208  H     0.78669   0.07055   0.98580   0.00000  Uiso   1.00
C1209  C     0.89584   0.22990   0.71705   0.00000  Uiso   1.00
C1210  C     0.87360   0.27319   0.70742   0.00000  Uiso   1.00
C1211  C     0.90780   0.30634   0.73391   0.00000  Uiso   1.00
H1212  H     0.91199   0.29946   0.77208   0.00000  Uiso   1.00
H1213  H     0.94661   0.30774   0.72213   0.00000  Uiso   1.00
H1214  H     0.89009   0.00371   0.72712   0.00000  Uiso   1.00
H1215  H     0.87037   0.28112   0.66947   0.00000  Uiso   1.00
H1216  H     0.83434   0.27360   0.71796   0.00000  Uiso   1.00
H1217  H     0.90454   0.22426   0.75469   0.00000  Uiso   1.00
H1218  H     0.93395   0.22941   0.70390   0.00000  Uiso   1.00
C1219  C     0.16749   0.42091   0.83389   0.00000  Uiso   1.00
C1220  C     0.16544   0.57908   0.83279   0.00000  Uiso   1.00
C1221  C     0.06808   0.50014   0.82137   0.00000  Uiso   1.00
C1222  C     0.26526   0.50030   0.84526   0.00000  Uiso   1.00
C1223  C     0.01278   0.50010   0.81479   0.00000  Uiso   1.00
C1224  C     0.32054   0.50092   0.85175   0.00000  Uiso   1.00
C1225  C     0.13369   0.35578   0.80053   0.00000  Uiso   1.00
C1226  C     0.19819   0.64419   0.86672   0.00000  Uiso   1.00
C1227  C     0.13066   0.64623   0.79968   0.00000  Uiso   1.00
C1228  C     0.20091   0.35370   0.86782   0.00000  Uiso   1.00
C1229  C     0.16438   0.62371   0.83253   0.00000  Uiso   1.00
C1230  C     0.16783   0.37625   0.83446   0.00000  Uiso   1.00
C1231  C     0.13929   0.47085   0.69017   0.00000  Uiso   1.00
C1232  C     0.19239   0.53024   0.97658   0.00000  Uiso   1.00
C1233  C     0.14189   0.46832   0.97487   0.00000  Uiso   1.00
C1234  C     0.19412   0.53001   0.69265   0.00000  Uiso   1.00
Cu1235 Cu    0.16667   0.50001   0.88022   0.00000  Uiso   1.00
Cu1236 Cu    0.16667   0.49999   0.78645   0.00000  Uiso   1.00
H1237  H     0.32636   0.49920   0.77926   0.00000  Uiso   1.00
H1238  H     0.00694   0.50216   0.88723   0.00000  Uiso   1.00
H1239  H     0.10790   0.37328   0.77539   0.00000  Uiso   1.00
H1240  H     0.22396   0.62672   0.89191   0.00000  Uiso   1.00
H1241  H     0.11810   0.44758   0.70834   0.00000  Uiso   1.00
H1242  H     0.21377   0.55383   0.95905   0.00000  Uiso   1.00
N1243  N     0.16668   0.50001   0.95069   0.00000  Uiso   1.00
N1244  N     0.16665   0.49999   0.71597   0.00000  Uiso   1.00
O1245  O     0.16666   0.43989   0.87291   0.00000  Uiso   1.00
O1246  O     0.16667   0.56011   0.79375   0.00000  Uiso   1.00
O1247  O     0.16666   0.43988   0.79372   0.00000  Uiso   1.00
O1248  O     0.16667   0.56012   0.87294   0.00000  Uiso   1.00
O1249  O     0.09161   0.50000   0.86379   0.00000  Uiso   1.00
O1250  O     0.24172   0.50000   0.80288   0.00000  Uiso   1.00
O1251  O     0.09161   0.49999   0.78460   0.00000  Uiso   1.00
O1252  O     0.24172   0.50001   0.88207   0.00000  Uiso   1.00
O1253  O     0.09345   0.62808   0.76749   0.00000  Uiso   1.00
H1254  H     0.08695   0.59894   0.77709   0.00000  Uiso   1.00
O1255  O     0.23716   0.37181   0.90088   0.00000  Uiso   1.00
H1256  H     0.24485   0.40066   0.89096   0.00000  Uiso   1.00
C1257  C     0.12403   0.42573   0.95587   0.00000  Uiso   1.00
C1258  C     0.07143   0.42439   0.92511   0.00000  Uiso   1.00
C1259  C     0.04610   0.38101   0.92488   0.00000  Uiso   1.00
H1260  H     0.07230   0.35806   0.91347   0.00000  Uiso   1.00
H1261  H     0.03663   0.37201   0.96026   0.00000  Uiso   1.00
H1262  H     0.00986   0.38066   0.90012   0.00000  Uiso   1.00
H1263  H     0.04514   0.44649   0.93793   0.00000  Uiso   1.00
H1264  H     0.07608   0.43218   0.88853   0.00000  Uiso   1.00
H1265  H     0.15474   0.41027   0.94093   0.00000  Uiso   1.00
H1266  H     0.12003   0.40388   0.98580   0.00000  Uiso   1.00
C1267  C     0.22917   0.56324   0.71705   0.00000  Uiso   1.00
C1268  C     0.20693   0.60652   0.70742   0.00000  Uiso   1.00
C1269  C     0.24113   0.63967   0.73391   0.00000  Uiso   1.00
H1270  H     0.24533   0.63279   0.77208   0.00000  Uiso   1.00
H1271  H     0.27994   0.64108   0.72213   0.00000  Uiso   1.00
H1272  H     0.22343   0.33705   0.72712   0.00000  Uiso   1.00
H1273  H     0.20371   0.61446   0.66947   0.00000  Uiso   1.00
H1274  H     0.16767   0.60694   0.71796   0.00000  Uiso   1.00
H1275  H     0.23788   0.55759   0.75469   0.00000  Uiso   1.00
H1276  H     0.26729   0.56275   0.70390   0.00000  Uiso   1.00
C1277  C     0.50082   0.42091   0.83389   0.00000  Uiso   1.00
C1278  C     0.49878   0.57908   0.83279   0.00000  Uiso   1.00
C1279  C     0.40141   0.50014   0.82137   0.00000  Uiso   1.00
C1280  C     0.59859   0.50030   0.84526   0.00000  Uiso   1.00
C1281  C     0.34612   0.50010   0.81479   0.00000  Uiso   1.00
C1282  C     0.65387   0.50092   0.85175   0.00000  Uiso   1.00
C1283  C     0.46703   0.35578   0.80053   0.00000  Uiso   1.00
C1284  C     0.53152   0.64419   0.86672   0.00000  Uiso   1.00
C1285  C     0.46399   0.64623   0.79968   0.00000  Uiso   1.00
C1286  C     0.53424   0.35370   0.86782   0.00000  Uiso   1.00
C1287  C     0.49771   0.62371   0.83253   0.00000  Uiso   1.00
C1288  C     0.50117   0.37625   0.83446   0.00000  Uiso   1.00
C1289  C     0.47263   0.47085   0.69017   0.00000  Uiso   1.00
C1290  C     0.52572   0.53024   0.97658   0.00000  Uiso   1.00
C1291  C     0.47522   0.46832   0.97487   0.00000  Uiso   1.00
C1292  C     0.52745   0.53001   0.69265   0.00000  Uiso   1.00
Cu1293 Cu    0.50000   0.50001   0.88022   0.00000  Uiso   1.00
Cu1294 Cu    0.50000   0.49999   0.78645   0.00000  Uiso   1.00
H1295  H     0.65970   0.49920   0.77926   0.00000  Uiso   1.00
H1296  H     0.34027   0.50216   0.88723   0.00000  Uiso   1.00
H1297  H     0.44123   0.37328   0.77539   0.00000  Uiso   1.00
H1298  H     0.55729   0.62672   0.89191   0.00000  Uiso   1.00
H1299  H     0.45143   0.44758   0.70834   0.00000  Uiso   1.00
H1300  H     0.54710   0.55383   0.95905   0.00000  Uiso   1.00
N1301  N     0.50001   0.50001   0.95069   0.00000  Uiso   1.00
N1302  N     0.49999   0.49999   0.71597   0.00000  Uiso   1.00
O1303  O     0.50000   0.43989   0.87291   0.00000  Uiso   1.00
O1304  O     0.50000   0.56011   0.79375   0.00000  Uiso   1.00
O1305  O     0.50000   0.43988   0.79372   0.00000  Uiso   1.00
O1306  O     0.50000   0.56012   0.87294   0.00000  Uiso   1.00
O1307  O     0.42495   0.50000   0.86379   0.00000  Uiso   1.00
O1308  O     0.57505   0.50000   0.80288   0.00000  Uiso   1.00
O1309  O     0.42494   0.49999   0.78460   0.00000  Uiso   1.00
O1310  O     0.57506   0.50001   0.88207   0.00000  Uiso   1.00
O1311  O     0.42678   0.62808   0.76749   0.00000  Uiso   1.00
H1312  H     0.42028   0.59894   0.77709   0.00000  Uiso   1.00
O1313  O     0.57049   0.37181   0.90088   0.00000  Uiso   1.00
H1314  H     0.57818   0.40066   0.89096   0.00000  Uiso   1.00
C1315  C     0.45737   0.42573   0.95587   0.00000  Uiso   1.00
C1316  C     0.40476   0.42439   0.92511   0.00000  Uiso   1.00
C1317  C     0.37943   0.38101   0.92488   0.00000  Uiso   1.00
H1318  H     0.40563   0.35806   0.91347   0.00000  Uiso   1.00
H1319  H     0.36996   0.37201   0.96026   0.00000  Uiso   1.00
H1320  H     0.34320   0.38066   0.90012   0.00000  Uiso   1.00
H1321  H     0.37847   0.44649   0.93793   0.00000  Uiso   1.00
H1322  H     0.40941   0.43218   0.88853   0.00000  Uiso   1.00
H1323  H     0.48807   0.41027   0.94093   0.00000  Uiso   1.00
H1324  H     0.45336   0.40388   0.98580   0.00000  Uiso   1.00
C1325  C     0.56251   0.56324   0.71705   0.00000  Uiso   1.00
C1326  C     0.54026   0.60652   0.70742   0.00000  Uiso   1.00
C1327  C     0.57446   0.63967   0.73391   0.00000  Uiso   1.00
H1328  H     0.57866   0.63279   0.77208   0.00000  Uiso   1.00
H1329  H     0.61327   0.64108   0.72213   0.00000  Uiso   1.00
H1330  H     0.55676   0.33705   0.72712   0.00000  Uiso   1.00
H1331  H     0.53704   0.61446   0.66947   0.00000  Uiso   1.00
H1332  H     0.50100   0.60694   0.71796   0.00000  Uiso   1.00
H1333  H     0.57121   0.55759   0.75469   0.00000  Uiso   1.00
H1334  H     0.60062   0.56275   0.70390   0.00000  Uiso   1.00
C1335  C     0.83416   0.42091   0.83389   0.00000  Uiso   1.00
C1336  C     0.83211   0.57908   0.83279   0.00000  Uiso   1.00
C1337  C     0.73474   0.50014   0.82137   0.00000  Uiso   1.00
C1338  C     0.93192   0.50030   0.84526   0.00000  Uiso   1.00
C1339  C     0.67945   0.50010   0.81479   0.00000  Uiso   1.00
C1340  C     0.98721   0.50092   0.85175   0.00000  Uiso   1.00
C1341  C     0.80036   0.35578   0.80053   0.00000  Uiso   1.00
C1342  C     0.86485   0.64419   0.86672   0.00000  Uiso   1.00
C1343  C     0.79732   0.64623   0.79968   0.00000  Uiso   1.00
C1344  C     0.86758   0.35370   0.86782   0.00000  Uiso   1.00
C1345  C     0.83104   0.62371   0.83253   0.00000  Uiso   1.00
C1346  C     0.83450   0.37625   0.83446   0.00000  Uiso   1.00
C1347  C     0.80596   0.47085   0.69017   0.00000  Uiso   1.00
C1348  C     0.85906   0.53024   0.97658   0.00000  Uiso   1.00
C1349  C     0.80855   0.46832   0.97487   0.00000  Uiso   1.00
C1350  C     0.86079   0.53001   0.69265   0.00000  Uiso   1.00
Cu1351 Cu    0.83333   0.50001   0.88022   0.00000  Uiso   1.00
Cu1352 Cu    0.83333   0.49999   0.78645   0.00000  Uiso   1.00
H1353  H     0.99303   0.49920   0.77926   0.00000  Uiso   1.00
H1354  H     0.67361   0.50216   0.88723   0.00000  Uiso   1.00
H1355  H     0.77457   0.37328   0.77539   0.00000  Uiso   1.00
H1356  H     0.89062   0.62672   0.89191   0.00000  Uiso   1.00
H1357  H     0.78476   0.44758   0.70834   0.00000  Uiso   1.00
H1358  H     0.88044   0.55383   0.95905   0.00000  Uiso   1.00
N1359  N     0.83335   0.50001   0.95069   0.00000  Uiso   1.00
N1360  N     0.83332   0.49999   0.71597   0.00000  Uiso   1.00
O1361  O     0.83333   0.43989   0.87291   0.00000  Uiso   1.00
O1362  O     0.83334   0.56011   0.79375   0.00000  Uiso   1.00
O1363  O     0.83333   0.43988   0.79372   0.00000  Uiso   1.00
O1364  O     0.83334   0.56012   0.87294   0.00000  Uiso   1.00
O1365  O     0.75828   0.50000   0.86379   0.00000  Uiso   1.00
O1366  O     0.90839   0.50000   0.80288   0.00000  Uiso   1.00
O1367  O     0.75828   0.49999   0.78460   0.00000  Uiso   1.00
O1368  O     0.90839   0.50001   0.88207   0.00000  Uiso   1.00
O1369  O     0.76011   0.62808   0.76749   0.00000  Uiso   1.00
H1370  H     0.75361   0.59894   0.77709   0.00000  Uiso   1.00
O1371  O     0.90382   0.37181   0.90088   0.00000  Uiso   1.00
H1372  H     0.91151   0.40066   0.89096   0.00000  Uiso   1.00
C1373  C     0.79070   0.42573   0.95587   0.00000  Uiso   1.00
C1374  C     0.73809   0.42439   0.92511   0.00000  Uiso   1.00
C1375  C     0.71277   0.38101   0.92488   0.00000  Uiso   1.00
H1376  H     0.73897   0.35806   0.91347   0.00000  Uiso   1.00
H1377  H     0.70330   0.37201   0.96026   0.00000  Uiso   1.00
H1378  H     0.67653   0.38066   0.90012   0.00000  Uiso   1.00
H1379  H     0.71180   0.44649   0.93793   0.00000  Uiso   1.00
H1380  H     0.74274   0.43218   0.88853   0.00000  Uiso   1.00
H1381  H     0.82140   0.41027   0.94093   0.00000  Uiso   1.00
H1382  H     0.78669   0.40388   0.98580   0.00000  Uiso   1.00
C1383  C     0.89584   0.56324   0.71705   0.00000  Uiso   1.00
C1384  C     0.87360   0.60652   0.70742   0.00000  Uiso   1.00
C1385  C     0.90780   0.63967   0.73391   0.00000  Uiso   1.00
H1386  H     0.91199   0.63279   0.77208   0.00000  Uiso   1.00
H1387  H     0.94661   0.64108   0.72213   0.00000  Uiso   1.00
H1388  H     0.89009   0.33705   0.72712   0.00000  Uiso   1.00
H1389  H     0.87037   0.61446   0.66947   0.00000  Uiso   1.00
H1390  H     0.83434   0.60694   0.71796   0.00000  Uiso   1.00
H1391  H     0.90454   0.55759   0.75469   0.00000  Uiso   1.00
H1392  H     0.93395   0.56275   0.70390   0.00000  Uiso   1.00
C1393  C     0.16749   0.75424   0.83389   0.00000  Uiso   1.00
C1394  C     0.16544   0.91241   0.83279   0.00000  Uiso   1.00
C1395  C     0.06808   0.83347   0.82137   0.00000  Uiso   1.00
C1396  C     0.26526   0.83363   0.84526   0.00000  Uiso   1.00
C1397  C     0.01278   0.83343   0.81479   0.00000  Uiso   1.00
C1398  C     0.32054   0.83425   0.85175   0.00000  Uiso   1.00
C1399  C     0.13369   0.68912   0.80053   0.00000  Uiso   1.00
C1400  C     0.19819   0.97752   0.86672   0.00000  Uiso   1.00
C1401  C     0.13066   0.97957   0.79968   0.00000  Uiso   1.00
C1402  C     0.20091   0.68704   0.86782   0.00000  Uiso   1.00
C1403  C     0.16438   0.95704   0.83253   0.00000  Uiso   1.00
C1404  C     0.16783   0.70959   0.83446   0.00000  Uiso   1.00
C1405  C     0.13929   0.80418   0.69017   0.00000  Uiso   1.00
C1406  C     0.19239   0.86357   0.97658   0.00000  Uiso   1.00
C1407  C     0.14189   0.80166   0.97487   0.00000  Uiso   1.00
C1408  C     0.19412   0.86335   0.69265   0.00000  Uiso   1.00
Cu1409 Cu    0.16667   0.83334   0.88022   0.00000  Uiso   1.00
Cu1410 Cu    0.16667   0.83333   0.78645   0.00000  Uiso   1.00
H1411  H     0.32636   0.83253   0.77926   0.00000  Uiso   1.00
H1412  H     0.00694   0.83549   0.88723   0.00000  Uiso   1.00
H1413  H     0.10790   0.70662   0.77539   0.00000  Uiso   1.00
H1414  H     0.22396   0.96006   0.89191   0.00000  Uiso   1.00
H1415  H     0.11810   0.78091   0.70834   0.00000  Uiso   1.00
H1416  H     0.21377   0.88716   0.95905   0.00000  Uiso   1.00
N1417  N     0.16668   0.83334   0.95069   0.00000  Uiso   1.00
N1418  N     0.16665   0.83332   0.71597   0.00000  Uiso   1.00
O1419  O     0.16666   0.77322   0.87291   0.00000  Uiso   1.00
O1420  O     0.16667   0.89345   0.79375   0.00000  Uiso   1.00
O1421  O     0.16666   0.77321   0.79372   0.00000  Uiso   1.00
O1422  O     0.16667   0.89346   0.87294   0.00000  Uiso   1.00
O1423  O     0.09161   0.83334   0.86379   0.00000  Uiso   1.00
O1424  O     0.24172   0.83333   0.80288   0.00000  Uiso   1.00
O1425  O     0.09161   0.83333   0.78460   0.00000  Uiso   1.00
O1426  O     0.24172   0.83334   0.88207   0.00000  Uiso   1.00
O1427  O     0.09345   0.96141   0.76749   0.00000  Uiso   1.00
H1428  H     0.08695   0.93227   0.77709   0.00000  Uiso   1.00
O1429  O     0.23716   0.70514   0.90088   0.00000  Uiso   1.00
H1430  H     0.24485   0.73399   0.89096   0.00000  Uiso   1.00
C1431  C     0.12403   0.75907   0.95587   0.00000  Uiso   1.00
C1432  C     0.07143   0.75773   0.92511   0.00000  Uiso   1.00
C1433  C     0.04610   0.71435   0.92488   0.00000  Uiso   1.00
H1434  H     0.07230   0.69139   0.91347   0.00000  Uiso   1.00
H1435  H     0.03663   0.70534   0.96026   0.00000  Uiso   1.00
H1436  H     0.00986   0.71399   0.90012   0.00000  Uiso   1.00
H1437  H     0.04514   0.77983   0.93793   0.00000  Uiso   1.00
H1438  H     0.07608   0.76551   0.88853   0.00000  Uiso   1.00
H1439  H     0.15474   0.74361   0.94093   0.00000  Uiso   1.00
H1440  H     0.12003   0.73722   0.98580   0.00000  Uiso   1.00
C1441  C     0.22917   0.89657   0.71705   0.00000  Uiso   1.00
C1442  C     0.20693   0.93986   0.70742   0.00000  Uiso   1.00
C1443  C     0.24113   0.97300   0.73391   0.00000  Uiso   1.00
H1444  H     0.24533   0.96613   0.77208   0.00000  Uiso   1.00
H1445  H     0.27994   0.97441   0.72213   0.00000  Uiso   1.00
H1446  H     0.22343   0.67038   0.72712   0.00000  Uiso   1.00
H1447  H     0.20371   0.94779   0.66947   0.00000  Uiso   1.00
H1448  H     0.16767   0.94027   0.71796   0.00000  Uiso   1.00
H1449  H     0.23788   0.89093   0.75469   0.00000  Uiso   1.00
H1450  H     0.26729   0.89608   0.70390   0.00000  Uiso   1.00
C1451  C     0.50082   0.75424   0.83389   0.00000  Uiso   1.00
C1452  C     0.49878   0.91241   0.83279   0.00000  Uiso   1.00
C1453  C     0.40141   0.83347   0.82137   0.00000  Uiso   1.00
C1454  C     0.59859   0.83363   0.84526   0.00000  Uiso   1.00
C1455  C     0.34612   0.83343   0.81479   0.00000  Uiso   1.00
C1456  C     0.65387   0.83425   0.85175   0.00000  Uiso   1.00
C1457  C     0.46703   0.68912   0.80053   0.00000  Uiso   1.00
C1458  C     0.53152   0.97752   0.86672   0.00000  Uiso   1.00
C1459  C     0.46399   0.97957   0.79968   0.00000  Uiso   1.00
C1460  C     0.53424   0.68704   0.86782   0.00000  Uiso   1.00
C1461  C     0.49771   0.95704   0.83253   0.00000  Uiso   1.00
C1462  C     0.50117   0.70959   0.83446   0.00000  Uiso   1.00
C1463  C     0.47263   0.80418   0.69017   0.00000  Uiso   1.00
C1464  C     0.52572   0.86357   0.97658   0.00000  Uiso   1.00
C1465  C     0.47522   0.80166   0.97487   0.00000  Uiso   1.00
C1466  C     0.52745   0.86335   0.69265   0.00000  Uiso   1.00
Cu1467 Cu    0.50000   0.83334   0.88022   0.00000  Uiso   1.00
Cu1468 Cu    0.50000   0.83333   0.78645   0.00000  Uiso   1.00
H1469  H     0.65970   0.83253   0.77926   0.00000  Uiso   1.00
H1470  H     0.34027   0.83549   0.88723   0.00000  Uiso   1.00
H1471  H     0.44123   0.70662   0.77539   0.00000  Uiso   1.00
H1472  H     0.55729   0.96006   0.89191   0.00000  Uiso   1.00
H1473  H     0.45143   0.78091   0.70834   0.00000  Uiso   1.00
H1474  H     0.54710   0.88716   0.95905   0.00000  Uiso   1.00
N1475  N     0.50001   0.83334   0.95069   0.00000  Uiso   1.00
N1476  N     0.49999   0.83332   0.71597   0.00000  Uiso   1.00
O1477  O     0.50000   0.77322   0.87291   0.00000  Uiso   1.00
O1478  O     0.50000   0.89345   0.79375   0.00000  Uiso   1.00
O1479  O     0.50000   0.77321   0.79372   0.00000  Uiso   1.00
O1480  O     0.50000   0.89346   0.87294   0.00000  Uiso   1.00
O1481  O     0.42495   0.83334   0.86379   0.00000  Uiso   1.00
O1482  O     0.57505   0.83333   0.80288   0.00000  Uiso   1.00
O1483  O     0.42494   0.83333   0.78460   0.00000  Uiso   1.00
O1484  O     0.57506   0.83334   0.88207   0.00000  Uiso   1.00
O1485  O     0.42678   0.96141   0.76749   0.00000  Uiso   1.00
H1486  H     0.42028   0.93227   0.77709   0.00000  Uiso   1.00
O1487  O     0.57049   0.70514   0.90088   0.00000  Uiso   1.00
H1488  H     0.57818   0.73399   0.89096   0.00000  Uiso   1.00
C1489  C     0.45737   0.75907   0.95587   0.00000  Uiso   1.00
C1490  C     0.40476   0.75773   0.92511   0.00000  Uiso   1.00
C1491  C     0.37943   0.71435   0.92488   0.00000  Uiso   1.00
H1492  H     0.40563   0.69139   0.91347   0.00000  Uiso   1.00
H1493  H     0.36996   0.70534   0.96026   0.00000  Uiso   1.00
H1494  H     0.34320   0.71399   0.90012   0.00000  Uiso   1.00
H1495  H     0.37847   0.77983   0.93793   0.00000  Uiso   1.00
H1496  H     0.40941   0.76551   0.88853   0.00000  Uiso   1.00
H1497  H     0.48807   0.74361   0.94093   0.00000  Uiso   1.00
H1498  H     0.45336   0.73722   0.98580   0.00000  Uiso   1.00
C1499  C     0.56251   0.89657   0.71705   0.00000  Uiso   1.00
C1500  C     0.54026   0.93986   0.70742   0.00000  Uiso   1.00
C1501  C     0.57446   0.97300   0.73391   0.00000  Uiso   1.00
H1502  H     0.57866   0.96613   0.77208   0.00000  Uiso   1.00
H1503  H     0.61327   0.97441   0.72213   0.00000  Uiso   1.00
H1504  H     0.55676   0.67038   0.72712   0.00000  Uiso   1.00
H1505  H     0.53704   0.94779   0.66947   0.00000  Uiso   1.00
H1506  H     0.50100   0.94027   0.71796   0.00000  Uiso   1.00
H1507  H     0.57121   0.89093   0.75469   0.00000  Uiso   1.00
H1508  H     0.60062   0.89608   0.70390   0.00000  Uiso   1.00
C1509  C     0.83416   0.75424   0.83389   0.00000  Uiso   1.00
C1510  C     0.83211   0.91241   0.83279   0.00000  Uiso   1.00
C1511  C     0.73474   0.83347   0.82137   0.00000  Uiso   1.00
C1512  C     0.93192   0.83363   0.84526   0.00000  Uiso   1.00
C1513  C     0.67945   0.83343   0.81479   0.00000  Uiso   1.00
C1514  C     0.98721   0.83425   0.85175   0.00000  Uiso   1.00
C1515  C     0.80036   0.68912   0.80053   0.00000  Uiso   1.00
C1516  C     0.86485   0.97752   0.86672   0.00000  Uiso   1.00
C1517  C     0.79732   0.97957   0.79968   0.00000  Uiso   1.00
C1518  C     0.86758   0.68704   0.86782   0.00000  Uiso   1.00
C1519  C     0.83104   0.95704   0.83253   0.00000  Uiso   1.00
C1520  C     0.83450   0.70959   0.83446   0.00000  Uiso   1.00
C1521  C     0.80596   0.80418   0.69017   0.00000  Uiso   1.00
C1522  C     0.85906   0.86357   0.97658   0.00000  Uiso   1.00
C1523  C     0.80855   0.80166   0.97487   0.00000  Uiso   1.00
C1524  C     0.86079   0.86335   0.69265   0.00000  Uiso   1.00
Cu1525 Cu    0.83333   0.83334   0.88022   0.00000  Uiso   1.00
Cu1526 Cu    0.83333   0.83333   0.78645   0.00000  Uiso   1.00
H1527  H     0.99303   0.83253   0.77926   0.00000  Uiso   1.00
H1528  H     0.67361   0.83549   0.88723   0.00000  Uiso   1.00
H1529  H     0.77457   0.70662   0.77539   0.00000  Uiso   1.00
H1530  H     0.89062   0.96006   0.89191   0.00000  Uiso   1.00
H1531  H     0.78476   0.78091   0.70834   0.00000  Uiso   1.00
H1532  H     0.88044   0.88716   0.95905   0.00000  Uiso   1.00
N1533  N     0.83335   0.83334   0.95069   0.00000  Uiso   1.00
N1534  N     0.83332   0.83332   0.71597   0.00000  Uiso   1.00
O1535  O     0.83333   0.77322   0.87291   0.00000  Uiso   1.00
O1536  O     0.83334   0.89345   0.79375   0.00000  Uiso   1.00
O1537  O     0.83333   0.77321   0.79372   0.00000  Uiso   1.00
O1538  O     0.83334   0.89346   0.87294   0.00000  Uiso   1.00
O1539  O     0.75828   0.83334   0.86379   0.00000  Uiso   1.00
O1540  O     0.90839   0.83333   0.80288   0.00000  Uiso   1.00
O1541  O     0.75828   0.83333   0.78460   0.00000  Uiso   1.00
O1542  O     0.90839   0.83334   0.88207   0.00000  Uiso   1.00
O1543  O     0.76011   0.96141   0.76749   0.00000  Uiso   1.00
H1544  H     0.75361   0.93227   0.77709   0.00000  Uiso   1.00
O1545  O     0.90382   0.70514   0.90088   0.00000  Uiso   1.00
H1546  H     0.91151   0.73399   0.89096   0.00000  Uiso   1.00
C1547  C     0.79070   0.75907   0.95587   0.00000  Uiso   1.00
C1548  C     0.73809   0.75773   0.92511   0.00000  Uiso   1.00
C1549  C     0.71277   0.71435   0.92488   0.00000  Uiso   1.00
H1550  H     0.73897   0.69139   0.91347   0.00000  Uiso   1.00
H1551  H     0.70330   0.70534   0.96026   0.00000  Uiso   1.00
H1552  H     0.67653   0.71399   0.90012   0.00000  Uiso   1.00
H1553  H     0.71180   0.77983   0.93793   0.00000  Uiso   1.00
H1554  H     0.74274   0.76551   0.88853   0.00000  Uiso   1.00
H1555  H     0.82140   0.74361   0.94093   0.00000  Uiso   1.00
H1556  H     0.78669   0.73722   0.98580   0.00000  Uiso   1.00
C1557  C     0.89584   0.89657   0.71705   0.00000  Uiso   1.00
C1558  C     0.87360   0.93986   0.70742   0.00000  Uiso   1.00
C1559  C     0.90780   0.97300   0.73391   0.00000  Uiso   1.00
H1560  H     0.91199   0.96613   0.77208   0.00000  Uiso   1.00
H1561  H     0.94661   0.97441   0.72213   0.00000  Uiso   1.00
H1562  H     0.89009   0.67038   0.72712   0.00000  Uiso   1.00
H1563  H     0.87037   0.94779   0.66947   0.00000  Uiso   1.00
H1564  H     0.83434   0.94027   0.71796   0.00000  Uiso   1.00
H1565  H     0.90454   0.89093   0.75469   0.00000  Uiso   1.00
H1566  H     0.93395   0.89608   0.70390   0.00000  Uiso   1.00
loop_
_geom_bond_atom_site_label_1
_geom_bond_atom_site_label_2
_geom_bond_distance
_geom_bond_site_symmetry_2
_ccdc_geom_bond_type
C1     O29     1.294   .     A
C1     C12     1.442   .     S
C1     O27     1.301   .     A
C2     O30     1.293   .     A
C2     C11     1.442   .     S
C2     O28     1.302   .     A
C3     O31     1.297   .     A
C3     O33     1.295   .     A
C3     C5      1.434   .     S
C4     O32     1.296   .     A
C4     C6      1.433   .     S
C4     O34     1.296   .     A
C5     C122    1.333   1_455 S
C5     H135    1.087   1_455 S
C6     C63     1.333   .     S
C6     H78     1.086   .     S
C7     C12     1.400   .     A
C7     H21     1.085   .     S
C7     C357    1.385   1_545 S
C8     H22     1.085   .     S
C8     C11     1.400   .     A
C8     C184    1.384   .     S
C9     C11     1.412   .     A
C9     O35     1.382   .     S
C9     C181    1.385   .     S
C10    C12     1.412   .     A
C10    O37     1.381   .     S
C10    C356    1.384   1_545 S
C13    N26     1.344   .     A
C13    H23     1.083   .     S
C13    C1059   1.419   1_554 S
C14    N25     1.352   .     A
C14    H24     1.082   .     S
C14    C538    1.421   .     S
C15    C39     1.530   .     S
C15    N25     1.410   .     A
C15    C535    1.419   .     S
C16    N26     1.397   .     A
C16    C49     1.514   .     S
C16    C1058   1.421   1_554 S
Cu17   N25     2.035   .     S
Cu17   O30     1.947   .     S
Cu17   Cu18    2.708   .     S
Cu17   O31     1.958   .     S
Cu17   O34     1.957   .     S
Cu17   O27     1.959   .     S
Cu18   N26     2.035   .     S
Cu18   O29     1.947   .     S
Cu18   O33     1.957   .     S
Cu18   O32     1.958   .     S
Cu18   O28     1.959   .     S
H19    C63     1.087   .     S
H20    C122    1.086   1_455 S
O35    H36     0.989   .     S
O37    H38     0.989   .     S
C39    C40     1.537   .     S
C39    H47     1.100   .     S
C39    H48     1.114   .     S
C40    C41     1.528   .     S
C40    H46     1.100   .     S
C40    H45     1.111   .     S
C41    H42     1.112   .     S
C41    H43     1.111   .     S
C41    H44     1.110   .     S
C49    H57     1.092   .     S
C49    C50     1.537   .     S
C49    H58     1.113   .     S
C50    C51     1.527   .     S
C50    H56     1.109   .     S
C50    H55     1.111   .     S
C51    H52     1.110   .     S
C51    H53     1.111   .     S
C51    H228    1.111   .     S
H54    C399    1.111   1_545 S
C59    O87     1.294   .     A
C59    C70     1.442   .     S
C59    O85     1.301   .     A
C60    O88     1.293   .     A
C60    C69     1.442   .     S
C60    O86     1.302   .     A
C61    O89     1.297   .     A
C61    O91     1.295   .     A
C61    C63     1.434   .     S
C62    O90     1.296   .     A
C62    C64     1.433   .     S
C62    O92     1.296   .     A
C64    C121    1.333   .     S
C64    H136    1.086   .     S
C65    C70     1.400   .     A
C65    H79     1.085   .     S
C65    C415    1.385   1_545 S
C66    H80     1.085   .     S
C66    C69     1.400   .     A
C66    C242    1.384   .     S
C67    C69     1.412   .     A
C67    O93     1.382   .     S
C67    C239    1.385   .     S
C68    C70     1.412   .     A
C68    O95     1.381   .     S
C68    C414    1.384   1_545 S
C71    N84     1.344   .     A
C71    H81     1.083   .     S
C71    C1117   1.419   1_554 S
C72    N83     1.352   .     A
C72    H82     1.082   .     S
C72    C596    1.421   .     S
C73    C97     1.530   .     S
C73    N83     1.410   .     A
C73    C593    1.419   .     S
C74    N84     1.397   .     A
C74    C107    1.514   .     S
C74    C1116   1.421   1_554 S
Cu75   N83     2.035   .     S
Cu75   O88     1.947   .     S
Cu75   Cu76    2.708   .     S
Cu75   O89     1.958   .     S
Cu75   O92     1.957   .     S
Cu75   O85     1.959   .     S
Cu76   N84     2.035   .     S
Cu76   O87     1.947   .     S
Cu76   O91     1.957   .     S
Cu76   O90     1.958   .     S
Cu76   O86     1.959   .     S
H77    C121    1.087   .     S
O93    H94     0.989   .     S
O95    H96     0.989   .     S
C97    C98     1.537   .     S
C97    H105    1.100   .     S
C97    H106    1.114   .     S
C98    C99     1.528   .     S
C98    H104    1.100   .     S
C98    H103    1.111   .     S
C99    H100    1.112   .     S
C99    H101    1.111   .     S
C99    H102    1.110   .     S
C107   H115    1.092   .     S
C107   C108    1.537   .     S
C107   H116    1.113   .     S
C108   C109    1.527   .     S
C108   H114    1.109   .     S
C108   H113    1.111   .     S
C109   H110    1.110   .     S
C109   H111    1.111   .     S
C109   H286    1.111   .     S
H112   C457    1.111   1_545 S
C117   O145    1.294   .     A
C117   C128    1.442   .     S
C117   O143    1.301   .     A
C118   O146    1.293   .     A
C118   C127    1.442   .     S
C118   O144    1.302   .     A
C119   O147    1.297   .     A
C119   O149    1.295   .     A
C119   C121    1.434   .     S
C120   O148    1.296   .     A
C120   C122    1.433   .     S
C120   O150    1.296   .     A
C122   C5      1.333   1_655 S
C122   H20     1.086   1_655 S
C123   C128    1.400   .     A
C123   H137    1.085   .     S
C123   C473    1.385   1_545 S
C124   H138    1.085   .     S
C124   C127    1.400   .     A
C124   C300    1.384   .     S
C125   C127    1.412   .     A
C125   O151    1.382   .     S
C125   C297    1.385   .     S
C126   C128    1.412   .     A
C126   O153    1.381   .     S
C126   C472    1.384   1_545 S
C129   N142    1.344   .     A
C129   H139    1.083   .     S
C129   C1175   1.419   1_554 S
C130   N141    1.352   .     A
C130   H140    1.082   .     S
C130   C654    1.421   .     S
C131   C155    1.530   .     S
C131   N141    1.410   .     A
C131   C651    1.419   .     S
C132   N142    1.397   .     A
C132   C165    1.514   .     S
C132   C1174   1.421   1_554 S
Cu133  N141    2.035   .     S
Cu133  O146    1.947   .     S
Cu133  Cu134   2.708   .     S
Cu133  O147    1.958   .     S
Cu133  O150    1.957   .     S
Cu133  O143    1.959   .     S
Cu134  N142    2.035   .     S
Cu134  O145    1.947   .     S
Cu134  O149    1.957   .     S
Cu134  O148    1.958   .     S
Cu134  O144    1.959   .     S
H135   C5      1.087   1_655 S
O151   H152    0.989   .     S
O153   H154    0.989   .     S
C155   C156    1.537   .     S
C155   H163    1.100   .     S
C155   H164    1.114   .     S
C156   C157    1.528   .     S
C156   H162    1.100   .     S
C156   H161    1.111   .     S
C157   H158    1.112   .     S
C157   H159    1.111   .     S
C157   H160    1.110   .     S
C165   H173    1.092   .     S
C165   C166    1.537   .     S
C165   H174    1.113   .     S
C166   C167    1.527   .     S
C166   H172    1.109   .     S
C166   H171    1.111   .     S
C167   H168    1.110   .     S
C167   H169    1.111   .     S
C167   H344    1.111   .     S
H170   C515    1.111   1_545 S
C175   O203    1.294   .     A
C175   C186    1.442   .     S
C175   O201    1.301   .     A
C176   O204    1.293   .     A
C176   C185    1.442   .     S
C176   O202    1.302   .     A
C177   O205    1.297   .     A
C177   O207    1.295   .     A
C177   C179    1.434   .     S
C178   O206    1.296   .     A
C178   C180    1.433   .     S
C178   O208    1.296   .     A
C179   C296    1.333   1_455 S
C179   H309    1.087   1_455 S
C180   C237    1.333   .     S
C180   H252    1.086   .     S
C181   C186    1.400   .     A
C181   H195    1.085   .     S
C182   H196    1.085   .     S
C182   C185    1.400   .     A
C182   C358    1.384   .     S
C183   C185    1.412   .     A
C183   O209    1.382   .     S
C183   C355    1.385   .     S
C184   C186    1.412   .     A
C184   O211    1.381   .     S
C187   N200    1.344   .     A
C187   H197    1.083   .     S
C187   C1233   1.419   1_554 S
C188   N199    1.352   .     A
C188   H198    1.082   .     S
C188   C712    1.421   .     S
C189   C213    1.530   .     S
C189   N199    1.410   .     A
C189   C709    1.419   .     S
C190   N200    1.397   .     A
C190   C223    1.514   .     S
C190   C1232   1.421   1_554 S
Cu191  N199    2.035   .     S
Cu191  O204    1.947   .     S
Cu191  Cu192   2.708   .     S
Cu191  O205    1.958   .     S
Cu191  O208    1.957   .     S
Cu191  O201    1.959   .     S
Cu192  N200    2.035   .     S
Cu192  O203    1.947   .     S
Cu192  O207    1.957   .     S
Cu192  O206    1.958   .     S
Cu192  O202    1.959   .     S
H193   C237    1.087   .     S
H194   C296    1.086   1_455 S
O209   H210    0.989   .     S
O211   H212    0.989   .     S
C213   C214    1.537   .     S
C213   H221    1.100   .     S
C213   H222    1.114   .     S
C214   C215    1.528   .     S
C214   H220    1.100   .     S
C214   H219    1.111   .     S
C215   H216    1.112   .     S
C215   H217    1.111   .     S
C215   H218    1.110   .     S
C223   H231    1.092   .     S
C223   C224    1.537   .     S
C223   H232    1.113   .     S
C224   C225    1.527   .     S
C224   H230    1.109   .     S
C224   H229    1.111   .     S
C225   H226    1.110   .     S
C225   H227    1.111   .     S
C225   H402    1.111   .     S
C233   O261    1.294   .     A
C233   C244    1.442   .     S
C233   O259    1.301   .     A
C234   O262    1.293   .     A
C234   C243    1.442   .     S
C234   O260    1.302   .     A
C235   O263    1.297   .     A
C235   O265    1.295   .     A
C235   C237    1.434   .     S
C236   O264    1.296   .     A
C236   C238    1.433   .     S
C236   O266    1.296   .     A
C238   C295    1.333   .     S
C238   H310    1.086   .     S
C239   C244    1.400   .     A
C239   H253    1.085   .     S
C240   H254    1.085   .     S
C240   C243    1.400   .     A
C240   C416    1.384   .     S
C241   C243    1.412   .     A
C241   O267    1.382   .     S
C241   C413    1.385   .     S
C242   C244    1.412   .     A
C242   O269    1.381   .     S
C245   N258    1.344   .     A
C245   H255    1.083   .     S
C245   C1291   1.419   1_554 S
C246   N257    1.352   .     A
C246   H256    1.082   .     S
C246   C770    1.421   .     S
C247   C271    1.530   .     S
C247   N257    1.410   .     A
C247   C767    1.419   .     S
C248   N258    1.397   .     A
C248   C281    1.514   .     S
C248   C1290   1.421   1_554 S
Cu249  N257    2.035   .     S
Cu249  O262    1.947   .     S
Cu249  Cu250   2.708   .     S
Cu249  O263    1.958   .     S
Cu249  O266    1.957   .     S
Cu249  O259    1.959   .     S
Cu250  N258    2.035   .     S
Cu250  O261    1.947   .     S
Cu250  O265    1.957   .     S
Cu250  O264    1.958   .     S
Cu250  O260    1.959   .     S
H251   C295    1.087   .     S
O267   H268    0.989   .     S
O269   H270    0.989   .     S
C271   C272    1.537   .     S
C271   H279    1.100   .     S
C271   H280    1.114   .     S
C272   C273    1.528   .     S
C272   H278    1.100   .     S
C272   H277    1.111   .     S
C273   H274    1.112   .     S
C273   H275    1.111   .     S
C273   H276    1.110   .     S
C281   H289    1.092   .     S
C281   C282    1.537   .     S
C281   H290    1.113   .     S
C282   C283    1.527   .     S
C282   H288    1.109   .     S
C282   H287    1.111   .     S
C283   H284    1.110   .     S
C283   H285    1.111   .     S
C283   H460    1.111   .     S
C291   O319    1.294   .     A
C291   C302    1.442   .     S
C291   O317    1.301   .     A
C292   O320    1.293   .     A
C292   C301    1.442   .     S
C292   O318    1.302   .     A
C293   O321    1.297   .     A
C293   O323    1.295   .     A
C293   C295    1.434   .     S
C294   O322    1.296   .     A
C294   C296    1.433   .     S
C294   O324    1.296   .     A
C296   C179    1.333   1_655 S
C296   H194    1.086   1_655 S
C297   C302    1.400   .     A
C297   H311    1.085   .     S
C298   H312    1.085   .     S
C298   C301    1.400   .     A
C298   C474    1.384   .     S
C299   C301    1.412   .     A
C299   O325    1.382   .     S
C299   C471    1.385   .     S
C300   C302    1.412   .     A
C300   O327    1.381   .     S
C303   N316    1.344   .     A
C303   H313    1.083   .     S
C303   C1349   1.419   1_554 S
C304   N315    1.352   .     A
C304   H314    1.082   .     S
C304   C828    1.421   .     S
C305   C329    1.530   .     S
C305   N315    1.410   .     A
C305   C825    1.419   .     S
C306   N316    1.397   .     A
C306   C339    1.514   .     S
C306   C1348   1.421   1_554 S
Cu307  N315    2.035   .     S
Cu307  O320    1.947   .     S
Cu307  Cu308   2.708   .     S
Cu307  O321    1.958   .     S
Cu307  O324    1.957   .     S
Cu307  O317    1.959   .     S
Cu308  N316    2.035   .     S
Cu308  O319    1.947   .     S
Cu308  O323    1.957   .     S
Cu308  O322    1.958   .     S
Cu308  O318    1.959   .     S
H309   C179    1.087   1_655 S
O325   H326    0.989   .     S
O327   H328    0.989   .     S
C329   C330    1.537   .     S
C329   H337    1.100   .     S
C329   H338    1.114   .     S
C330   C331    1.528   .     S
C330   H336    1.100   .     S
C330   H335    1.111   .     S
C331   H332    1.112   .     S
C331   H333    1.111   .     S
C331   H334    1.110   .     S
C339   H347    1.092   .     S
C339   C340    1.537   .     S
C339   H348    1.113   .     S
C340   C341    1.527   .     S
C340   H346    1.109   .     S
C340   H345    1.111   .     S
C341   H342    1.110   .     S
C341   H343    1.111   .     S
C341   H518    1.111   .     S
C349   O377    1.294   .     A
C349   C360    1.442   .     S
C349   O375    1.301   .     A
C350   O378    1.293   .     A
C350   C359    1.442   .     S
C350   O376    1.302   .     A
C351   O379    1.297   .     A
C351   O381    1.295   .     A
C351   C353    1.434   .     S
C352   O380    1.296   .     A
C352   C354    1.433   .     S
C352   O382    1.296   .     A
C353   C470    1.333   1_455 S
C353   H483    1.087   1_455 S
C354   C411    1.333   .     S
C354   H426    1.086   .     S
C355   C360    1.400   .     A
C355   H369    1.085   .     S
C356   H370    1.085   .     S
C356   C359    1.400   .     A
C356   C10     1.384   1_565 S
C357   C359    1.412   .     A
C357   O383    1.382   .     S
C357   C7      1.385   1_565 S
C358   C360    1.412   .     A
C358   O385    1.381   .     S
C361   N374    1.344   .     A
C361   H371    1.083   .     S
C361   C1407   1.419   1_554 S
C362   N373    1.352   .     A
C362   H372    1.082   .     S
C362   C886    1.421   .     S
C363   C387    1.530   .     S
C363   N373    1.410   .     A
C363   C883    1.419   .     S
C364   N374    1.397   .     A
C364   C397    1.514   .     S
C364   C1406   1.421   1_554 S
Cu365  N373    2.035   .     S
Cu365  O378    1.947   .     S
Cu365  Cu366   2.708   .     S
Cu365  O379    1.958   .     S
Cu365  O382    1.957   .     S
Cu365  O375    1.959   .     S
Cu366  N374    2.035   .     S
Cu366  O377    1.947   .     S
Cu366  O381    1.957   .     S
Cu366  O380    1.958   .     S
Cu366  O376    1.959   .     S
H367   C411    1.087   .     S
H368   C470    1.086   1_455 S
O383   H384    0.989   .     S
O385   H386    0.989   .     S
C387   C388    1.537   .     S
C387   H395    1.100   .     S
C387   H396    1.114   .     S
C388   C389    1.528   .     S
C388   H394    1.100   .     S
C388   H393    1.111   .     S
C389   H390    1.112   .     S
C389   H391    1.111   .     S
C389   H392    1.110   .     S
C397   H405    1.092   .     S
C397   C398    1.537   .     S
C397   H406    1.113   .     S
C398   C399    1.527   .     S
C398   H404    1.109   .     S
C398   H403    1.111   .     S
C399   H400    1.110   .     S
C399   H401    1.111   .     S
C399   H54     1.111   1_565 S
C407   O435    1.294   .     A
C407   C418    1.442   .     S
C407   O433    1.301   .     A
C408   O436    1.293   .     A
C408   C417    1.442   .     S
C408   O434    1.302   .     A
C409   O437    1.297   .     A
C409   O439    1.295   .     A
C409   C411    1.434   .     S
C410   O438    1.296   .     A
C410   C412    1.433   .     S
C410   O440    1.296   .     A
C412   C469    1.333   .     S
C412   H484    1.086   .     S
C413   C418    1.400   .     A
C413   H427    1.085   .     S
C414   H428    1.085   .     S
C414   C417    1.400   .     A
C414   C68     1.384   1_565 S
C415   C417    1.412   .     A
C415   O441    1.382   .     S
C415   C65     1.385   1_565 S
C416   C418    1.412   .     A
C416   O443    1.381   .     S
C419   N432    1.344   .     A
C419   H429    1.083   .     S
C419   C1465   1.419   1_554 S
C420   N431    1.352   .     A
C420   H430    1.082   .     S
C420   C944    1.421   .     S
C421   C445    1.530   .     S
C421   N431    1.410   .     A
C421   C941    1.419   .     S
C422   N432    1.397   .     A
C422   C455    1.514   .     S
C422   C1464   1.421   1_554 S
Cu423  N431    2.035   .     S
Cu423  O436    1.947   .     S
Cu423  Cu424   2.708   .     S
Cu423  O437    1.958   .     S
Cu423  O440    1.957   .     S
Cu423  O433    1.959   .     S
Cu424  N432    2.035   .     S
Cu424  O435    1.947   .     S
Cu424  O439    1.957   .     S
Cu424  O438    1.958   .     S
Cu424  O434    1.959   .     S
H425   C469    1.087   .     S
O441   H442    0.989   .     S
O443   H444    0.989   .     S
C445   C446    1.537   .     S
C445   H453    1.100   .     S
C445   H454    1.114   .     S
C446   C447    1.528   .     S
C446   H452    1.100   .     S
C446   H451    1.111   .     S
C447   H448    1.112   .     S
C447   H449    1.111   .     S
C447   H450    1.110   .     S
C455   H463    1.092   .     S
C455   C456    1.537   .     S
C455   H464    1.113   .     S
C456   C457    1.527   .     S
C456   H462    1.109   .     S
C456   H461    1.111   .     S
C457   H458    1.110   .     S
C457   H459    1.111   .     S
C457   H112    1.111   1_565 S
C465   O493    1.294   .     A
C465   C476    1.442   .     S
C465   O491    1.301   .     A
C466   O494    1.293   .     A
C466   C475    1.442   .     S
C466   O492    1.302   .     A
C467   O495    1.297   .     A
C467   O497    1.295   .     A
C467   C469    1.434   .     S
C468   O496    1.296   .     A
C468   C470    1.433   .     S
C468   O498    1.296   .     A
C470   C353    1.333   1_655 S
C470   H368    1.086   1_655 S
C471   C476    1.400   .     A
C471   H485    1.085   .     S
C472   H486    1.085   .     S
C472   C475    1.400   .     A
C472   C126    1.384   1_565 S
C473   C475    1.412   .     A
C473   O499    1.382   .     S
C473   C123    1.385   1_565 S
C474   C476    1.412   .     A
C474   O501    1.381   .     S
C477   N490    1.344   .     A
C477   H487    1.083   .     S
C477   C1523   1.419   1_554 S
C478   N489    1.352   .     A
C478   H488    1.082   .     S
C478   C1002   1.421   .     S
C479   C503    1.530   .     S
C479   N489    1.410   .     A
C479   C999    1.419   .     S
C480   N490    1.397   .     A
C480   C513    1.514   .     S
C480   C1522   1.421   1_554 S
Cu481  N489    2.035   .     S
Cu481  O494    1.947   .     S
Cu481  Cu482   2.708   .     S
Cu481  O495    1.958   .     S
Cu481  O498    1.957   .     S
Cu481  O491    1.959   .     S
Cu482  N490    2.035   .     S
Cu482  O493    1.947   .     S
Cu482  O497    1.957   .     S
Cu482  O496    1.958   .     S
Cu482  O492    1.959   .     S
H483   C353    1.087   1_655 S
O499   H500    0.989   .     S
O501   H502    0.989   .     S
C503   C504    1.537   .     S
C503   H511    1.100   .     S
C503   H512    1.114   .     S
C504   C505    1.528   .     S
C504   H510    1.100   .     S
C504   H509    1.111   .     S
C505   H506    1.112   .     S
C505   H507    1.111   .     S
C505   H508    1.110   .     S
C513   H521    1.092   .     S
C513   C514    1.537   .     S
C513   H522    1.113   .     S
C514   C515    1.527   .     S
C514   H520    1.109   .     S
C514   H519    1.111   .     S
C515   H516    1.110   .     S
C515   H517    1.111   .     S
C515   H170    1.111   1_565 S
C523   O551    1.294   .     A
C523   C534    1.442   .     S
C523   O549    1.301   .     A
C524   O552    1.293   .     A
C524   C533    1.442   .     S
C524   O550    1.302   .     A
C525   O553    1.297   .     A
C525   O555    1.295   .     A
C525   C527    1.434   .     S
C526   O554    1.296   .     A
C526   C528    1.433   .     S
C526   O556    1.296   .     A
C527   C644    1.333   1_455 S
C527   H657    1.087   1_455 S
C528   C585    1.333   .     S
C528   H600    1.086   .     S
C529   C534    1.400   .     A
C529   H543    1.085   .     S
C529   C879    1.385   1_545 S
C530   H544    1.085   .     S
C530   C533    1.400   .     A
C530   C706    1.384   .     S
C531   C533    1.412   .     A
C531   O557    1.382   .     S
C531   C703    1.385   .     S
C532   C534    1.412   .     A
C532   O559    1.381   .     S
C532   C878    1.384   1_545 S
C535   N548    1.344   .     A
C535   H545    1.083   .     S
C536   N547    1.352   .     A
C536   H546    1.082   .     S
C536   C1060   1.421   .     S
C537   C561    1.530   .     S
C537   N547    1.410   .     A
C537   C1057   1.419   .     S
C538   N548    1.397   .     A
C538   C571    1.514   .     S
Cu539  N547    2.035   .     S
Cu539  O552    1.947   .     S
Cu539  Cu540   2.708   .     S
Cu539  O553    1.958   .     S
Cu539  O556    1.957   .     S
Cu539  O549    1.959   .     S
Cu540  N548    2.035   .     S
Cu540  O551    1.947   .     S
Cu540  O555    1.957   .     S
Cu540  O554    1.958   .     S
Cu540  O550    1.959   .     S
H541   C585    1.087   .     S
H542   C644    1.086   1_455 S
O557   H558    0.989   .     S
O559   H560    0.989   .     S
C561   C562    1.537   .     S
C561   H569    1.100   .     S
C561   H570    1.114   .     S
C562   C563    1.528   .     S
C562   H568    1.100   .     S
C562   H567    1.111   .     S
C563   H564    1.112   .     S
C563   H565    1.111   .     S
C563   H566    1.110   .     S
C571   H579    1.092   .     S
C571   C572    1.537   .     S
C571   H580    1.113   .     S
C572   C573    1.527   .     S
C572   H578    1.109   .     S
C572   H577    1.111   .     S
C573   H574    1.110   .     S
C573   H575    1.111   .     S
C573   H750    1.111   .     S
H576   C921    1.111   1_545 S
C581   O609    1.294   .     A
C581   C592    1.442   .     S
C581   O607    1.301   .     A
C582   O610    1.293   .     A
C582   C591    1.442   .     S
C582   O608    1.302   .     A
C583   O611    1.297   .     A
C583   O613    1.295   .     A
C583   C585    1.434   .     S
C584   O612    1.296   .     A
C584   C586    1.433   .     S
C584   O614    1.296   .     A
C586   C643    1.333   .     S
C586   H658    1.086   .     S
C587   C592    1.400   .     A
C587   H601    1.085   .     S
C587   C937    1.385   1_545 S
C588   H602    1.085   .     S
C588   C591    1.400   .     A
C588   C764    1.384   .     S
C589   C591    1.412   .     A
C589   O615    1.382   .     S
C589   C761    1.385   .     S
C590   C592    1.412   .     A
C590   O617    1.381   .     S
C590   C936    1.384   1_545 S
C593   N606    1.344   .     A
C593   H603    1.083   .     S
C594   N605    1.352   .     A
C594   H604    1.082   .     S
C594   C1118   1.421   .     S
C595   C619    1.530   .     S
C595   N605    1.410   .     A
C595   C1115   1.419   .     S
C596   N606    1.397   .     A
C596   C629    1.514   .     S
Cu597  N605    2.035   .     S
Cu597  O610    1.947   .     S
Cu597  Cu598   2.708   .     S
Cu597  O611    1.958   .     S
Cu597  O614    1.957   .     S
Cu597  O607    1.959   .     S
Cu598  N606    2.035   .     S
Cu598  O609    1.947   .     S
Cu598  O613    1.957   .     S
Cu598  O612    1.958   .     S
Cu598  O608    1.959   .     S
H599   C643    1.087   .     S
O615   H616    0.989   .     S
O617   H618    0.989   .     S
C619   C620    1.537   .     S
C619   H627    1.100   .     S
C619   H628    1.114   .     S
C620   C621    1.528   .     S
C620   H626    1.100   .     S
C620   H625    1.111   .     S
C621   H622    1.112   .     S
C621   H623    1.111   .     S
C621   H624    1.110   .     S
C629   H637    1.092   .     S
C629   C630    1.537   .     S
C629   H638    1.113   .     S
C630   C631    1.527   .     S
C630   H636    1.109   .     S
C630   H635    1.111   .     S
C631   H632    1.110   .     S
C631   H633    1.111   .     S
C631   H808    1.111   .     S
H634   C979    1.111   1_545 S
C639   O667    1.294   .     A
C639   C650    1.442   .     S
C639   O665    1.301   .     A
C640   O668    1.293   .     A
C640   C649    1.442   .     S
C640   O666    1.302   .     A
C641   O669    1.297   .     A
C641   O671    1.295   .     A
C641   C643    1.434   .     S
C642   O670    1.296   .     A
C642   C644    1.433   .     S
C642   O672    1.296   .     A
C644   C527    1.333   1_655 S
C644   H542    1.086   1_655 S
C645   C650    1.400   .     A
C645   H659    1.085   .     S
C645   C995    1.385   1_545 S
C646   H660    1.085   .     S
C646   C649    1.400   .     A
C646   C822    1.384   .     S
C647   C649    1.412   .     A
C647   O673    1.382   .     S
C647   C819    1.385   .     S
C648   C650    1.412   .     A
C648   O675    1.381   .     S
C648   C994    1.384   1_545 S
C651   N664    1.344   .     A
C651   H661    1.083   .     S
C652   N663    1.352   .     A
C652   H662    1.082   .     S
C652   C1176   1.421   .     S
C653   C677    1.530   .     S
C653   N663    1.410   .     A
C653   C1173   1.419   .     S
C654   N664    1.397   .     A
C654   C687    1.514   .     S
Cu655  N663    2.035   .     S
Cu655  O668    1.947   .     S
Cu655  Cu656   2.708   .     S
Cu655  O669    1.958   .     S
Cu655  O672    1.957   .     S
Cu655  O665    1.959   .     S
Cu656  N664    2.035   .     S
Cu656  O667    1.947   .     S
Cu656  O671    1.957   .     S
Cu656  O670    1.958   .     S
Cu656  O666    1.959   .     S
H657   C527    1.087   1_655 S
O673   H674    0.989   .     S
O675   H676    0.989   .     S
C677   C678    1.537   .     S
C677   H685    1.100   .     S
C677   H686    1.114   .     S
C678   C679    1.528   .     S
C678   H684    1.100   .     S
C678   H683    1.111   .     S
C679   H680    1.112   .     S
C679   H681    1.111   .     S
C679   H682    1.110   .     S
C687   H695    1.092   .     S
C687   C688    1.537   .     S
C687   H696    1.113   .     S
C688   C689    1.527   .     S
C688   H694    1.109   .     S
C688   H693    1.111   .     S
C689   H690    1.110   .     S
C689   H691    1.111   .     S
C689   H866    1.111   .     S
H692   C1037   1.111   1_545 S
C697   O725    1.294   .     A
C697   C708    1.442   .     S
C697   O723    1.301   .     A
C698   O726    1.293   .     A
C698   C707    1.442   .     S
C698   O724    1.302   .     A
C699   O727    1.297   .     A
C699   O729    1.295   .     A
C699   C701    1.434   .     S
C700   O728    1.296   .     A
C700   C702    1.433   .     S
C700   O730    1.296   .     A
C701   C818    1.333   1_455 S
C701   H831    1.087   1_455 S
C702   C759    1.333   .     S
C702   H774    1.086   .     S
C703   C708    1.400   .     A
C703   H717    1.085   .     S
C704   H718    1.085   .     S
C704   C707    1.400   .     A
C704   C880    1.384   .     S
C705   C707    1.412   .     A
C705   O731    1.382   .     S
C705   C877    1.385   .     S
C706   C708    1.412   .     A
C706   O733    1.381   .     S
C709   N722    1.344   .     A
C709   H719    1.083   .     S
C710   N721    1.352   .     A
C710   H720    1.082   .     S
C710   C1234   1.421   .     S
C711   C735    1.530   .     S
C711   N721    1.410   .     A
C711   C1231   1.419   .     S
C712   N722    1.397   .     A
C712   C745    1.514   .     S
Cu713  N721    2.035   .     S
Cu713  O726    1.947   .     S
Cu713  Cu714   2.708   .     S
Cu713  O727    1.958   .     S
Cu713  O730    1.957   .     S
Cu713  O723    1.959   .     S
Cu714  N722    2.035   .     S
Cu714  O725    1.947   .     S
Cu714  O729    1.957   .     S
Cu714  O728    1.958   .     S
Cu714  O724    1.959   .     S
H715   C759    1.087   .     S
H716   C818    1.086   1_455 S
O731   H732    0.989   .     S
O733   H734    0.989   .     S
C735   C736    1.537   .     S
C735   H743    1.100   .     S
C735   H744    1.114   .     S
C736   C737    1.528   .     S
C736   H742    1.100   .     S
C736   H741    1.111   .     S
C737   H738    1.112   .     S
C737   H739    1.111   .     S
C737   H740    1.110   .     S
C745   H753    1.092   .     S
C745   C746    1.537   .     S
C745   H754    1.113   .     S
C746   C747    1.527   .     S
C746   H752    1.109   .     S
C746   H751    1.111   .     S
C747   H748    1.110   .     S
C747   H749    1.111   .     S
C747   H924    1.111   .     S
C755   O783    1.294   .     A
C755   C766    1.442   .     S
C755   O781    1.301   .     A
C756   O784    1.293   .     A
C756   C765    1.442   .     S
C756   O782    1.302   .     A
C757   O785    1.297   .     A
C757   O787    1.295   .     A
C757   C759    1.434   .     S
C758   O786    1.296   .     A
C758   C760    1.433   .     S
C758   O788    1.296   .     A
C760   C817    1.333   .     S
C760   H832    1.086   .     S
C761   C766    1.400   .     A
C761   H775    1.085   .     S
C762   H776    1.085   .     S
C762   C765    1.400   .     A
C762   C938    1.384   .     S
C763   C765    1.412   .     A
C763   O789    1.382   .     S
C763   C935    1.385   .     S
C764   C766    1.412   .     A
C764   O791    1.381   .     S
C767   N780    1.344   .     A
C767   H777    1.083   .     S
C768   N779    1.352   .     A
C768   H778    1.082   .     S
C768   C1292   1.421   .     S
C769   C793    1.530   .     S
C769   N779    1.410   .     A
C769   C1289   1.419   .     S
C770   N780    1.397   .     A
C770   C803    1.514   .     S
Cu771  N779    2.035   .     S
Cu771  O784    1.947   .     S
Cu771  Cu772   2.708   .     S
Cu771  O785    1.958   .     S
Cu771  O788    1.957   .     S
Cu771  O781    1.959   .     S
Cu772  N780    2.035   .     S
Cu772  O783    1.947   .     S
Cu772  O787    1.957   .     S
Cu772  O786    1.958   .     S
Cu772  O782    1.959   .     S
H773   C817    1.087   .     S
O789   H790    0.989   .     S
O791   H792    0.989   .     S
C793   C794    1.537   .     S
C793   H801    1.100   .     S
C793   H802    1.114   .     S
C794   C795    1.528   .     S
C794   H800    1.100   .     S
C794   H799    1.111   .     S
C795   H796    1.112   .     S
C795   H797    1.111   .     S
C795   H798    1.110   .     S
C803   H811    1.092   .     S
C803   C804    1.537   .     S
C803   H812    1.113   .     S
C804   C805    1.527   .     S
C804   H810    1.109   .     S
C804   H809    1.111   .     S
C805   H806    1.110   .     S
C805   H807    1.111   .     S
C805   H982    1.111   .     S
C813   O841    1.294   .     A
C813   C824    1.442   .     S
C813   O839    1.301   .     A
C814   O842    1.293   .     A
C814   C823    1.442   .     S
C814   O840    1.302   .     A
C815   O843    1.297   .     A
C815   O845    1.295   .     A
C815   C817    1.434   .     S
C816   O844    1.296   .     A
C816   C818    1.433   .     S
C816   O846    1.296   .     A
C818   C701    1.333   1_655 S
C818   H716    1.086   1_655 S
C819   C824    1.400   .     A
C819   H833    1.085   .     S
C820   H834    1.085   .     S
C820   C823    1.400   .     A
C820   C996    1.384   .     S
C821   C823    1.412   .     A
C821   O847    1.382   .     S
C821   C993    1.385   .     S
C822   C824    1.412   .     A
C822   O849    1.381   .     S
C825   N838    1.344   .     A
C825   H835    1.083   .     S
C826   N837    1.352   .     A
C826   H836    1.082   .     S
C826   C1350   1.421   .     S
C827   C851    1.530   .     S
C827   N837    1.410   .     A
C827   C1347   1.419   .     S
C828   N838    1.397   .     A
C828   C861    1.514   .     S
Cu829  N837    2.035   .     S
Cu829  O842    1.947   .     S
Cu829  Cu830   2.708   .     S
Cu829  O843    1.958   .     S
Cu829  O846    1.957   .     S
Cu829  O839    1.959   .     S
Cu830  N838    2.035   .     S
Cu830  O841    1.947   .     S
Cu830  O845    1.957   .     S
Cu830  O844    1.958   .     S
Cu830  O840    1.959   .     S
H831   C701    1.087   1_655 S
O847   H848    0.989   .     S
O849   H850    0.989   .     S
C851   C852    1.537   .     S
C851   H859    1.100   .     S
C851   H860    1.114   .     S
C852   C853    1.528   .     S
C852   H858    1.100   .     S
C852   H857    1.111   .     S
C853   H854    1.112   .     S
C853   H855    1.111   .     S
C853   H856    1.110   .     S
C861   H869    1.092   .     S
C861   C862    1.537   .     S
C861   H870    1.113   .     S
C862   C863    1.527   .     S
C862   H868    1.109   .     S
C862   H867    1.111   .     S
C863   H864    1.110   .     S
C863   H865    1.111   .     S
C863   H1040   1.111   .     S
C871   O899    1.294   .     A
C871   C882    1.442   .     S
C871   O897    1.301   .     A
C872   O900    1.293   .     A
C872   C881    1.442   .     S
C872   O898    1.302   .     A
C873   O901    1.297   .     A
C873   O903    1.295   .     A
C873   C875    1.434   .     S
C874   O902    1.296   .     A
C874   C876    1.433   .     S
C874   O904    1.296   .     A
C875   C992    1.333   1_455 S
C875   H1005   1.087   1_455 S
C876   C933    1.333   .     S
C876   H948    1.086   .     S
C877   C882    1.400   .     A
C877   H891    1.085   .     S
C878   H892    1.085   .     S
C878   C881    1.400   .     A
C878   C532    1.384   1_565 S
C879   C881    1.412   .     A
C879   O905    1.382   .     S
C879   C529    1.385   1_565 S
C880   C882    1.412   .     A
C880   O907    1.381   .     S
C883   N896    1.344   .     A
C883   H893    1.083   .     S
C884   N895    1.352   .     A
C884   H894    1.082   .     S
C884   C1408   1.421   .     S
C885   C909    1.530   .     S
C885   N895    1.410   .     A
C885   C1405   1.419   .     S
C886   N896    1.397   .     A
C886   C919    1.514   .     S
Cu887  N895    2.035   .     S
Cu887  O900    1.947   .     S
Cu887  Cu888   2.708   .     S
Cu887  O901    1.958   .     S
Cu887  O904    1.957   .     S
Cu887  O897    1.959   .     S
Cu888  N896    2.035   .     S
Cu888  O899    1.947   .     S
Cu888  O903    1.957   .     S
Cu888  O902    1.958   .     S
Cu888  O898    1.959   .     S
H889   C933    1.087   .     S
H890   C992    1.086   1_455 S
O905   H906    0.989   .     S
O907   H908    0.989   .     S
C909   C910    1.537   .     S
C909   H917    1.100   .     S
C909   H918    1.114   .     S
C910   C911    1.528   .     S
C910   H916    1.100   .     S
C910   H915    1.111   .     S
C911   H912    1.112   .     S
C911   H913    1.111   .     S
C911   H914    1.110   .     S
C919   H927    1.092   .     S
C919   C920    1.537   .     S
C919   H928    1.113   .     S
C920   C921    1.527   .     S
C920   H926    1.109   .     S
C920   H925    1.111   .     S
C921   H922    1.110   .     S
C921   H923    1.111   .     S
C921   H576    1.111   1_565 S
C929   O957    1.294   .     A
C929   C940    1.442   .     S
C929   O955    1.301   .     A
C930   O958    1.293   .     A
C930   C939    1.442   .     S
C930   O956    1.302   .     A
C931   O959    1.297   .     A
C931   O961    1.295   .     A
C931   C933    1.434   .     S
C932   O960    1.296   .     A
C932   C934    1.433   .     S
C932   O962    1.296   .     A
C934   C991    1.333   .     S
C934   H1006   1.086   .     S
C935   C940    1.400   .     A
C935   H949    1.085   .     S
C936   H950    1.085   .     S
C936   C939    1.400   .     A
C936   C590    1.384   1_565 S
C937   C939    1.412   .     A
C937   O963    1.382   .     S
C937   C587    1.385   1_565 S
C938   C940    1.412   .     A
C938   O965    1.381   .     S
C941   N954    1.344   .     A
C941   H951    1.083   .     S
C942   N953    1.352   .     A
C942   H952    1.082   .     S
C942   C1466   1.421   .     S
C943   C967    1.530   .     S
C943   N953    1.410   .     A
C943   C1463   1.419   .     S
C944   N954    1.397   .     A
C944   C977    1.514   .     S
Cu945  N953    2.035   .     S
Cu945  O958    1.947   .     S
Cu945  Cu946   2.708   .     S
Cu945  O959    1.958   .     S
Cu945  O962    1.957   .     S
Cu945  O955    1.959   .     S
Cu946  N954    2.035   .     S
Cu946  O957    1.947   .     S
Cu946  O961    1.957   .     S
Cu946  O960    1.958   .     S
Cu946  O956    1.959   .     S
H947   C991    1.087   .     S
O963   H964    0.989   .     S
O965   H966    0.989   .     S
C967   C968    1.537   .     S
C967   H975    1.100   .     S
C967   H976    1.114   .     S
C968   C969    1.528   .     S
C968   H974    1.100   .     S
C968   H973    1.111   .     S
C969   H970    1.112   .     S
C969   H971    1.111   .     S
C969   H972    1.110   .     S
C977   H985    1.092   .     S
C977   C978    1.537   .     S
C977   H986    1.113   .     S
C978   C979    1.527   .     S
C978   H984    1.109   .     S
C978   H983    1.111   .     S
C979   H980    1.110   .     S
C979   H981    1.111   .     S
C979   H634    1.111   1_565 S
C987   O1015   1.294   .     A
C987   C998    1.442   .     S
C987   O1013   1.301   .     A
C988   O1016   1.293   .     A
C988   C997    1.442   .     S
C988   O1014   1.302   .     A
C989   O1017   1.297   .     A
C989   O1019   1.295   .     A
C989   C991    1.434   .     S
C990   O1018   1.296   .     A
C990   C992    1.433   .     S
C990   O1020   1.296   .     A
C992   C875    1.333   1_655 S
C992   H890    1.086   1_655 S
C993   C998    1.400   .     A
C993   H1007   1.085   .     S
C994   H1008   1.085   .     S
C994   C997    1.400   .     A
C994   C648    1.384   1_565 S
C995   C997    1.412   .     A
C995   O1021   1.382   .     S
C995   C645    1.385   1_565 S
C996   C998    1.412   .     A
C996   O1023   1.381   .     S
C999   N1012   1.344   .     A
C999   H1009   1.083   .     S
C1000  N1011   1.352   .     A
C1000  H1010   1.082   .     S
C1000  C1524   1.421   .     S
C1001  C1025   1.530   .     S
C1001  N1011   1.410   .     A
C1001  C1521   1.419   .     S
C1002  N1012   1.397   .     A
C1002  C1035   1.514   .     S
Cu1003 N1011   2.035   .     S
Cu1003 O1016   1.947   .     S
Cu1003 Cu1004  2.708   .     S
Cu1003 O1017   1.958   .     S
Cu1003 O1020   1.957   .     S
Cu1003 O1013   1.959   .     S
Cu1004 N1012   2.035   .     S
Cu1004 O1015   1.947   .     S
Cu1004 O1019   1.957   .     S
Cu1004 O1018   1.958   .     S
Cu1004 O1014   1.959   .     S
H1005  C875    1.087   1_655 S
O1021  H1022   0.989   .     S
O1023  H1024   0.989   .     S
C1025  C1026   1.537   .     S
C1025  H1033   1.100   .     S
C1025  H1034   1.114   .     S
C1026  C1027   1.528   .     S
C1026  H1032   1.100   .     S
C1026  H1031   1.111   .     S
C1027  H1028   1.112   .     S
C1027  H1029   1.111   .     S
C1027  H1030   1.110   .     S
C1035  H1043   1.092   .     S
C1035  C1036   1.537   .     S
C1035  H1044   1.113   .     S
C1036  C1037   1.527   .     S
C1036  H1042   1.109   .     S
C1036  H1041   1.111   .     S
C1037  H1038   1.110   .     S
C1037  H1039   1.111   .     S
C1037  H692    1.111   1_565 S
C1045  O1073   1.294   .     A
C1045  C1056   1.442   .     S
C1045  O1071   1.301   .     A
C1046  O1074   1.293   .     A
C1046  C1055   1.442   .     S
C1046  O1072   1.302   .     A
C1047  O1075   1.297   .     A
C1047  O1077   1.295   .     A
C1047  C1049   1.434   .     S
C1048  O1076   1.296   .     A
C1048  C1050   1.433   .     S
C1048  O1078   1.296   .     A
C1049  C1166   1.333   1_455 S
C1049  H1179   1.087   1_455 S
C1050  C1107   1.333   .     S
C1050  H1122   1.086   .     S
C1051  C1056   1.400   .     A
C1051  H1065   1.085   .     S
C1051  C1401   1.385   1_545 S
C1052  H1066   1.085   .     S
C1052  C1055   1.400   .     A
C1052  C1228   1.384   .     S
C1053  C1055   1.412   .     A
C1053  O1079   1.382   .     S
C1053  C1225   1.385   .     S
C1054  C1056   1.412   .     A
C1054  O1081   1.381   .     S
C1054  C1400   1.384   1_545 S
C1057  N1070   1.344   .     A
C1057  H1067   1.083   .     S
C1058  N1069   1.352   .     A
C1058  H1068   1.082   .     S
C1058  C16     1.421   1_556 S
C1059  C1083   1.530   .     S
C1059  N1069   1.410   .     A
C1059  C13     1.419   1_556 S
C1060  N1070   1.397   .     A
C1060  C1093   1.514   .     S
Cu1061 N1069   2.035   .     S
Cu1061 O1074   1.947   .     S
Cu1061 Cu1062  2.708   .     S
Cu1061 O1075   1.958   .     S
Cu1061 O1078   1.957   .     S
Cu1061 O1071   1.959   .     S
Cu1062 N1070   2.035   .     S
Cu1062 O1073   1.947   .     S
Cu1062 O1077   1.957   .     S
Cu1062 O1076   1.958   .     S
Cu1062 O1072   1.959   .     S
H1063  C1107   1.087   .     S
H1064  C1166   1.086   1_455 S
O1079  H1080   0.989   .     S
O1081  H1082   0.989   .     S
C1083  C1084   1.537   .     S
C1083  H1091   1.100   .     S
C1083  H1092   1.114   .     S
C1084  C1085   1.528   .     S
C1084  H1090   1.100   .     S
C1084  H1089   1.111   .     S
C1085  H1086   1.112   .     S
C1085  H1087   1.111   .     S
C1085  H1088   1.110   .     S
C1093  H1101   1.092   .     S
C1093  C1094   1.537   .     S
C1093  H1102   1.113   .     S
C1094  C1095   1.527   .     S
C1094  H1100   1.109   .     S
C1094  H1099   1.111   .     S
C1095  H1096   1.110   .     S
C1095  H1097   1.111   .     S
C1095  H1272   1.111   .     S
H1098  C1443   1.111   1_545 S
C1103  O1131   1.294   .     A
C1103  C1114   1.442   .     S
C1103  O1129   1.301   .     A
C1104  O1132   1.293   .     A
C1104  C1113   1.442   .     S
C1104  O1130   1.302   .     A
C1105  O1133   1.297   .     A
C1105  O1135   1.295   .     A
C1105  C1107   1.434   .     S
C1106  O1134   1.296   .     A
C1106  C1108   1.433   .     S
C1106  O1136   1.296   .     A
C1108  C1165   1.333   .     S
C1108  H1180   1.086   .     S
C1109  C1114   1.400   .     A
C1109  H1123   1.085   .     S
C1109  C1459   1.385   1_545 S
C1110  H1124   1.085   .     S
C1110  C1113   1.400   .     A
C1110  C1286   1.384   .     S
C1111  C1113   1.412   .     A
C1111  O1137   1.382   .     S
C1111  C1283   1.385   .     S
C1112  C1114   1.412   .     A
C1112  O1139   1.381   .     S
C1112  C1458   1.384   1_545 S
C1115  N1128   1.344   .     A
C1115  H1125   1.083   .     S
C1116  N1127   1.352   .     A
C1116  H1126   1.082   .     S
C1116  C74     1.421   1_556 S
C1117  C1141   1.530   .     S
C1117  N1127   1.410   .     A
C1117  C71     1.419   1_556 S
C1118  N1128   1.397   .     A
C1118  C1151   1.514   .     S
Cu1119 N1127   2.035   .     S
Cu1119 O1132   1.947   .     S
Cu1119 Cu1120  2.708   .     S
Cu1119 O1133   1.958   .     S
Cu1119 O1136   1.957   .     S
Cu1119 O1129   1.959   .     S
Cu1120 N1128   2.035   .     S
Cu1120 O1131   1.947   .     S
Cu1120 O1135   1.957   .     S
Cu1120 O1134   1.958   .     S
Cu1120 O1130   1.959   .     S
H1121  C1165   1.087   .     S
O1137  H1138   0.989   .     S
O1139  H1140   0.989   .     S
C1141  C1142   1.537   .     S
C1141  H1149   1.100   .     S
C1141  H1150   1.114   .     S
C1142  C1143   1.528   .     S
C1142  H1148   1.100   .     S
C1142  H1147   1.111   .     S
C1143  H1144   1.112   .     S
C1143  H1145   1.111   .     S
C1143  H1146   1.110   .     S
C1151  H1159   1.092   .     S
C1151  C1152   1.537   .     S
C1151  H1160   1.113   .     S
C1152  C1153   1.527   .     S
C1152  H1158   1.109   .     S
C1152  H1157   1.111   .     S
C1153  H1154   1.110   .     S
C1153  H1155   1.111   .     S
C1153  H1330   1.111   .     S
H1156  C1501   1.111   1_545 S
C1161  O1189   1.294   .     A
C1161  C1172   1.442   .     S
C1161  O1187   1.301   .     A
C1162  O1190   1.293   .     A
C1162  C1171   1.442   .     S
C1162  O1188   1.302   .     A
C1163  O1191   1.297   .     A
C1163  O1193   1.295   .     A
C1163  C1165   1.434   .     S
C1164  O1192   1.296   .     A
C1164  C1166   1.433   .     S
C1164  O1194   1.296   .     A
C1166  C1049   1.333   1_655 S
C1166  H1064   1.086   1_655 S
C1167  C1172   1.400   .     A
C1167  H1181   1.085   .     S
C1167  C1517   1.385   1_545 S
C1168  H1182   1.085   .     S
C1168  C1171   1.400   .     A
C1168  C1344   1.384   .     S
C1169  C1171   1.412   .     A
C1169  O1195   1.382   .     S
C1169  C1341   1.385   .     S
C1170  C1172   1.412   .     A
C1170  O1197   1.381   .     S
C1170  C1516   1.384   1_545 S
C1173  N1186   1.344   .     A
C1173  H1183   1.083   .     S
C1174  N1185   1.352   .     A
C1174  H1184   1.082   .     S
C1174  C132    1.421   1_556 S
C1175  C1199   1.530   .     S
C1175  N1185   1.410   .     A
C1175  C129    1.419   1_556 S
C1176  N1186   1.397   .     A
C1176  C1209   1.514   .     S
Cu1177 N1185   2.035   .     S
Cu1177 O1190   1.947   .     S
Cu1177 Cu1178  2.708   .     S
Cu1177 O1191   1.958   .     S
Cu1177 O1194   1.957   .     S
Cu1177 O1187   1.959   .     S
Cu1178 N1186   2.035   .     S
Cu1178 O1189   1.947   .     S
Cu1178 O1193   1.957   .     S
Cu1178 O1192   1.958   .     S
Cu1178 O1188   1.959   .     S
H1179  C1049   1.087   1_655 S
O1195  H1196   0.989   .     S
O1197  H1198   0.989   .     S
C1199  C1200   1.537   .     S
C1199  H1207   1.100   .     S
C1199  H1208   1.114   .     S
C1200  C1201   1.528   .     S
C1200  H1206   1.100   .     S
C1200  H1205   1.111   .     S
C1201  H1202   1.112   .     S
C1201  H1203   1.111   .     S
C1201  H1204   1.110   .     S
C1209  H1217   1.092   .     S
C1209  C1210   1.537   .     S
C1209  H1218   1.113   .     S
C1210  C1211   1.527   .     S
C1210  H1216   1.109   .     S
C1210  H1215   1.111   .     S
C1211  H1212   1.110   .     S
C1211  H1213   1.111   .     S
C1211  H1388   1.111   .     S
H1214  C1559   1.111   1_545 S
C1219  O1247   1.294   .     A
C1219  C1230   1.442   .     S
C1219  O1245   1.301   .     A
C1220  O1248   1.293   .     A
C1220  C1229   1.442   .     S
C1220  O1246   1.302   .     A
C1221  O1249   1.297   .     A
C1221  O1251   1.295   .     A
C1221  C1223   1.434   .     S
C1222  O1250   1.296   .     A
C1222  C1224   1.433   .     S
C1222  O1252   1.296   .     A
C1223  C1340   1.333   1_455 S
C1223  H1353   1.087   1_455 S
C1224  C1281   1.333   .     S
C1224  H1296   1.086   .     S
C1225  C1230   1.400   .     A
C1225  H1239   1.085   .     S
C1226  H1240   1.085   .     S
C1226  C1229   1.400   .     A
C1226  C1402   1.384   .     S
C1227  C1229   1.412   .     A
C1227  O1253   1.382   .     S
C1227  C1399   1.385   .     S
C1228  C1230   1.412   .     A
C1228  O1255   1.381   .     S
C1231  N1244   1.344   .     A
C1231  H1241   1.083   .     S
C1232  N1243   1.352   .     A
C1232  H1242   1.082   .     S
C1232  C190    1.421   1_556 S
C1233  C1257   1.530   .     S
C1233  N1243   1.410   .     A
C1233  C187    1.419   1_556 S
C1234  N1244   1.397   .     A
C1234  C1267   1.514   .     S
Cu1235 N1243   2.035   .     S
Cu1235 O1248   1.947   .     S
Cu1235 Cu1236  2.708   .     S
Cu1235 O1249   1.958   .     S
Cu1235 O1252   1.957   .     S
Cu1235 O1245   1.959   .     S
Cu1236 N1244   2.035   .     S
Cu1236 O1247   1.947   .     S
Cu1236 O1251   1.957   .     S
Cu1236 O1250   1.958   .     S
Cu1236 O1246   1.959   .     S
H1237  C1281   1.087   .     S
H1238  C1340   1.086   1_455 S
O1253  H1254   0.989   .     S
O1255  H1256   0.989   .     S
C1257  C1258   1.537   .     S
C1257  H1265   1.100   .     S
C1257  H1266   1.114   .     S
C1258  C1259   1.528   .     S
C1258  H1264   1.100   .     S
C1258  H1263   1.111   .     S
C1259  H1260   1.112   .     S
C1259  H1261   1.111   .     S
C1259  H1262   1.110   .     S
C1267  H1275   1.092   .     S
C1267  C1268   1.537   .     S
C1267  H1276   1.113   .     S
C1268  C1269   1.527   .     S
C1268  H1274   1.109   .     S
C1268  H1273   1.111   .     S
C1269  H1270   1.110   .     S
C1269  H1271   1.111   .     S
C1269  H1446   1.111   .     S
C1277  O1305   1.294   .     A
C1277  C1288   1.442   .     S
C1277  O1303   1.301   .     A
C1278  O1306   1.293   .     A
C1278  C1287   1.442   .     S
C1278  O1304   1.302   .     A
C1279  O1307   1.297   .     A
C1279  O1309   1.295   .     A
C1279  C1281   1.434   .     S
C1280  O1308   1.296   .     A
C1280  C1282   1.433   .     S
C1280  O1310   1.296   .     A
C1282  C1339   1.333   .     S
C1282  H1354   1.086   .     S
C1283  C1288   1.400   .     A
C1283  H1297   1.085   .     S
C1284  H1298   1.085   .     S
C1284  C1287   1.400   .     A
C1284  C1460   1.384   .     S
C1285  C1287   1.412   .     A
C1285  O1311   1.382   .     S
C1285  C1457   1.385   .     S
C1286  C1288   1.412   .     A
C1286  O1313   1.381   .     S
C1289  N1302   1.344   .     A
C1289  H1299   1.083   .     S
C1290  N1301   1.352   .     A
C1290  H1300   1.082   .     S
C1290  C248    1.421   1_556 S
C1291  C1315   1.530   .     S
C1291  N1301   1.410   .     A
C1291  C245    1.419   1_556 S
C1292  N1302   1.397   .     A
C1292  C1325   1.514   .     S
Cu1293 N1301   2.035   .     S
Cu1293 O1306   1.947   .     S
Cu1293 Cu1294  2.708   .     S
Cu1293 O1307   1.958   .     S
Cu1293 O1310   1.957   .     S
Cu1293 O1303   1.959   .     S
Cu1294 N1302   2.035   .     S
Cu1294 O1305   1.947   .     S
Cu1294 O1309   1.957   .     S
Cu1294 O1308   1.958   .     S
Cu1294 O1304   1.959   .     S
H1295  C1339   1.087   .     S
O1311  H1312   0.989   .     S
O1313  H1314   0.989   .     S
C1315  C1316   1.537   .     S
C1315  H1323   1.100   .     S
C1315  H1324   1.114   .     S
C1316  C1317   1.528   .     S
C1316  H1322   1.100   .     S
C1316  H1321   1.111   .     S
C1317  H1318   1.112   .     S
C1317  H1319   1.111   .     S
C1317  H1320   1.110   .     S
C1325  H1333   1.092   .     S
C1325  C1326   1.537   .     S
C1325  H1334   1.113   .     S
C1326  C1327   1.527   .     S
C1326  H1332   1.109   .     S
C1326  H1331   1.111   .     S
C1327  H1328   1.110   .     S
C1327  H1329   1.111   .     S
C1327  H1504   1.111   .     S
C1335  O1363   1.294   .     A
C1335  C1346   1.442   .     S
C1335  O1361   1.301   .     A
C1336  O1364   1.293   .     A
C1336  C1345   1.442   .     S
C1336  O1362   1.302   .     A
C1337  O1365   1.297   .     A
C1337  O1367   1.295   .     A
C1337  C1339   1.434   .     S
C1338  O1366   1.296   .     A
C1338  C1340   1.433   .     S
C1338  O1368   1.296   .     A
C1340  C1223   1.333   1_655 S
C1340  H1238   1.086   1_655 S
C1341  C1346   1.400   .     A
C1341  H1355   1.085   .     S
C1342  H1356   1.085   .     S
C1342  C1345   1.400   .     A
C1342  C1518   1.384   .     S
C1343  C1345   1.412   .     A
C1343  O1369   1.382   .     S
C1343  C1515   1.385   .     S
C1344  C1346   1.412   .     A
C1344  O1371   1.381   .     S
C1347  N1360   1.344   .     A
C1347  H1357   1.083   .     S
C1348  N1359   1.352   .     A
C1348  H1358   1.082   .     S
C1348  C306    1.421   1_556 S
C1349  C1373   1.530   .     S
C1349  N1359   1.410   .     A
C1349  C303    1.419   1_556 S
C1350  N1360   1.397   .     A
C1350  C1383   1.514   .     S
Cu1351 N1359   2.035   .     S
Cu1351 O1364   1.947   .     S
Cu1351 Cu1352  2.708   .     S
Cu1351 O1365   1.958   .     S
Cu1351 O1368   1.957   .     S
Cu1351 O1361   1.959   .     S
Cu1352 N1360   2.035   .     S
Cu1352 O1363   1.947   .     S
Cu1352 O1367   1.957   .     S
Cu1352 O1366   1.958   .     S
Cu1352 O1362   1.959   .     S
H1353  C1223   1.087   1_655 S
O1369  H1370   0.989   .     S
O1371  H1372   0.989   .     S
C1373  C1374   1.537   .     S
C1373  H1381   1.100   .     S
C1373  H1382   1.114   .     S
C1374  C1375   1.528   .     S
C1374  H1380   1.100   .     S
C1374  H1379   1.111   .     S
C1375  H1376   1.112   .     S
C1375  H1377   1.111   .     S
C1375  H1378   1.110   .     S
C1383  H1391   1.092   .     S
C1383  C1384   1.537   .     S
C1383  H1392   1.113   .     S
C1384  C1385   1.527   .     S
C1384  H1390   1.109   .     S
C1384  H1389   1.111   .     S
C1385  H1386   1.110   .     S
C1385  H1387   1.111   .     S
C1385  H1562   1.111   .     S
C1393  O1421   1.294   .     A
C1393  C1404   1.442   .     S
C1393  O1419   1.301   .     A
C1394  O1422   1.293   .     A
C1394  C1403   1.442   .     S
C1394  O1420   1.302   .     A
C1395  O1423   1.297   .     A
C1395  O1425   1.295   .     A
C1395  C1397   1.434   .     S
C1396  O1424   1.296   .     A
C1396  C1398   1.433   .     S
C1396  O1426   1.296   .     A
C1397  C1514   1.333   1_455 S
C1397  H1527   1.087   1_455 S
C1398  C1455   1.333   .     S
C1398  H1470   1.086   .     S
C1399  C1404   1.400   .     A
C1399  H1413   1.085   .     S
C1400  H1414   1.085   .     S
C1400  C1403   1.400   .     A
C1400  C1054   1.384   1_565 S
C1401  C1403   1.412   .     A
C1401  O1427   1.382   .     S
C1401  C1051   1.385   1_565 S
C1402  C1404   1.412   .     A
C1402  O1429   1.381   .     S
C1405  N1418   1.344   .     A
C1405  H1415   1.083   .     S
C1406  N1417   1.352   .     A
C1406  H1416   1.082   .     S
C1406  C364    1.421   1_556 S
C1407  C1431   1.530   .     S
C1407  N1417   1.410   .     A
C1407  C361    1.419   1_556 S
C1408  N1418   1.397   .     A
C1408  C1441   1.514   .     S
Cu1409 N1417   2.035   .     S
Cu1409 O1422   1.947   .     S
Cu1409 Cu1410  2.708   .     S
Cu1409 O1423   1.958   .     S
Cu1409 O1426   1.957   .     S
Cu1409 O1419   1.959   .     S
Cu1410 N1418   2.035   .     S
Cu1410 O1421   1.947   .     S
Cu1410 O1425   1.957   .     S
Cu1410 O1424   1.958   .     S
Cu1410 O1420   1.959   .     S
H1411  C1455   1.087   .     S
H1412  C1514   1.086   1_455 S
O1427  H1428   0.989   .     S
O1429  H1430   0.989   .     S
C1431  C1432   1.537   .     S
C1431  H1439   1.100   .     S
C1431  H1440   1.114   .     S
C1432  C1433   1.528   .     S
C1432  H1438   1.100   .     S
C1432  H1437   1.111   .     S
C1433  H1434   1.112   .     S
C1433  H1435   1.111   .     S
C1433  H1436   1.110   .     S
C1441  H1449   1.092   .     S
C1441  C1442   1.537   .     S
C1441  H1450   1.113   .     S
C1442  C1443   1.527   .     S
C1442  H1448   1.109   .     S
C1442  H1447   1.111   .     S
C1443  H1444   1.110   .     S
C1443  H1445   1.111   .     S
C1443  H1098   1.111   1_565 S
C1451  O1479   1.294   .     A
C1451  C1462   1.442   .     S
C1451  O1477   1.301   .     A
C1452  O1480   1.293   .     A
C1452  C1461   1.442   .     S
C1452  O1478   1.302   .     A
C1453  O1481   1.297   .     A
C1453  O1483   1.295   .     A
C1453  C1455   1.434   .     S
C1454  O1482   1.296   .     A
C1454  C1456   1.433   .     S
C1454  O1484   1.296   .     A
C1456  C1513   1.333   .     S
C1456  H1528   1.086   .     S
C1457  C1462   1.400   .     A
C1457  H1471   1.085   .     S
C1458  H1472   1.085   .     S
C1458  C1461   1.400   .     A
C1458  C1112   1.384   1_565 S
C1459  C1461   1.412   .     A
C1459  O1485   1.382   .     S
C1459  C1109   1.385   1_565 S
C1460  C1462   1.412   .     A
C1460  O1487   1.381   .     S
C1463  N1476   1.344   .     A
C1463  H1473   1.083   .     S
C1464  N1475   1.352   .     A
C1464  H1474   1.082   .     S
C1464  C422    1.421   1_556 S
C1465  C1489   1.530   .     S
C1465  N1475   1.410   .     A
C1465  C419    1.419   1_556 S
C1466  N1476   1.397   .     A
C1466  C1499   1.514   .     S
Cu1467 N1475   2.035   .     S
Cu1467 O1480   1.947   .     S
Cu1467 Cu1468  2.708   .     S
Cu1467 O1481   1.958   .     S
Cu1467 O1484   1.957   .     S
Cu1467 O1477   1.959   .     S
Cu1468 N1476   2.035   .     S
Cu1468 O1479   1.947   .     S
Cu1468 O1483   1.957   .     S
Cu1468 O1482   1.958   .     S
Cu1468 O1478   1.959   .     S
H1469  C1513   1.087   .     S
O1485  H1486   0.989   .     S
O1487  H1488   0.989   .     S
C1489  C1490   1.537   .     S
C1489  H1497   1.100   .     S
C1489  H1498   1.114   .     S
C1490  C1491   1.528   .     S
C1490  H1496   1.100   .     S
C1490  H1495   1.111   .     S
C1491  H1492   1.112   .     S
C1491  H1493   1.111   .     S
C1491  H1494   1.110   .     S
C1499  H1507   1.092   .     S
C1499  C1500   1.537   .     S
C1499  H1508   1.113   .     S
C1500  C1501   1.527   .     S
C1500  H1506   1.109   .     S
C1500  H1505   1.111   .     S
C1501  H1502   1.110   .     S
C1501  H1503   1.111   .     S
C1501  H1156   1.111   1_565 S
C1509  O1537   1.294   .     A
C1509  C1520   1.442   .     S
C1509  O1535   1.301   .     A
C1510  O1538   1.293   .     A
C1510  C1519   1.442   .     S
C1510  O1536   1.302   .     A
C1511  O1539   1.297   .     A
C1511  O1541   1.295   .     A
C1511  C1513   1.434   .     S
C1512  O1540   1.296   .     A
C1512  C1514   1.433   .     S
C1512  O1542   1.296   .     A
C1514  C1397   1.333   1_655 S
C1514  H1412   1.086   1_655 S
C1515  C1520   1.400   .     A
C1515  H1529   1.085   .     S
C1516  H1530   1.085   .     S
C1516  C1519   1.400   .     A
C1516  C1170   1.384   1_565 S
C1517  C1519   1.412   .     A
C1517  O1543   1.382   .     S
C1517  C1167   1.385   1_565 S
C1518  C1520   1.412   .     A
C1518  O1545   1.381   .     S
C1521  N1534   1.344   .     A
C1521  H1531   1.083   .     S
C1522  N1533   1.352   .     A
C1522  H1532   1.082   .     S
C1522  C480    1.421   1_556 S
C1523  C1547   1.530   .     S
C1523  N1533   1.410   .     A
C1523  C477    1.419   1_556 S
C1524  N1534   1.397   .     A
C1524  C1557   1.514   .     S
Cu1525 N1533   2.035   .     S
Cu1525 O1538   1.947   .     S
Cu1525 Cu1526  2.708   .     S
Cu1525 O1539   1.958   .     S
Cu1525 O1542   1.957   .     S
Cu1525 O1535   1.959   .     S
Cu1526 N1534   2.035   .     S
Cu1526 O1537   1.947   .     S
Cu1526 O1541   1.957   .     S
Cu1526 O1540   1.958   .     S
Cu1526 O1536   1.959   .     S
H1527  C1397   1.087   1_655 S
O1543  H1544   0.989   .     S
O1545  H1546   0.989   .     S
C1547  C1548   1.537   .     S
C1547  H1555   1.100   .     S
C1547  H1556   1.114   .     S
C1548  C1549   1.528   .     S
C1548  H1554   1.100   .     S
C1548  H1553   1.111   .     S
C1549  H1550   1.112   .     S
C1549  H1551   1.111   .     S
C1549  H1552   1.110   .     S
C1557  H1565   1.092   .     S
C1557  C1558   1.537   .     S
C1557  H1566   1.113   .     S
C1558  C1559   1.527   .     S
C1558  H1564   1.109   .     S
C1558  H1563   1.111   .     S
C1559  H1560   1.110   .     S
C1559  H1561   1.111   .     S
C1559  H1214   1.111   1_565 S
