data_str_m2_o10_o16_pcu_sym.133
_audit_creation_date              2020-01-03
_audit_creation_method            'Materials Studio'
_symmetry_space_group_name_H-M    'P1'
_symmetry_Int_Tables_number       1
_symmetry_cell_setting            triclinic
loop_
_symmetry_equiv_pos_as_xyz
  x,y,z
_cell_length_a                    22.3775
_cell_length_b                    26.0793
_cell_length_c                    26.7903
_cell_angle_alpha                 94.6122
_cell_angle_beta                  77.2422
_cell_angle_gamma                 103.3884
loop_
_atom_site_label
_atom_site_type_symbol
_atom_site_fract_x
_atom_site_fract_y
_atom_site_fract_z
_atom_site_U_iso_or_equiv
_atom_site_adp_type
_atom_site_occupancy
C1     C     0.18181   0.26674   0.25160   0.00000  Uiso   1.00
C2     C     0.13921   0.16740   0.48824   0.00000  Uiso   1.00
C3     C     0.15445   0.18294   0.43658   0.00000  Uiso   1.00
C4     C     0.18657   0.17998   0.01787   0.00000  Uiso   1.00
C5     C     0.24605   0.21224   0.49745   0.00000  Uiso   1.00
C6     C     0.25759   0.23219   0.44876   0.00000  Uiso   1.00
C7     C     0.21224   0.21860   0.41917   0.00000  Uiso   1.00
C8     C     0.17649   0.16163   0.06747   0.00000  Uiso   1.00
C9     C     0.28009   0.20919   0.07694   0.00000  Uiso   1.00
C10    C     0.11110   0.16322   0.40402   0.00000  Uiso   1.00
C11    C     0.19022   0.32279   0.25242   0.00000  Uiso   1.00
C12    C     0.13280   0.16513   0.34742   0.00000  Uiso   1.00
C13    C     0.14305   0.01055   0.24778   0.00000  Uiso   1.00
C14    C     0.15149   0.06660   0.24851   0.00000  Uiso   1.00
C15    C     0.20058   0.17028   0.15298   0.00000  Uiso   1.00
C16    C     0.29271   0.22564   0.02670   0.00000  Uiso   1.00
C17    C     0.22109   0.17843   0.09786   0.00000  Uiso   1.00
C18    C     0.04894   0.13680   0.42622   0.00000  Uiso   1.00
C19    C     0.03250   0.12724   0.47832   0.00000  Uiso   1.00
C20    C     0.07684   0.14108   0.00871   0.00000  Uiso   1.00
Cu21   Cu    0.10710   0.16105   0.24435   0.00000  Uiso   1.00
Cu22   Cu    0.22623   0.17228   0.25564   0.00000  Uiso   1.00
H23    H     0.31520   0.22245   0.10001   0.00000  Uiso   1.00
H24    H     0.09768   0.31988   0.24340   0.00000  Uiso   1.00
H25    H     0.00278   0.20484   0.29100   0.00000  Uiso   1.00
H26    H     0.30181   0.25874   0.43351   0.00000  Uiso   1.00
H27    H     0.00490   0.25024   0.01124   0.00000  Uiso   1.00
H28    H     0.13350   0.13497   0.08419   0.00000  Uiso   1.00
H29    H     0.05992   0.13206   0.04857   0.00000  Uiso   1.00
H30    H     0.31827   0.10766   0.49563   0.00000  Uiso   1.00
H31    H     0.22265   0.23787   0.38308   0.00000  Uiso   1.00
H32    H     0.23558   0.01345   0.25684   0.00000  Uiso   1.00
N33    N     0.31574   0.18074   0.26416   0.00000  Uiso   1.00
N34    N     0.01759   0.15259   0.23584   0.00000  Uiso   1.00
O35    O     0.12797   0.23807   0.24633   0.00000  Uiso   1.00
O36    O     0.22858   0.24755   0.25586   0.00000  Uiso   1.00
O37    O     0.09181   0.15960   0.31839   0.00000  Uiso   1.00
O38    O     0.19242   0.16908   0.32793   0.00000  Uiso   1.00
O39    O     0.10476   0.08578   0.24413   0.00000  Uiso   1.00
O40    O     0.20536   0.09526   0.25367   0.00000  Uiso   1.00
O41    O     0.14092   0.16425   0.17207   0.00000  Uiso   1.00
O42    O     0.24152   0.17373   0.18160   0.00000  Uiso   1.00
C43    C     0.32801   0.11972   0.19785   0.00000  Uiso   1.00
N44    N     0.30977   0.09199   0.16588   0.00000  Uiso   1.00
C45    C     0.00055   0.11794   0.39704   0.00000  Uiso   1.00
N46    N     0.29494   0.10283   0.37388   0.00000  Uiso   1.00
C47    C     0.51514   0.26674   0.25160   0.00000  Uiso   1.00
C48    C     0.47255   0.16740   0.48824   0.00000  Uiso   1.00
C49    C     0.48778   0.18294   0.43658   0.00000  Uiso   1.00
C50    C     0.51990   0.17998   0.01787   0.00000  Uiso   1.00
C51    C     0.57939   0.21224   0.49745   0.00000  Uiso   1.00
C52    C     0.59092   0.23219   0.44876   0.00000  Uiso   1.00
C53    C     0.54557   0.21860   0.41917   0.00000  Uiso   1.00
C54    C     0.50982   0.16163   0.06747   0.00000  Uiso   1.00
C55    C     0.61342   0.20919   0.07694   0.00000  Uiso   1.00
C56    C     0.44443   0.16322   0.40402   0.00000  Uiso   1.00
C57    C     0.52355   0.32279   0.25242   0.00000  Uiso   1.00
C58    C     0.46614   0.16513   0.34742   0.00000  Uiso   1.00
C59    C     0.47638   0.01055   0.24778   0.00000  Uiso   1.00
C60    C     0.48482   0.06660   0.24851   0.00000  Uiso   1.00
C61    C     0.53391   0.17028   0.15298   0.00000  Uiso   1.00
C62    C     0.62604   0.22564   0.02670   0.00000  Uiso   1.00
C63    C     0.55442   0.17843   0.09786   0.00000  Uiso   1.00
C64    C     0.38227   0.13680   0.42622   0.00000  Uiso   1.00
C65    C     0.36583   0.12724   0.47832   0.00000  Uiso   1.00
C66    C     0.41017   0.14108   0.00871   0.00000  Uiso   1.00
Cu67   Cu    0.44043   0.16105   0.24435   0.00000  Uiso   1.00
Cu68   Cu    0.55957   0.17228   0.25564   0.00000  Uiso   1.00
H69    H     0.64853   0.22245   0.10001   0.00000  Uiso   1.00
H70    H     0.43101   0.31988   0.24340   0.00000  Uiso   1.00
H71    H     0.33611   0.20484   0.29100   0.00000  Uiso   1.00
H72    H     0.63515   0.25874   0.43351   0.00000  Uiso   1.00
H73    H     0.33823   0.25024   0.01124   0.00000  Uiso   1.00
H74    H     0.46683   0.13497   0.08419   0.00000  Uiso   1.00
H75    H     0.39326   0.13206   0.04857   0.00000  Uiso   1.00
H76    H     0.65160   0.10766   0.49563   0.00000  Uiso   1.00
H77    H     0.55598   0.23787   0.38308   0.00000  Uiso   1.00
H78    H     0.56891   0.01345   0.25684   0.00000  Uiso   1.00
N79    N     0.64908   0.18074   0.26416   0.00000  Uiso   1.00
N80    N     0.35092   0.15259   0.23584   0.00000  Uiso   1.00
O81    O     0.46131   0.23807   0.24633   0.00000  Uiso   1.00
O82    O     0.56191   0.24755   0.25586   0.00000  Uiso   1.00
O83    O     0.42515   0.15960   0.31839   0.00000  Uiso   1.00
O84    O     0.52575   0.16908   0.32793   0.00000  Uiso   1.00
O85    O     0.43809   0.08578   0.24413   0.00000  Uiso   1.00
O86    O     0.53869   0.09526   0.25367   0.00000  Uiso   1.00
O87    O     0.47425   0.16425   0.17207   0.00000  Uiso   1.00
O88    O     0.57485   0.17373   0.18160   0.00000  Uiso   1.00
C89    C     0.66134   0.11972   0.19785   0.00000  Uiso   1.00
N90    N     0.64310   0.09199   0.16588   0.00000  Uiso   1.00
C91    C     0.33389   0.11794   0.39704   0.00000  Uiso   1.00
N92    N     0.62827   0.10283   0.37388   0.00000  Uiso   1.00
C93    C     0.84847   0.26674   0.25160   0.00000  Uiso   1.00
C94    C     0.80588   0.16740   0.48824   0.00000  Uiso   1.00
C95    C     0.82112   0.18294   0.43658   0.00000  Uiso   1.00
C96    C     0.85323   0.17998   0.01787   0.00000  Uiso   1.00
C97    C     0.91272   0.21224   0.49745   0.00000  Uiso   1.00
C98    C     0.92425   0.23219   0.44876   0.00000  Uiso   1.00
C99    C     0.87890   0.21860   0.41917   0.00000  Uiso   1.00
C100   C     0.84316   0.16163   0.06747   0.00000  Uiso   1.00
C101   C     0.94675   0.20919   0.07694   0.00000  Uiso   1.00
C102   C     0.77777   0.16322   0.40402   0.00000  Uiso   1.00
C103   C     0.85689   0.32279   0.25242   0.00000  Uiso   1.00
C104   C     0.79947   0.16513   0.34742   0.00000  Uiso   1.00
C105   C     0.80971   0.01055   0.24778   0.00000  Uiso   1.00
C106   C     0.81816   0.06660   0.24851   0.00000  Uiso   1.00
C107   C     0.86725   0.17028   0.15298   0.00000  Uiso   1.00
C108   C     0.95937   0.22564   0.02670   0.00000  Uiso   1.00
C109   C     0.88775   0.17843   0.09786   0.00000  Uiso   1.00
C110   C     0.71561   0.13680   0.42622   0.00000  Uiso   1.00
C111   C     0.69916   0.12724   0.47832   0.00000  Uiso   1.00
C112   C     0.74351   0.14108   0.00871   0.00000  Uiso   1.00
Cu113  Cu    0.77377   0.16105   0.24435   0.00000  Uiso   1.00
Cu114  Cu    0.89290   0.17228   0.25564   0.00000  Uiso   1.00
H115   H     0.98187   0.22245   0.10001   0.00000  Uiso   1.00
H116   H     0.76435   0.31988   0.24340   0.00000  Uiso   1.00
H117   H     0.66945   0.20484   0.29100   0.00000  Uiso   1.00
H118   H     0.96848   0.25874   0.43351   0.00000  Uiso   1.00
H119   H     0.67157   0.25024   0.01124   0.00000  Uiso   1.00
H120   H     0.80016   0.13497   0.08419   0.00000  Uiso   1.00
H121   H     0.72659   0.13206   0.04857   0.00000  Uiso   1.00
H122   H     0.98494   0.10766   0.49563   0.00000  Uiso   1.00
H123   H     0.88931   0.23787   0.38308   0.00000  Uiso   1.00
H124   H     0.90224   0.01345   0.25684   0.00000  Uiso   1.00
N125   N     0.98241   0.18074   0.26416   0.00000  Uiso   1.00
N126   N     0.68426   0.15259   0.23584   0.00000  Uiso   1.00
O127   O     0.79464   0.23807   0.24633   0.00000  Uiso   1.00
O128   O     0.89524   0.24755   0.25586   0.00000  Uiso   1.00
O129   O     0.75848   0.15960   0.31839   0.00000  Uiso   1.00
O130   O     0.85908   0.16908   0.32793   0.00000  Uiso   1.00
O131   O     0.77142   0.08578   0.24413   0.00000  Uiso   1.00
O132   O     0.87203   0.09526   0.25367   0.00000  Uiso   1.00
O133   O     0.80758   0.16425   0.17207   0.00000  Uiso   1.00
O134   O     0.90819   0.17373   0.18160   0.00000  Uiso   1.00
C135   C     0.99467   0.11972   0.19785   0.00000  Uiso   1.00
N136   N     0.97644   0.09199   0.16588   0.00000  Uiso   1.00
C137   C     0.66722   0.11794   0.39704   0.00000  Uiso   1.00
N138   N     0.96161   0.10283   0.37388   0.00000  Uiso   1.00
C139   C     0.18181   0.60007   0.25160   0.00000  Uiso   1.00
C140   C     0.13921   0.50074   0.48824   0.00000  Uiso   1.00
C141   C     0.15445   0.51627   0.43658   0.00000  Uiso   1.00
C142   C     0.18657   0.51332   0.01787   0.00000  Uiso   1.00
C143   C     0.24605   0.54557   0.49745   0.00000  Uiso   1.00
C144   C     0.25759   0.56552   0.44876   0.00000  Uiso   1.00
C145   C     0.21224   0.55193   0.41917   0.00000  Uiso   1.00
C146   C     0.17649   0.49497   0.06747   0.00000  Uiso   1.00
C147   C     0.28009   0.54252   0.07694   0.00000  Uiso   1.00
C148   C     0.11110   0.49655   0.40402   0.00000  Uiso   1.00
C149   C     0.19022   0.65612   0.25242   0.00000  Uiso   1.00
C150   C     0.13280   0.49846   0.34742   0.00000  Uiso   1.00
C151   C     0.14305   0.34389   0.24778   0.00000  Uiso   1.00
C152   C     0.15149   0.39993   0.24851   0.00000  Uiso   1.00
C153   C     0.20058   0.50361   0.15298   0.00000  Uiso   1.00
C154   C     0.29271   0.55897   0.02670   0.00000  Uiso   1.00
C155   C     0.22109   0.51177   0.09786   0.00000  Uiso   1.00
C156   C     0.04894   0.47014   0.42622   0.00000  Uiso   1.00
C157   C     0.03250   0.46057   0.47832   0.00000  Uiso   1.00
C158   C     0.07684   0.47441   0.00871   0.00000  Uiso   1.00
Cu159  Cu    0.10710   0.49439   0.24435   0.00000  Uiso   1.00
Cu160  Cu    0.22623   0.50561   0.25564   0.00000  Uiso   1.00
H161   H     0.31520   0.55578   0.10001   0.00000  Uiso   1.00
H162   H     0.09768   0.65322   0.24340   0.00000  Uiso   1.00
H163   H     0.00278   0.53818   0.29100   0.00000  Uiso   1.00
H164   H     0.30181   0.59207   0.43351   0.00000  Uiso   1.00
H165   H     0.00490   0.58357   0.01124   0.00000  Uiso   1.00
H166   H     0.13350   0.46830   0.08419   0.00000  Uiso   1.00
H167   H     0.05992   0.46540   0.04857   0.00000  Uiso   1.00
H168   H     0.31827   0.44100   0.49563   0.00000  Uiso   1.00
H169   H     0.22265   0.57120   0.38308   0.00000  Uiso   1.00
H170   H     0.23558   0.34679   0.25684   0.00000  Uiso   1.00
N171   N     0.31574   0.51407   0.26416   0.00000  Uiso   1.00
N172   N     0.01759   0.48593   0.23584   0.00000  Uiso   1.00
O173   O     0.12797   0.57141   0.24633   0.00000  Uiso   1.00
O174   O     0.22858   0.58089   0.25586   0.00000  Uiso   1.00
O175   O     0.09181   0.49293   0.31839   0.00000  Uiso   1.00
O176   O     0.19242   0.50241   0.32793   0.00000  Uiso   1.00
O177   O     0.10476   0.41911   0.24413   0.00000  Uiso   1.00
O178   O     0.20536   0.42859   0.25367   0.00000  Uiso   1.00
O179   O     0.14092   0.49759   0.17207   0.00000  Uiso   1.00
O180   O     0.24152   0.50707   0.18160   0.00000  Uiso   1.00
C181   C     0.32801   0.45306   0.19785   0.00000  Uiso   1.00
N182   N     0.30977   0.42533   0.16588   0.00000  Uiso   1.00
C183   C     0.00055   0.45127   0.39704   0.00000  Uiso   1.00
N184   N     0.29494   0.43616   0.37388   0.00000  Uiso   1.00
C185   C     0.51514   0.60007   0.25160   0.00000  Uiso   1.00
C186   C     0.47255   0.50074   0.48824   0.00000  Uiso   1.00
C187   C     0.48778   0.51627   0.43658   0.00000  Uiso   1.00
C188   C     0.51990   0.51332   0.01787   0.00000  Uiso   1.00
C189   C     0.57939   0.54557   0.49745   0.00000  Uiso   1.00
C190   C     0.59092   0.56552   0.44876   0.00000  Uiso   1.00
C191   C     0.54557   0.55193   0.41917   0.00000  Uiso   1.00
C192   C     0.50982   0.49497   0.06747   0.00000  Uiso   1.00
C193   C     0.61342   0.54252   0.07694   0.00000  Uiso   1.00
C194   C     0.44443   0.49655   0.40402   0.00000  Uiso   1.00
C195   C     0.52355   0.65612   0.25242   0.00000  Uiso   1.00
C196   C     0.46614   0.49846   0.34742   0.00000  Uiso   1.00
C197   C     0.47638   0.34389   0.24778   0.00000  Uiso   1.00
C198   C     0.48482   0.39993   0.24851   0.00000  Uiso   1.00
C199   C     0.53391   0.50361   0.15298   0.00000  Uiso   1.00
C200   C     0.62604   0.55897   0.02670   0.00000  Uiso   1.00
C201   C     0.55442   0.51177   0.09786   0.00000  Uiso   1.00
C202   C     0.38227   0.47014   0.42622   0.00000  Uiso   1.00
C203   C     0.36583   0.46057   0.47832   0.00000  Uiso   1.00
C204   C     0.41017   0.47441   0.00871   0.00000  Uiso   1.00
Cu205  Cu    0.44043   0.49439   0.24435   0.00000  Uiso   1.00
Cu206  Cu    0.55957   0.50561   0.25564   0.00000  Uiso   1.00
H207   H     0.64853   0.55578   0.10001   0.00000  Uiso   1.00
H208   H     0.43101   0.65322   0.24340   0.00000  Uiso   1.00
H209   H     0.33611   0.53818   0.29100   0.00000  Uiso   1.00
H210   H     0.63515   0.59207   0.43351   0.00000  Uiso   1.00
H211   H     0.33823   0.58357   0.01124   0.00000  Uiso   1.00
H212   H     0.46683   0.46830   0.08419   0.00000  Uiso   1.00
H213   H     0.39326   0.46540   0.04857   0.00000  Uiso   1.00
H214   H     0.65160   0.44100   0.49563   0.00000  Uiso   1.00
H215   H     0.55598   0.57120   0.38308   0.00000  Uiso   1.00
H216   H     0.56891   0.34679   0.25684   0.00000  Uiso   1.00
N217   N     0.64908   0.51407   0.26416   0.00000  Uiso   1.00
N218   N     0.35092   0.48593   0.23584   0.00000  Uiso   1.00
O219   O     0.46131   0.57141   0.24633   0.00000  Uiso   1.00
O220   O     0.56191   0.58089   0.25586   0.00000  Uiso   1.00
O221   O     0.42515   0.49293   0.31839   0.00000  Uiso   1.00
O222   O     0.52575   0.50241   0.32793   0.00000  Uiso   1.00
O223   O     0.43809   0.41911   0.24413   0.00000  Uiso   1.00
O224   O     0.53869   0.42859   0.25367   0.00000  Uiso   1.00
O225   O     0.47425   0.49759   0.17207   0.00000  Uiso   1.00
O226   O     0.57485   0.50707   0.18160   0.00000  Uiso   1.00
C227   C     0.66134   0.45306   0.19785   0.00000  Uiso   1.00
N228   N     0.64310   0.42533   0.16588   0.00000  Uiso   1.00
C229   C     0.33389   0.45127   0.39704   0.00000  Uiso   1.00
N230   N     0.62827   0.43616   0.37388   0.00000  Uiso   1.00
C231   C     0.84847   0.60007   0.25160   0.00000  Uiso   1.00
C232   C     0.80588   0.50074   0.48824   0.00000  Uiso   1.00
C233   C     0.82112   0.51627   0.43658   0.00000  Uiso   1.00
C234   C     0.85323   0.51332   0.01787   0.00000  Uiso   1.00
C235   C     0.91272   0.54557   0.49745   0.00000  Uiso   1.00
C236   C     0.92425   0.56552   0.44876   0.00000  Uiso   1.00
C237   C     0.87890   0.55193   0.41917   0.00000  Uiso   1.00
C238   C     0.84316   0.49497   0.06747   0.00000  Uiso   1.00
C239   C     0.94675   0.54252   0.07694   0.00000  Uiso   1.00
C240   C     0.77777   0.49655   0.40402   0.00000  Uiso   1.00
C241   C     0.85689   0.65612   0.25242   0.00000  Uiso   1.00
C242   C     0.79947   0.49846   0.34742   0.00000  Uiso   1.00
C243   C     0.80971   0.34389   0.24778   0.00000  Uiso   1.00
C244   C     0.81816   0.39993   0.24851   0.00000  Uiso   1.00
C245   C     0.86725   0.50361   0.15298   0.00000  Uiso   1.00
C246   C     0.95937   0.55897   0.02670   0.00000  Uiso   1.00
C247   C     0.88775   0.51177   0.09786   0.00000  Uiso   1.00
C248   C     0.71561   0.47014   0.42622   0.00000  Uiso   1.00
C249   C     0.69916   0.46057   0.47832   0.00000  Uiso   1.00
C250   C     0.74351   0.47441   0.00871   0.00000  Uiso   1.00
Cu251  Cu    0.77377   0.49439   0.24435   0.00000  Uiso   1.00
Cu252  Cu    0.89290   0.50561   0.25564   0.00000  Uiso   1.00
H253   H     0.98187   0.55578   0.10001   0.00000  Uiso   1.00
H254   H     0.76435   0.65322   0.24340   0.00000  Uiso   1.00
H255   H     0.66945   0.53818   0.29100   0.00000  Uiso   1.00
H256   H     0.96848   0.59207   0.43351   0.00000  Uiso   1.00
H257   H     0.67157   0.58357   0.01124   0.00000  Uiso   1.00
H258   H     0.80016   0.46830   0.08419   0.00000  Uiso   1.00
H259   H     0.72659   0.46540   0.04857   0.00000  Uiso   1.00
H260   H     0.98494   0.44100   0.49563   0.00000  Uiso   1.00
H261   H     0.88931   0.57120   0.38308   0.00000  Uiso   1.00
H262   H     0.90224   0.34679   0.25684   0.00000  Uiso   1.00
N263   N     0.98241   0.51407   0.26416   0.00000  Uiso   1.00
N264   N     0.68426   0.48593   0.23584   0.00000  Uiso   1.00
O265   O     0.79464   0.57141   0.24633   0.00000  Uiso   1.00
O266   O     0.89524   0.58089   0.25586   0.00000  Uiso   1.00
O267   O     0.75848   0.49293   0.31839   0.00000  Uiso   1.00
O268   O     0.85908   0.50241   0.32793   0.00000  Uiso   1.00
O269   O     0.77142   0.41911   0.24413   0.00000  Uiso   1.00
O270   O     0.87203   0.42859   0.25367   0.00000  Uiso   1.00
O271   O     0.80758   0.49759   0.17207   0.00000  Uiso   1.00
O272   O     0.90819   0.50707   0.18160   0.00000  Uiso   1.00
C273   C     0.99467   0.45306   0.19785   0.00000  Uiso   1.00
N274   N     0.97644   0.42533   0.16588   0.00000  Uiso   1.00
C275   C     0.66722   0.45127   0.39704   0.00000  Uiso   1.00
N276   N     0.96161   0.43616   0.37388   0.00000  Uiso   1.00
C277   C     0.18181   0.93340   0.25160   0.00000  Uiso   1.00
C278   C     0.13921   0.83407   0.48824   0.00000  Uiso   1.00
C279   C     0.15445   0.84960   0.43658   0.00000  Uiso   1.00
C280   C     0.18657   0.84665   0.01787   0.00000  Uiso   1.00
C281   C     0.24605   0.87891   0.49745   0.00000  Uiso   1.00
C282   C     0.25759   0.89885   0.44876   0.00000  Uiso   1.00
C283   C     0.21224   0.88526   0.41917   0.00000  Uiso   1.00
C284   C     0.17649   0.82830   0.06747   0.00000  Uiso   1.00
C285   C     0.28009   0.87586   0.07694   0.00000  Uiso   1.00
C286   C     0.11110   0.82988   0.40402   0.00000  Uiso   1.00
C287   C     0.19022   0.98945   0.25242   0.00000  Uiso   1.00
C288   C     0.13280   0.83180   0.34742   0.00000  Uiso   1.00
C289   C     0.14305   0.67722   0.24778   0.00000  Uiso   1.00
C290   C     0.15149   0.73327   0.24851   0.00000  Uiso   1.00
C291   C     0.20058   0.83694   0.15298   0.00000  Uiso   1.00
C292   C     0.29271   0.89231   0.02670   0.00000  Uiso   1.00
C293   C     0.22109   0.84510   0.09786   0.00000  Uiso   1.00
C294   C     0.04894   0.80347   0.42622   0.00000  Uiso   1.00
C295   C     0.03250   0.79391   0.47832   0.00000  Uiso   1.00
C296   C     0.07684   0.80774   0.00871   0.00000  Uiso   1.00
Cu297  Cu    0.10710   0.82772   0.24435   0.00000  Uiso   1.00
Cu298  Cu    0.22623   0.83895   0.25564   0.00000  Uiso   1.00
H299   H     0.31520   0.88912   0.10001   0.00000  Uiso   1.00
H300   H     0.09768   0.98655   0.24340   0.00000  Uiso   1.00
H301   H     0.00278   0.87151   0.29100   0.00000  Uiso   1.00
H302   H     0.30181   0.92540   0.43351   0.00000  Uiso   1.00
H303   H     0.00490   0.91691   0.01124   0.00000  Uiso   1.00
H304   H     0.13350   0.80164   0.08419   0.00000  Uiso   1.00
H305   H     0.05992   0.79873   0.04857   0.00000  Uiso   1.00
H306   H     0.31827   0.77433   0.49563   0.00000  Uiso   1.00
H307   H     0.22265   0.90454   0.38308   0.00000  Uiso   1.00
H308   H     0.23558   0.68012   0.25684   0.00000  Uiso   1.00
N309   N     0.31574   0.84741   0.26416   0.00000  Uiso   1.00
N310   N     0.01759   0.81926   0.23584   0.00000  Uiso   1.00
O311   O     0.12797   0.90474   0.24633   0.00000  Uiso   1.00
O312   O     0.22858   0.91422   0.25586   0.00000  Uiso   1.00
O313   O     0.09181   0.82627   0.31839   0.00000  Uiso   1.00
O314   O     0.19242   0.83575   0.32793   0.00000  Uiso   1.00
O315   O     0.10476   0.75245   0.24413   0.00000  Uiso   1.00
O316   O     0.20536   0.76193   0.25367   0.00000  Uiso   1.00
O317   O     0.14092   0.83092   0.17207   0.00000  Uiso   1.00
O318   O     0.24152   0.84040   0.18160   0.00000  Uiso   1.00
C319   C     0.32801   0.78639   0.19785   0.00000  Uiso   1.00
N320   N     0.30977   0.75866   0.16588   0.00000  Uiso   1.00
C321   C     0.00055   0.78460   0.39704   0.00000  Uiso   1.00
N322   N     0.29494   0.76949   0.37388   0.00000  Uiso   1.00
C323   C     0.51514   0.93340   0.25160   0.00000  Uiso   1.00
C324   C     0.47255   0.83407   0.48824   0.00000  Uiso   1.00
C325   C     0.48778   0.84960   0.43658   0.00000  Uiso   1.00
C326   C     0.51990   0.84665   0.01787   0.00000  Uiso   1.00
C327   C     0.57939   0.87891   0.49745   0.00000  Uiso   1.00
C328   C     0.59092   0.89885   0.44876   0.00000  Uiso   1.00
C329   C     0.54557   0.88526   0.41917   0.00000  Uiso   1.00
C330   C     0.50982   0.82830   0.06747   0.00000  Uiso   1.00
C331   C     0.61342   0.87586   0.07694   0.00000  Uiso   1.00
C332   C     0.44443   0.82988   0.40402   0.00000  Uiso   1.00
C333   C     0.52355   0.98945   0.25242   0.00000  Uiso   1.00
C334   C     0.46614   0.83180   0.34742   0.00000  Uiso   1.00
C335   C     0.47638   0.67722   0.24778   0.00000  Uiso   1.00
C336   C     0.48482   0.73327   0.24851   0.00000  Uiso   1.00
C337   C     0.53391   0.83694   0.15298   0.00000  Uiso   1.00
C338   C     0.62604   0.89231   0.02670   0.00000  Uiso   1.00
C339   C     0.55442   0.84510   0.09786   0.00000  Uiso   1.00
C340   C     0.38227   0.80347   0.42622   0.00000  Uiso   1.00
C341   C     0.36583   0.79391   0.47832   0.00000  Uiso   1.00
C342   C     0.41017   0.80774   0.00871   0.00000  Uiso   1.00
Cu343  Cu    0.44043   0.82772   0.24435   0.00000  Uiso   1.00
Cu344  Cu    0.55957   0.83895   0.25564   0.00000  Uiso   1.00
H345   H     0.64853   0.88912   0.10001   0.00000  Uiso   1.00
H346   H     0.43101   0.98655   0.24340   0.00000  Uiso   1.00
H347   H     0.33611   0.87151   0.29100   0.00000  Uiso   1.00
H348   H     0.63515   0.92540   0.43351   0.00000  Uiso   1.00
H349   H     0.33823   0.91691   0.01124   0.00000  Uiso   1.00
H350   H     0.46683   0.80164   0.08419   0.00000  Uiso   1.00
H351   H     0.39326   0.79873   0.04857   0.00000  Uiso   1.00
H352   H     0.65160   0.77433   0.49563   0.00000  Uiso   1.00
H353   H     0.55598   0.90454   0.38308   0.00000  Uiso   1.00
H354   H     0.56891   0.68012   0.25684   0.00000  Uiso   1.00
N355   N     0.64908   0.84741   0.26416   0.00000  Uiso   1.00
N356   N     0.35092   0.81926   0.23584   0.00000  Uiso   1.00
O357   O     0.46131   0.90474   0.24633   0.00000  Uiso   1.00
O358   O     0.56191   0.91422   0.25586   0.00000  Uiso   1.00
O359   O     0.42515   0.82627   0.31839   0.00000  Uiso   1.00
O360   O     0.52575   0.83575   0.32793   0.00000  Uiso   1.00
O361   O     0.43809   0.75245   0.24413   0.00000  Uiso   1.00
O362   O     0.53869   0.76193   0.25367   0.00000  Uiso   1.00
O363   O     0.47425   0.83092   0.17207   0.00000  Uiso   1.00
O364   O     0.57485   0.84040   0.18160   0.00000  Uiso   1.00
C365   C     0.66134   0.78639   0.19785   0.00000  Uiso   1.00
N366   N     0.64310   0.75866   0.16588   0.00000  Uiso   1.00
C367   C     0.33389   0.78460   0.39704   0.00000  Uiso   1.00
N368   N     0.62827   0.76949   0.37388   0.00000  Uiso   1.00
C369   C     0.84847   0.93340   0.25160   0.00000  Uiso   1.00
C370   C     0.80588   0.83407   0.48824   0.00000  Uiso   1.00
C371   C     0.82112   0.84960   0.43658   0.00000  Uiso   1.00
C372   C     0.85323   0.84665   0.01787   0.00000  Uiso   1.00
C373   C     0.91272   0.87891   0.49745   0.00000  Uiso   1.00
C374   C     0.92425   0.89885   0.44876   0.00000  Uiso   1.00
C375   C     0.87890   0.88526   0.41917   0.00000  Uiso   1.00
C376   C     0.84316   0.82830   0.06747   0.00000  Uiso   1.00
C377   C     0.94675   0.87586   0.07694   0.00000  Uiso   1.00
C378   C     0.77777   0.82988   0.40402   0.00000  Uiso   1.00
C379   C     0.85689   0.98945   0.25242   0.00000  Uiso   1.00
C380   C     0.79947   0.83180   0.34742   0.00000  Uiso   1.00
C381   C     0.80971   0.67722   0.24778   0.00000  Uiso   1.00
C382   C     0.81816   0.73327   0.24851   0.00000  Uiso   1.00
C383   C     0.86725   0.83694   0.15298   0.00000  Uiso   1.00
C384   C     0.95937   0.89231   0.02670   0.00000  Uiso   1.00
C385   C     0.88775   0.84510   0.09786   0.00000  Uiso   1.00
C386   C     0.71561   0.80347   0.42622   0.00000  Uiso   1.00
C387   C     0.69916   0.79391   0.47832   0.00000  Uiso   1.00
C388   C     0.74351   0.80774   0.00871   0.00000  Uiso   1.00
Cu389  Cu    0.77377   0.82772   0.24435   0.00000  Uiso   1.00
Cu390  Cu    0.89290   0.83895   0.25564   0.00000  Uiso   1.00
H391   H     0.98187   0.88912   0.10001   0.00000  Uiso   1.00
H392   H     0.76435   0.98655   0.24340   0.00000  Uiso   1.00
H393   H     0.66945   0.87151   0.29100   0.00000  Uiso   1.00
H394   H     0.96848   0.92540   0.43351   0.00000  Uiso   1.00
H395   H     0.67157   0.91691   0.01124   0.00000  Uiso   1.00
H396   H     0.80016   0.80164   0.08419   0.00000  Uiso   1.00
H397   H     0.72659   0.79873   0.04857   0.00000  Uiso   1.00
H398   H     0.98494   0.77433   0.49563   0.00000  Uiso   1.00
H399   H     0.88931   0.90454   0.38308   0.00000  Uiso   1.00
H400   H     0.90224   0.68012   0.25684   0.00000  Uiso   1.00
N401   N     0.98241   0.84741   0.26416   0.00000  Uiso   1.00
N402   N     0.68426   0.81926   0.23584   0.00000  Uiso   1.00
O403   O     0.79464   0.90474   0.24633   0.00000  Uiso   1.00
O404   O     0.89524   0.91422   0.25586   0.00000  Uiso   1.00
O405   O     0.75848   0.82627   0.31839   0.00000  Uiso   1.00
O406   O     0.85908   0.83575   0.32793   0.00000  Uiso   1.00
O407   O     0.77142   0.75245   0.24413   0.00000  Uiso   1.00
O408   O     0.87203   0.76193   0.25367   0.00000  Uiso   1.00
O409   O     0.80758   0.83092   0.17207   0.00000  Uiso   1.00
O410   O     0.90819   0.84040   0.18160   0.00000  Uiso   1.00
C411   C     0.99467   0.78639   0.19785   0.00000  Uiso   1.00
N412   N     0.97644   0.75866   0.16588   0.00000  Uiso   1.00
C413   C     0.66722   0.78460   0.39704   0.00000  Uiso   1.00
N414   N     0.96161   0.76949   0.37388   0.00000  Uiso   1.00
C415   C     0.18181   0.26674   0.75160   0.00000  Uiso   1.00
C416   C     0.13921   0.16740   0.98824   0.00000  Uiso   1.00
C417   C     0.15445   0.18294   0.93658   0.00000  Uiso   1.00
C418   C     0.18657   0.17998   0.51787   0.00000  Uiso   1.00
C419   C     0.24605   0.21224   0.99745   0.00000  Uiso   1.00
C420   C     0.25759   0.23219   0.94876   0.00000  Uiso   1.00
C421   C     0.21224   0.21860   0.91917   0.00000  Uiso   1.00
C422   C     0.17649   0.16163   0.56747   0.00000  Uiso   1.00
C423   C     0.28009   0.20919   0.57694   0.00000  Uiso   1.00
C424   C     0.11110   0.16322   0.90402   0.00000  Uiso   1.00
C425   C     0.19022   0.32279   0.75242   0.00000  Uiso   1.00
C426   C     0.13280   0.16513   0.84742   0.00000  Uiso   1.00
C427   C     0.14305   0.01055   0.74778   0.00000  Uiso   1.00
C428   C     0.15149   0.06660   0.74851   0.00000  Uiso   1.00
C429   C     0.20058   0.17028   0.65298   0.00000  Uiso   1.00
C430   C     0.29271   0.22564   0.52670   0.00000  Uiso   1.00
C431   C     0.22109   0.17843   0.59786   0.00000  Uiso   1.00
C432   C     0.04894   0.13680   0.92622   0.00000  Uiso   1.00
C433   C     0.03250   0.12724   0.97832   0.00000  Uiso   1.00
C434   C     0.07684   0.14108   0.50871   0.00000  Uiso   1.00
Cu435  Cu    0.10710   0.16105   0.74435   0.00000  Uiso   1.00
Cu436  Cu    0.22623   0.17228   0.75564   0.00000  Uiso   1.00
H437   H     0.31520   0.22245   0.60001   0.00000  Uiso   1.00
H438   H     0.09768   0.31988   0.74340   0.00000  Uiso   1.00
H439   H     0.00278   0.20484   0.79100   0.00000  Uiso   1.00
H440   H     0.30181   0.25874   0.93351   0.00000  Uiso   1.00
H441   H     0.00490   0.25024   0.51124   0.00000  Uiso   1.00
H442   H     0.13350   0.13497   0.58419   0.00000  Uiso   1.00
H443   H     0.05992   0.13206   0.54857   0.00000  Uiso   1.00
H444   H     0.31827   0.10766   0.99563   0.00000  Uiso   1.00
H445   H     0.22265   0.23787   0.88308   0.00000  Uiso   1.00
H446   H     0.23558   0.01345   0.75684   0.00000  Uiso   1.00
N447   N     0.31574   0.18074   0.76416   0.00000  Uiso   1.00
N448   N     0.01759   0.15259   0.73584   0.00000  Uiso   1.00
O449   O     0.12797   0.23807   0.74633   0.00000  Uiso   1.00
O450   O     0.22858   0.24755   0.75586   0.00000  Uiso   1.00
O451   O     0.09181   0.15960   0.81839   0.00000  Uiso   1.00
O452   O     0.19242   0.16908   0.82793   0.00000  Uiso   1.00
O453   O     0.10476   0.08578   0.74413   0.00000  Uiso   1.00
O454   O     0.20536   0.09526   0.75367   0.00000  Uiso   1.00
O455   O     0.14092   0.16425   0.67207   0.00000  Uiso   1.00
O456   O     0.24152   0.17373   0.68160   0.00000  Uiso   1.00
C457   C     0.32801   0.11972   0.69785   0.00000  Uiso   1.00
N458   N     0.30977   0.09199   0.66588   0.00000  Uiso   1.00
C459   C     0.00055   0.11794   0.89704   0.00000  Uiso   1.00
N460   N     0.29494   0.10283   0.87388   0.00000  Uiso   1.00
C461   C     0.51514   0.26674   0.75160   0.00000  Uiso   1.00
C462   C     0.47255   0.16740   0.98824   0.00000  Uiso   1.00
C463   C     0.48778   0.18294   0.93658   0.00000  Uiso   1.00
C464   C     0.51990   0.17998   0.51787   0.00000  Uiso   1.00
C465   C     0.57939   0.21224   0.99745   0.00000  Uiso   1.00
C466   C     0.59092   0.23219   0.94876   0.00000  Uiso   1.00
C467   C     0.54557   0.21860   0.91917   0.00000  Uiso   1.00
C468   C     0.50982   0.16163   0.56747   0.00000  Uiso   1.00
C469   C     0.61342   0.20919   0.57694   0.00000  Uiso   1.00
C470   C     0.44443   0.16322   0.90402   0.00000  Uiso   1.00
C471   C     0.52355   0.32279   0.75242   0.00000  Uiso   1.00
C472   C     0.46614   0.16513   0.84742   0.00000  Uiso   1.00
C473   C     0.47638   0.01055   0.74778   0.00000  Uiso   1.00
C474   C     0.48482   0.06660   0.74851   0.00000  Uiso   1.00
C475   C     0.53391   0.17028   0.65298   0.00000  Uiso   1.00
C476   C     0.62604   0.22564   0.52670   0.00000  Uiso   1.00
C477   C     0.55442   0.17843   0.59786   0.00000  Uiso   1.00
C478   C     0.38227   0.13680   0.92622   0.00000  Uiso   1.00
C479   C     0.36583   0.12724   0.97832   0.00000  Uiso   1.00
C480   C     0.41017   0.14108   0.50871   0.00000  Uiso   1.00
Cu481  Cu    0.44043   0.16105   0.74435   0.00000  Uiso   1.00
Cu482  Cu    0.55957   0.17228   0.75564   0.00000  Uiso   1.00
H483   H     0.64853   0.22245   0.60001   0.00000  Uiso   1.00
H484   H     0.43101   0.31988   0.74340   0.00000  Uiso   1.00
H485   H     0.33611   0.20484   0.79100   0.00000  Uiso   1.00
H486   H     0.63515   0.25874   0.93351   0.00000  Uiso   1.00
H487   H     0.33823   0.25024   0.51124   0.00000  Uiso   1.00
H488   H     0.46683   0.13497   0.58419   0.00000  Uiso   1.00
H489   H     0.39326   0.13206   0.54857   0.00000  Uiso   1.00
H490   H     0.65160   0.10766   0.99563   0.00000  Uiso   1.00
H491   H     0.55598   0.23787   0.88308   0.00000  Uiso   1.00
H492   H     0.56891   0.01345   0.75684   0.00000  Uiso   1.00
N493   N     0.64908   0.18074   0.76416   0.00000  Uiso   1.00
N494   N     0.35092   0.15259   0.73584   0.00000  Uiso   1.00
O495   O     0.46131   0.23807   0.74633   0.00000  Uiso   1.00
O496   O     0.56191   0.24755   0.75586   0.00000  Uiso   1.00
O497   O     0.42515   0.15960   0.81839   0.00000  Uiso   1.00
O498   O     0.52575   0.16908   0.82793   0.00000  Uiso   1.00
O499   O     0.43809   0.08578   0.74413   0.00000  Uiso   1.00
O500   O     0.53869   0.09526   0.75367   0.00000  Uiso   1.00
O501   O     0.47425   0.16425   0.67207   0.00000  Uiso   1.00
O502   O     0.57485   0.17373   0.68160   0.00000  Uiso   1.00
C503   C     0.66134   0.11972   0.69785   0.00000  Uiso   1.00
N504   N     0.64310   0.09199   0.66588   0.00000  Uiso   1.00
C505   C     0.33389   0.11794   0.89704   0.00000  Uiso   1.00
N506   N     0.62827   0.10283   0.87388   0.00000  Uiso   1.00
C507   C     0.84847   0.26674   0.75160   0.00000  Uiso   1.00
C508   C     0.80588   0.16740   0.98824   0.00000  Uiso   1.00
C509   C     0.82112   0.18294   0.93658   0.00000  Uiso   1.00
C510   C     0.85323   0.17998   0.51787   0.00000  Uiso   1.00
C511   C     0.91272   0.21224   0.99745   0.00000  Uiso   1.00
C512   C     0.92425   0.23219   0.94876   0.00000  Uiso   1.00
C513   C     0.87890   0.21860   0.91917   0.00000  Uiso   1.00
C514   C     0.84316   0.16163   0.56747   0.00000  Uiso   1.00
C515   C     0.94675   0.20919   0.57694   0.00000  Uiso   1.00
C516   C     0.77777   0.16322   0.90402   0.00000  Uiso   1.00
C517   C     0.85689   0.32279   0.75242   0.00000  Uiso   1.00
C518   C     0.79947   0.16513   0.84742   0.00000  Uiso   1.00
C519   C     0.80971   0.01055   0.74778   0.00000  Uiso   1.00
C520   C     0.81816   0.06660   0.74851   0.00000  Uiso   1.00
C521   C     0.86725   0.17028   0.65298   0.00000  Uiso   1.00
C522   C     0.95937   0.22564   0.52670   0.00000  Uiso   1.00
C523   C     0.88775   0.17843   0.59786   0.00000  Uiso   1.00
C524   C     0.71561   0.13680   0.92622   0.00000  Uiso   1.00
C525   C     0.69916   0.12724   0.97832   0.00000  Uiso   1.00
C526   C     0.74351   0.14108   0.50871   0.00000  Uiso   1.00
Cu527  Cu    0.77377   0.16105   0.74435   0.00000  Uiso   1.00
Cu528  Cu    0.89290   0.17228   0.75564   0.00000  Uiso   1.00
H529   H     0.98187   0.22245   0.60001   0.00000  Uiso   1.00
H530   H     0.76435   0.31988   0.74340   0.00000  Uiso   1.00
H531   H     0.66945   0.20484   0.79100   0.00000  Uiso   1.00
H532   H     0.96848   0.25874   0.93351   0.00000  Uiso   1.00
H533   H     0.67157   0.25024   0.51124   0.00000  Uiso   1.00
H534   H     0.80016   0.13497   0.58419   0.00000  Uiso   1.00
H535   H     0.72659   0.13206   0.54857   0.00000  Uiso   1.00
H536   H     0.98494   0.10766   0.99563   0.00000  Uiso   1.00
H537   H     0.88931   0.23787   0.88308   0.00000  Uiso   1.00
H538   H     0.90224   0.01345   0.75684   0.00000  Uiso   1.00
N539   N     0.98241   0.18074   0.76416   0.00000  Uiso   1.00
N540   N     0.68426   0.15259   0.73584   0.00000  Uiso   1.00
O541   O     0.79464   0.23807   0.74633   0.00000  Uiso   1.00
O542   O     0.89524   0.24755   0.75586   0.00000  Uiso   1.00
O543   O     0.75848   0.15960   0.81839   0.00000  Uiso   1.00
O544   O     0.85908   0.16908   0.82793   0.00000  Uiso   1.00
O545   O     0.77142   0.08578   0.74413   0.00000  Uiso   1.00
O546   O     0.87203   0.09526   0.75367   0.00000  Uiso   1.00
O547   O     0.80758   0.16425   0.67207   0.00000  Uiso   1.00
O548   O     0.90819   0.17373   0.68160   0.00000  Uiso   1.00
C549   C     0.99467   0.11972   0.69785   0.00000  Uiso   1.00
N550   N     0.97644   0.09199   0.66588   0.00000  Uiso   1.00
C551   C     0.66722   0.11794   0.89704   0.00000  Uiso   1.00
N552   N     0.96161   0.10283   0.87388   0.00000  Uiso   1.00
C553   C     0.18181   0.60007   0.75160   0.00000  Uiso   1.00
C554   C     0.13921   0.50074   0.98824   0.00000  Uiso   1.00
C555   C     0.15445   0.51627   0.93658   0.00000  Uiso   1.00
C556   C     0.18657   0.51332   0.51787   0.00000  Uiso   1.00
C557   C     0.24605   0.54557   0.99745   0.00000  Uiso   1.00
C558   C     0.25759   0.56552   0.94876   0.00000  Uiso   1.00
C559   C     0.21224   0.55193   0.91917   0.00000  Uiso   1.00
C560   C     0.17649   0.49497   0.56747   0.00000  Uiso   1.00
C561   C     0.28009   0.54252   0.57694   0.00000  Uiso   1.00
C562   C     0.11110   0.49655   0.90402   0.00000  Uiso   1.00
C563   C     0.19022   0.65612   0.75242   0.00000  Uiso   1.00
C564   C     0.13280   0.49846   0.84742   0.00000  Uiso   1.00
C565   C     0.14305   0.34389   0.74778   0.00000  Uiso   1.00
C566   C     0.15149   0.39993   0.74851   0.00000  Uiso   1.00
C567   C     0.20058   0.50361   0.65298   0.00000  Uiso   1.00
C568   C     0.29271   0.55897   0.52670   0.00000  Uiso   1.00
C569   C     0.22109   0.51177   0.59786   0.00000  Uiso   1.00
C570   C     0.04894   0.47014   0.92622   0.00000  Uiso   1.00
C571   C     0.03250   0.46057   0.97832   0.00000  Uiso   1.00
C572   C     0.07684   0.47441   0.50871   0.00000  Uiso   1.00
Cu573  Cu    0.10710   0.49439   0.74435   0.00000  Uiso   1.00
Cu574  Cu    0.22623   0.50561   0.75564   0.00000  Uiso   1.00
H575   H     0.31520   0.55578   0.60001   0.00000  Uiso   1.00
H576   H     0.09768   0.65322   0.74340   0.00000  Uiso   1.00
H577   H     0.00278   0.53818   0.79100   0.00000  Uiso   1.00
H578   H     0.30181   0.59207   0.93351   0.00000  Uiso   1.00
H579   H     0.00490   0.58357   0.51124   0.00000  Uiso   1.00
H580   H     0.13350   0.46830   0.58419   0.00000  Uiso   1.00
H581   H     0.05992   0.46540   0.54857   0.00000  Uiso   1.00
H582   H     0.31827   0.44100   0.99563   0.00000  Uiso   1.00
H583   H     0.22265   0.57120   0.88308   0.00000  Uiso   1.00
H584   H     0.23558   0.34679   0.75684   0.00000  Uiso   1.00
N585   N     0.31574   0.51407   0.76416   0.00000  Uiso   1.00
N586   N     0.01759   0.48593   0.73584   0.00000  Uiso   1.00
O587   O     0.12797   0.57141   0.74633   0.00000  Uiso   1.00
O588   O     0.22858   0.58089   0.75586   0.00000  Uiso   1.00
O589   O     0.09181   0.49293   0.81839   0.00000  Uiso   1.00
O590   O     0.19242   0.50241   0.82793   0.00000  Uiso   1.00
O591   O     0.10476   0.41911   0.74413   0.00000  Uiso   1.00
O592   O     0.20536   0.42859   0.75367   0.00000  Uiso   1.00
O593   O     0.14092   0.49759   0.67207   0.00000  Uiso   1.00
O594   O     0.24152   0.50707   0.68160   0.00000  Uiso   1.00
C595   C     0.32801   0.45306   0.69785   0.00000  Uiso   1.00
N596   N     0.30977   0.42533   0.66588   0.00000  Uiso   1.00
C597   C     0.00055   0.45127   0.89704   0.00000  Uiso   1.00
N598   N     0.29494   0.43616   0.87388   0.00000  Uiso   1.00
C599   C     0.51514   0.60007   0.75160   0.00000  Uiso   1.00
C600   C     0.47255   0.50074   0.98824   0.00000  Uiso   1.00
C601   C     0.48778   0.51627   0.93658   0.00000  Uiso   1.00
C602   C     0.51990   0.51332   0.51787   0.00000  Uiso   1.00
C603   C     0.57939   0.54557   0.99745   0.00000  Uiso   1.00
C604   C     0.59092   0.56552   0.94876   0.00000  Uiso   1.00
C605   C     0.54557   0.55193   0.91917   0.00000  Uiso   1.00
C606   C     0.50982   0.49497   0.56747   0.00000  Uiso   1.00
C607   C     0.61342   0.54252   0.57694   0.00000  Uiso   1.00
C608   C     0.44443   0.49655   0.90402   0.00000  Uiso   1.00
C609   C     0.52355   0.65612   0.75242   0.00000  Uiso   1.00
C610   C     0.46614   0.49846   0.84742   0.00000  Uiso   1.00
C611   C     0.47638   0.34389   0.74778   0.00000  Uiso   1.00
C612   C     0.48482   0.39993   0.74851   0.00000  Uiso   1.00
C613   C     0.53391   0.50361   0.65298   0.00000  Uiso   1.00
C614   C     0.62604   0.55897   0.52670   0.00000  Uiso   1.00
C615   C     0.55442   0.51177   0.59786   0.00000  Uiso   1.00
C616   C     0.38227   0.47014   0.92622   0.00000  Uiso   1.00
C617   C     0.36583   0.46057   0.97832   0.00000  Uiso   1.00
C618   C     0.41017   0.47441   0.50871   0.00000  Uiso   1.00
Cu619  Cu    0.44043   0.49439   0.74435   0.00000  Uiso   1.00
Cu620  Cu    0.55957   0.50561   0.75564   0.00000  Uiso   1.00
H621   H     0.64853   0.55578   0.60001   0.00000  Uiso   1.00
H622   H     0.43101   0.65322   0.74340   0.00000  Uiso   1.00
H623   H     0.33611   0.53818   0.79100   0.00000  Uiso   1.00
H624   H     0.63515   0.59207   0.93351   0.00000  Uiso   1.00
H625   H     0.33823   0.58357   0.51124   0.00000  Uiso   1.00
H626   H     0.46683   0.46830   0.58419   0.00000  Uiso   1.00
H627   H     0.39326   0.46540   0.54857   0.00000  Uiso   1.00
H628   H     0.65160   0.44100   0.99563   0.00000  Uiso   1.00
H629   H     0.55598   0.57120   0.88308   0.00000  Uiso   1.00
H630   H     0.56891   0.34679   0.75684   0.00000  Uiso   1.00
N631   N     0.64908   0.51407   0.76416   0.00000  Uiso   1.00
N632   N     0.35092   0.48593   0.73584   0.00000  Uiso   1.00
O633   O     0.46131   0.57141   0.74633   0.00000  Uiso   1.00
O634   O     0.56191   0.58089   0.75586   0.00000  Uiso   1.00
O635   O     0.42515   0.49293   0.81839   0.00000  Uiso   1.00
O636   O     0.52575   0.50241   0.82793   0.00000  Uiso   1.00
O637   O     0.43809   0.41911   0.74413   0.00000  Uiso   1.00
O638   O     0.53869   0.42859   0.75367   0.00000  Uiso   1.00
O639   O     0.47425   0.49759   0.67207   0.00000  Uiso   1.00
O640   O     0.57485   0.50707   0.68160   0.00000  Uiso   1.00
C641   C     0.66134   0.45306   0.69785   0.00000  Uiso   1.00
N642   N     0.64310   0.42533   0.66588   0.00000  Uiso   1.00
C643   C     0.33389   0.45127   0.89704   0.00000  Uiso   1.00
N644   N     0.62827   0.43616   0.87388   0.00000  Uiso   1.00
C645   C     0.84847   0.60007   0.75160   0.00000  Uiso   1.00
C646   C     0.80588   0.50074   0.98824   0.00000  Uiso   1.00
C647   C     0.82112   0.51627   0.93658   0.00000  Uiso   1.00
C648   C     0.85323   0.51332   0.51787   0.00000  Uiso   1.00
C649   C     0.91272   0.54557   0.99745   0.00000  Uiso   1.00
C650   C     0.92425   0.56552   0.94876   0.00000  Uiso   1.00
C651   C     0.87890   0.55193   0.91917   0.00000  Uiso   1.00
C652   C     0.84316   0.49497   0.56747   0.00000  Uiso   1.00
C653   C     0.94675   0.54252   0.57694   0.00000  Uiso   1.00
C654   C     0.77777   0.49655   0.90402   0.00000  Uiso   1.00
C655   C     0.85689   0.65612   0.75242   0.00000  Uiso   1.00
C656   C     0.79947   0.49846   0.84742   0.00000  Uiso   1.00
C657   C     0.80971   0.34389   0.74778   0.00000  Uiso   1.00
C658   C     0.81816   0.39993   0.74851   0.00000  Uiso   1.00
C659   C     0.86725   0.50361   0.65298   0.00000  Uiso   1.00
C660   C     0.95937   0.55897   0.52670   0.00000  Uiso   1.00
C661   C     0.88775   0.51177   0.59786   0.00000  Uiso   1.00
C662   C     0.71561   0.47014   0.92622   0.00000  Uiso   1.00
C663   C     0.69916   0.46057   0.97832   0.00000  Uiso   1.00
C664   C     0.74351   0.47441   0.50871   0.00000  Uiso   1.00
Cu665  Cu    0.77377   0.49439   0.74435   0.00000  Uiso   1.00
Cu666  Cu    0.89290   0.50561   0.75564   0.00000  Uiso   1.00
H667   H     0.98187   0.55578   0.60001   0.00000  Uiso   1.00
H668   H     0.76435   0.65322   0.74340   0.00000  Uiso   1.00
H669   H     0.66945   0.53818   0.79100   0.00000  Uiso   1.00
H670   H     0.96848   0.59207   0.93351   0.00000  Uiso   1.00
H671   H     0.67157   0.58357   0.51124   0.00000  Uiso   1.00
H672   H     0.80016   0.46830   0.58419   0.00000  Uiso   1.00
H673   H     0.72659   0.46540   0.54857   0.00000  Uiso   1.00
H674   H     0.98494   0.44100   0.99563   0.00000  Uiso   1.00
H675   H     0.88931   0.57120   0.88308   0.00000  Uiso   1.00
H676   H     0.90224   0.34679   0.75684   0.00000  Uiso   1.00
N677   N     0.98241   0.51407   0.76416   0.00000  Uiso   1.00
N678   N     0.68426   0.48593   0.73584   0.00000  Uiso   1.00
O679   O     0.79464   0.57141   0.74633   0.00000  Uiso   1.00
O680   O     0.89524   0.58089   0.75586   0.00000  Uiso   1.00
O681   O     0.75848   0.49293   0.81839   0.00000  Uiso   1.00
O682   O     0.85908   0.50241   0.82793   0.00000  Uiso   1.00
O683   O     0.77142   0.41911   0.74413   0.00000  Uiso   1.00
O684   O     0.87203   0.42859   0.75367   0.00000  Uiso   1.00
O685   O     0.80758   0.49759   0.67207   0.00000  Uiso   1.00
O686   O     0.90819   0.50707   0.68160   0.00000  Uiso   1.00
C687   C     0.99467   0.45306   0.69785   0.00000  Uiso   1.00
N688   N     0.97644   0.42533   0.66588   0.00000  Uiso   1.00
C689   C     0.66722   0.45127   0.89704   0.00000  Uiso   1.00
N690   N     0.96161   0.43616   0.87388   0.00000  Uiso   1.00
C691   C     0.18181   0.93340   0.75160   0.00000  Uiso   1.00
C692   C     0.13921   0.83407   0.98824   0.00000  Uiso   1.00
C693   C     0.15445   0.84960   0.93658   0.00000  Uiso   1.00
C694   C     0.18657   0.84665   0.51787   0.00000  Uiso   1.00
C695   C     0.24605   0.87891   0.99745   0.00000  Uiso   1.00
C696   C     0.25759   0.89885   0.94876   0.00000  Uiso   1.00
C697   C     0.21224   0.88526   0.91917   0.00000  Uiso   1.00
C698   C     0.17649   0.82830   0.56747   0.00000  Uiso   1.00
C699   C     0.28009   0.87586   0.57694   0.00000  Uiso   1.00
C700   C     0.11110   0.82988   0.90402   0.00000  Uiso   1.00
C701   C     0.19022   0.98945   0.75242   0.00000  Uiso   1.00
C702   C     0.13280   0.83180   0.84742   0.00000  Uiso   1.00
C703   C     0.14305   0.67722   0.74778   0.00000  Uiso   1.00
C704   C     0.15149   0.73327   0.74851   0.00000  Uiso   1.00
C705   C     0.20058   0.83694   0.65298   0.00000  Uiso   1.00
C706   C     0.29271   0.89231   0.52670   0.00000  Uiso   1.00
C707   C     0.22109   0.84510   0.59786   0.00000  Uiso   1.00
C708   C     0.04894   0.80347   0.92622   0.00000  Uiso   1.00
C709   C     0.03250   0.79391   0.97832   0.00000  Uiso   1.00
C710   C     0.07684   0.80774   0.50871   0.00000  Uiso   1.00
Cu711  Cu    0.10710   0.82772   0.74435   0.00000  Uiso   1.00
Cu712  Cu    0.22623   0.83895   0.75564   0.00000  Uiso   1.00
H713   H     0.31520   0.88912   0.60001   0.00000  Uiso   1.00
H714   H     0.09768   0.98655   0.74340   0.00000  Uiso   1.00
H715   H     0.00278   0.87151   0.79100   0.00000  Uiso   1.00
H716   H     0.30181   0.92540   0.93351   0.00000  Uiso   1.00
H717   H     0.00490   0.91691   0.51124   0.00000  Uiso   1.00
H718   H     0.13350   0.80164   0.58419   0.00000  Uiso   1.00
H719   H     0.05992   0.79873   0.54857   0.00000  Uiso   1.00
H720   H     0.31827   0.77433   0.99563   0.00000  Uiso   1.00
H721   H     0.22265   0.90454   0.88308   0.00000  Uiso   1.00
H722   H     0.23558   0.68012   0.75684   0.00000  Uiso   1.00
N723   N     0.31574   0.84741   0.76416   0.00000  Uiso   1.00
N724   N     0.01759   0.81926   0.73584   0.00000  Uiso   1.00
O725   O     0.12797   0.90474   0.74633   0.00000  Uiso   1.00
O726   O     0.22858   0.91422   0.75586   0.00000  Uiso   1.00
O727   O     0.09181   0.82627   0.81839   0.00000  Uiso   1.00
O728   O     0.19242   0.83575   0.82793   0.00000  Uiso   1.00
O729   O     0.10476   0.75245   0.74413   0.00000  Uiso   1.00
O730   O     0.20536   0.76193   0.75367   0.00000  Uiso   1.00
O731   O     0.14092   0.83092   0.67207   0.00000  Uiso   1.00
O732   O     0.24152   0.84040   0.68160   0.00000  Uiso   1.00
C733   C     0.32801   0.78639   0.69785   0.00000  Uiso   1.00
N734   N     0.30977   0.75866   0.66588   0.00000  Uiso   1.00
C735   C     0.00055   0.78460   0.89704   0.00000  Uiso   1.00
N736   N     0.29494   0.76949   0.87388   0.00000  Uiso   1.00
C737   C     0.51514   0.93340   0.75160   0.00000  Uiso   1.00
C738   C     0.47255   0.83407   0.98824   0.00000  Uiso   1.00
C739   C     0.48778   0.84960   0.93658   0.00000  Uiso   1.00
C740   C     0.51990   0.84665   0.51787   0.00000  Uiso   1.00
C741   C     0.57939   0.87891   0.99745   0.00000  Uiso   1.00
C742   C     0.59092   0.89885   0.94876   0.00000  Uiso   1.00
C743   C     0.54557   0.88526   0.91917   0.00000  Uiso   1.00
C744   C     0.50982   0.82830   0.56747   0.00000  Uiso   1.00
C745   C     0.61342   0.87586   0.57694   0.00000  Uiso   1.00
C746   C     0.44443   0.82988   0.90402   0.00000  Uiso   1.00
C747   C     0.52355   0.98945   0.75242   0.00000  Uiso   1.00
C748   C     0.46614   0.83180   0.84742   0.00000  Uiso   1.00
C749   C     0.47638   0.67722   0.74778   0.00000  Uiso   1.00
C750   C     0.48482   0.73327   0.74851   0.00000  Uiso   1.00
C751   C     0.53391   0.83694   0.65298   0.00000  Uiso   1.00
C752   C     0.62604   0.89231   0.52670   0.00000  Uiso   1.00
C753   C     0.55442   0.84510   0.59786   0.00000  Uiso   1.00
C754   C     0.38227   0.80347   0.92622   0.00000  Uiso   1.00
C755   C     0.36583   0.79391   0.97832   0.00000  Uiso   1.00
C756   C     0.41017   0.80774   0.50871   0.00000  Uiso   1.00
Cu757  Cu    0.44043   0.82772   0.74435   0.00000  Uiso   1.00
Cu758  Cu    0.55957   0.83895   0.75564   0.00000  Uiso   1.00
H759   H     0.64853   0.88912   0.60001   0.00000  Uiso   1.00
H760   H     0.43101   0.98655   0.74340   0.00000  Uiso   1.00
H761   H     0.33611   0.87151   0.79100   0.00000  Uiso   1.00
H762   H     0.63515   0.92540   0.93351   0.00000  Uiso   1.00
H763   H     0.33823   0.91691   0.51124   0.00000  Uiso   1.00
H764   H     0.46683   0.80164   0.58419   0.00000  Uiso   1.00
H765   H     0.39326   0.79873   0.54857   0.00000  Uiso   1.00
H766   H     0.65160   0.77433   0.99563   0.00000  Uiso   1.00
H767   H     0.55598   0.90454   0.88308   0.00000  Uiso   1.00
H768   H     0.56891   0.68012   0.75684   0.00000  Uiso   1.00
N769   N     0.64908   0.84741   0.76416   0.00000  Uiso   1.00
N770   N     0.35092   0.81926   0.73584   0.00000  Uiso   1.00
O771   O     0.46131   0.90474   0.74633   0.00000  Uiso   1.00
O772   O     0.56191   0.91422   0.75586   0.00000  Uiso   1.00
O773   O     0.42515   0.82627   0.81839   0.00000  Uiso   1.00
O774   O     0.52575   0.83575   0.82793   0.00000  Uiso   1.00
O775   O     0.43809   0.75245   0.74413   0.00000  Uiso   1.00
O776   O     0.53869   0.76193   0.75367   0.00000  Uiso   1.00
O777   O     0.47425   0.83092   0.67207   0.00000  Uiso   1.00
O778   O     0.57485   0.84040   0.68160   0.00000  Uiso   1.00
C779   C     0.66134   0.78639   0.69785   0.00000  Uiso   1.00
N780   N     0.64310   0.75866   0.66588   0.00000  Uiso   1.00
C781   C     0.33389   0.78460   0.89704   0.00000  Uiso   1.00
N782   N     0.62827   0.76949   0.87388   0.00000  Uiso   1.00
C783   C     0.84847   0.93340   0.75160   0.00000  Uiso   1.00
C784   C     0.80588   0.83407   0.98824   0.00000  Uiso   1.00
C785   C     0.82112   0.84960   0.93658   0.00000  Uiso   1.00
C786   C     0.85323   0.84665   0.51787   0.00000  Uiso   1.00
C787   C     0.91272   0.87891   0.99745   0.00000  Uiso   1.00
C788   C     0.92425   0.89885   0.94876   0.00000  Uiso   1.00
C789   C     0.87890   0.88526   0.91917   0.00000  Uiso   1.00
C790   C     0.84316   0.82830   0.56747   0.00000  Uiso   1.00
C791   C     0.94675   0.87586   0.57694   0.00000  Uiso   1.00
C792   C     0.77777   0.82988   0.90402   0.00000  Uiso   1.00
C793   C     0.85689   0.98945   0.75242   0.00000  Uiso   1.00
C794   C     0.79947   0.83180   0.84742   0.00000  Uiso   1.00
C795   C     0.80971   0.67722   0.74778   0.00000  Uiso   1.00
C796   C     0.81816   0.73327   0.74851   0.00000  Uiso   1.00
C797   C     0.86725   0.83694   0.65298   0.00000  Uiso   1.00
C798   C     0.95937   0.89231   0.52670   0.00000  Uiso   1.00
C799   C     0.88775   0.84510   0.59786   0.00000  Uiso   1.00
C800   C     0.71561   0.80347   0.92622   0.00000  Uiso   1.00
C801   C     0.69916   0.79391   0.97832   0.00000  Uiso   1.00
C802   C     0.74351   0.80774   0.50871   0.00000  Uiso   1.00
Cu803  Cu    0.77377   0.82772   0.74435   0.00000  Uiso   1.00
Cu804  Cu    0.89290   0.83895   0.75564   0.00000  Uiso   1.00
H805   H     0.98187   0.88912   0.60001   0.00000  Uiso   1.00
H806   H     0.76435   0.98655   0.74340   0.00000  Uiso   1.00
H807   H     0.66945   0.87151   0.79100   0.00000  Uiso   1.00
H808   H     0.96848   0.92540   0.93351   0.00000  Uiso   1.00
H809   H     0.67157   0.91691   0.51124   0.00000  Uiso   1.00
H810   H     0.80016   0.80164   0.58419   0.00000  Uiso   1.00
H811   H     0.72659   0.79873   0.54857   0.00000  Uiso   1.00
H812   H     0.98494   0.77433   0.99563   0.00000  Uiso   1.00
H813   H     0.88931   0.90454   0.88308   0.00000  Uiso   1.00
H814   H     0.90224   0.68012   0.75684   0.00000  Uiso   1.00
N815   N     0.98241   0.84741   0.76416   0.00000  Uiso   1.00
N816   N     0.68426   0.81926   0.73584   0.00000  Uiso   1.00
O817   O     0.79464   0.90474   0.74633   0.00000  Uiso   1.00
O818   O     0.89524   0.91422   0.75586   0.00000  Uiso   1.00
O819   O     0.75848   0.82627   0.81839   0.00000  Uiso   1.00
O820   O     0.85908   0.83575   0.82793   0.00000  Uiso   1.00
O821   O     0.77142   0.75245   0.74413   0.00000  Uiso   1.00
O822   O     0.87203   0.76193   0.75367   0.00000  Uiso   1.00
O823   O     0.80758   0.83092   0.67207   0.00000  Uiso   1.00
O824   O     0.90819   0.84040   0.68160   0.00000  Uiso   1.00
C825   C     0.99467   0.78639   0.69785   0.00000  Uiso   1.00
N826   N     0.97644   0.75866   0.66588   0.00000  Uiso   1.00
C827   C     0.66722   0.78460   0.89704   0.00000  Uiso   1.00
N828   N     0.96161   0.76949   0.87388   0.00000  Uiso   1.00
loop_
_geom_bond_atom_site_label_1
_geom_bond_atom_site_label_2
_geom_bond_distance
_geom_bond_site_symmetry_2
_ccdc_geom_bond_type
C1     O36     1.290   .     A
C1     O35     1.293   .     A
C1     C11     1.429   .     S
C2     C3      1.419   .     A
C2     C418    1.425   .     S
C2     C434    1.414   .     S
C3     C10     1.427   .     A
C3     C7      1.415   .     A
C4     C8      1.402   .     A
C4     C416    1.425   1_554 S
C4     C419    1.419   1_554 S
C5     C6      1.392   .     A
C5     C418    1.419   .     S
C5     C430    1.405   .     S
C6     C7      1.388   .     A
C6     H26     1.084   .     S
C7     H31     1.080   .     S
C8     H28     1.077   .     S
C8     C17     1.396   .     A
C9     C17     1.398   .     A
C9     C16     1.394   .     A
C9     H23     1.083   .     S
C10    C12     1.488   .     S
C10    C18     1.421   .     A
C11    C151    1.331   .     S
C11    H170    1.088   .     S
C12    O38     1.304   .     A
C12    O37     1.305   .     A
C13    C14     1.429   .     S
C13    C287    1.331   1_545 S
C13    H300    1.088   1_545 S
C14    O39     1.290   .     A
C14    O40     1.293   .     A
C15    O42     1.302   .     A
C15    O41     1.297   .     A
C15    C17     1.464   .     S
C16    C419    1.405   1_554 S
C16    H73     1.084   .     S
C18    C45     1.446   .     S
C18    C19     1.390   .     A
C19    C434    1.386   .     S
C19    H122    1.085   1_455 S
C20    H29     1.077   .     S
C20    C416    1.414   1_554 S
C20    C433    1.386   1_554 S
Cu21   O35     1.953   .     S
Cu21   O39     1.951   .     S
Cu21   O41     1.918   .     S
Cu21   O37     1.939   .     S
Cu21   N34     2.025   .     S
Cu21   Cu22    2.695   .     S
Cu22   O36     1.951   .     S
Cu22   O40     1.953   .     S
Cu22   O42     1.939   .     S
Cu22   O38     1.918   .     S
Cu22   N33     2.025   .     S
H24    C151    1.088   .     S
H25    N125    1.029   1_455 S
H27    C108    1.084   1_455 S
H30    C65     1.085   .     S
H32    C287    1.088   1_545 S
N33    H71     1.029   .     S
N33    N80     1.284   .     S
N34    N125    1.284   1_455 S
N34    C135    1.386   1_455 S
C43    N44     1.158   .     T
C43    N80     1.386   .     S
C45    N138    1.158   1_455 S
N46    C91     1.158   .     S
C47    O82     1.290   .     A
C47    O81     1.293   .     A
C47    C57     1.429   .     S
C48    C49     1.419   .     A
C48    C464    1.425   .     S
C48    C480    1.414   .     S
C49    C56     1.427   .     A
C49    C53     1.415   .     A
C50    C54     1.402   .     A
C50    C462    1.425   1_554 S
C50    C465    1.419   1_554 S
C51    C52     1.392   .     A
C51    C464    1.419   .     S
C51    C476    1.405   .     S
C52    C53     1.388   .     A
C52    H72     1.084   .     S
C53    H77     1.080   .     S
C54    H74     1.077   .     S
C54    C63     1.396   .     A
C55    C63     1.398   .     A
C55    C62     1.394   .     A
C55    H69     1.083   .     S
C56    C58     1.488   .     S
C56    C64     1.421   .     A
C57    C197    1.331   .     S
C57    H216    1.088   .     S
C58    O84     1.304   .     A
C58    O83     1.305   .     A
C59    C60     1.429   .     S
C59    C333    1.331   1_545 S
C59    H346    1.088   1_545 S
C60    O85     1.290   .     A
C60    O86     1.293   .     A
C61    O88     1.302   .     A
C61    O87     1.297   .     A
C61    C63     1.464   .     S
C62    C465    1.405   1_554 S
C62    H119    1.084   .     S
C64    C91     1.446   .     S
C64    C65     1.390   .     A
C65    C480    1.386   .     S
C66    H75     1.077   .     S
C66    C462    1.414   1_554 S
C66    C479    1.386   1_554 S
Cu67   O81     1.953   .     S
Cu67   O85     1.951   .     S
Cu67   O87     1.918   .     S
Cu67   O83     1.939   .     S
Cu67   N80     2.025   .     S
Cu67   Cu68    2.695   .     S
Cu68   O82     1.951   .     S
Cu68   O86     1.953   .     S
Cu68   O88     1.939   .     S
Cu68   O84     1.918   .     S
Cu68   N79     2.025   .     S
H70    C197    1.088   .     S
H76    C111    1.085   .     S
H78    C333    1.088   1_545 S
N79    H117    1.029   .     S
N79    N126    1.284   .     S
C89    N90     1.158   .     T
C89    N126    1.386   .     S
N92    C137    1.158   .     S
C93    O128    1.290   .     A
C93    O127    1.293   .     A
C93    C103    1.429   .     S
C94    C95     1.419   .     A
C94    C510    1.425   .     S
C94    C526    1.414   .     S
C95    C102    1.427   .     A
C95    C99     1.415   .     A
C96    C100    1.402   .     A
C96    C508    1.425   1_554 S
C96    C511    1.419   1_554 S
C97    C98     1.392   .     A
C97    C510    1.419   .     S
C97    C522    1.405   .     S
C98    C99     1.388   .     A
C98    H118    1.084   .     S
C99    H123    1.080   .     S
C100   H120    1.077   .     S
C100   C109    1.396   .     A
C101   C109    1.398   .     A
C101   C108    1.394   .     A
C101   H115    1.083   .     S
C102   C104    1.488   .     S
C102   C110    1.421   .     A
C103   C243    1.331   .     S
C103   H262    1.088   .     S
C104   O130    1.304   .     A
C104   O129    1.305   .     A
C105   C106    1.429   .     S
C105   C379    1.331   1_545 S
C105   H392    1.088   1_545 S
C106   O131    1.290   .     A
C106   O132    1.293   .     A
C107   O134    1.302   .     A
C107   O133    1.297   .     A
C107   C109    1.464   .     S
C108   C511    1.405   1_554 S
C108   H27     1.084   1_655 S
C110   C137    1.446   .     S
C110   C111    1.390   .     A
C111   C526    1.386   .     S
C112   H121    1.077   .     S
C112   C508    1.414   1_554 S
C112   C525    1.386   1_554 S
Cu113  O127    1.953   .     S
Cu113  O131    1.951   .     S
Cu113  O133    1.918   .     S
Cu113  O129    1.939   .     S
Cu113  N126    2.025   .     S
Cu113  Cu114   2.695   .     S
Cu114  O128    1.951   .     S
Cu114  O132    1.953   .     S
Cu114  O134    1.939   .     S
Cu114  O130    1.918   .     S
Cu114  N125    2.025   .     S
H116   C243    1.088   .     S
H122   C19     1.085   1_655 S
H124   C379    1.088   1_545 S
N125   H25     1.029   1_655 S
N125   N34     1.284   1_655 S
C135   N136    1.158   .     T
C135   N34     1.386   1_655 S
N138   C45     1.158   1_655 S
C139   O174    1.290   .     A
C139   O173    1.293   .     A
C139   C149    1.429   .     S
C140   C141    1.419   .     A
C140   C556    1.425   .     S
C140   C572    1.414   .     S
C141   C148    1.427   .     A
C141   C145    1.415   .     A
C142   C146    1.402   .     A
C142   C554    1.425   1_554 S
C142   C557    1.419   1_554 S
C143   C144    1.392   .     A
C143   C556    1.419   .     S
C143   C568    1.405   .     S
C144   C145    1.388   .     A
C144   H164    1.084   .     S
C145   H169    1.080   .     S
C146   H166    1.077   .     S
C146   C155    1.396   .     A
C147   C155    1.398   .     A
C147   C154    1.394   .     A
C147   H161    1.083   .     S
C148   C150    1.488   .     S
C148   C156    1.421   .     A
C149   C289    1.331   .     S
C149   H308    1.088   .     S
C150   O176    1.304   .     A
C150   O175    1.305   .     A
C151   C152    1.429   .     S
C152   O177    1.290   .     A
C152   O178    1.293   .     A
C153   O180    1.302   .     A
C153   O179    1.297   .     A
C153   C155    1.464   .     S
C154   C557    1.405   1_554 S
C154   H211    1.084   .     S
C156   C183    1.446   .     S
C156   C157    1.390   .     A
C157   C572    1.386   .     S
C157   H260    1.085   1_455 S
C158   H167    1.077   .     S
C158   C554    1.414   1_554 S
C158   C571    1.386   1_554 S
Cu159  O173    1.953   .     S
Cu159  O177    1.951   .     S
Cu159  O179    1.918   .     S
Cu159  O175    1.939   .     S
Cu159  N172    2.025   .     S
Cu159  Cu160   2.695   .     S
Cu160  O174    1.951   .     S
Cu160  O178    1.953   .     S
Cu160  O180    1.939   .     S
Cu160  O176    1.918   .     S
Cu160  N171    2.025   .     S
H162   C289    1.088   .     S
H163   N263    1.029   1_455 S
H165   C246    1.084   1_455 S
H168   C203    1.085   .     S
N171   H209    1.029   .     S
N171   N218    1.284   .     S
N172   N263    1.284   1_455 S
N172   C273    1.386   1_455 S
C181   N182    1.158   .     T
C181   N218    1.386   .     S
C183   N276    1.158   1_455 S
N184   C229    1.158   .     S
C185   O220    1.290   .     A
C185   O219    1.293   .     A
C185   C195    1.429   .     S
C186   C187    1.419   .     A
C186   C602    1.425   .     S
C186   C618    1.414   .     S
C187   C194    1.427   .     A
C187   C191    1.415   .     A
C188   C192    1.402   .     A
C188   C600    1.425   1_554 S
C188   C603    1.419   1_554 S
C189   C190    1.392   .     A
C189   C602    1.419   .     S
C189   C614    1.405   .     S
C190   C191    1.388   .     A
C190   H210    1.084   .     S
C191   H215    1.080   .     S
C192   H212    1.077   .     S
C192   C201    1.396   .     A
C193   C201    1.398   .     A
C193   C200    1.394   .     A
C193   H207    1.083   .     S
C194   C196    1.488   .     S
C194   C202    1.421   .     A
C195   C335    1.331   .     S
C195   H354    1.088   .     S
C196   O222    1.304   .     A
C196   O221    1.305   .     A
C197   C198    1.429   .     S
C198   O223    1.290   .     A
C198   O224    1.293   .     A
C199   O226    1.302   .     A
C199   O225    1.297   .     A
C199   C201    1.464   .     S
C200   C603    1.405   1_554 S
C200   H257    1.084   .     S
C202   C229    1.446   .     S
C202   C203    1.390   .     A
C203   C618    1.386   .     S
C204   H213    1.077   .     S
C204   C600    1.414   1_554 S
C204   C617    1.386   1_554 S
Cu205  O219    1.953   .     S
Cu205  O223    1.951   .     S
Cu205  O225    1.918   .     S
Cu205  O221    1.939   .     S
Cu205  N218    2.025   .     S
Cu205  Cu206   2.695   .     S
Cu206  O220    1.951   .     S
Cu206  O224    1.953   .     S
Cu206  O226    1.939   .     S
Cu206  O222    1.918   .     S
Cu206  N217    2.025   .     S
H208   C335    1.088   .     S
H214   C249    1.085   .     S
N217   H255    1.029   .     S
N217   N264    1.284   .     S
C227   N228    1.158   .     T
C227   N264    1.386   .     S
N230   C275    1.158   .     S
C231   O266    1.290   .     A
C231   O265    1.293   .     A
C231   C241    1.429   .     S
C232   C233    1.419   .     A
C232   C648    1.425   .     S
C232   C664    1.414   .     S
C233   C240    1.427   .     A
C233   C237    1.415   .     A
C234   C238    1.402   .     A
C234   C646    1.425   1_554 S
C234   C649    1.419   1_554 S
C235   C236    1.392   .     A
C235   C648    1.419   .     S
C235   C660    1.405   .     S
C236   C237    1.388   .     A
C236   H256    1.084   .     S
C237   H261    1.080   .     S
C238   H258    1.077   .     S
C238   C247    1.396   .     A
C239   C247    1.398   .     A
C239   C246    1.394   .     A
C239   H253    1.083   .     S
C240   C242    1.488   .     S
C240   C248    1.421   .     A
C241   C381    1.331   .     S
C241   H400    1.088   .     S
C242   O268    1.304   .     A
C242   O267    1.305   .     A
C243   C244    1.429   .     S
C244   O269    1.290   .     A
C244   O270    1.293   .     A
C245   O272    1.302   .     A
C245   O271    1.297   .     A
C245   C247    1.464   .     S
C246   C649    1.405   1_554 S
C246   H165    1.084   1_655 S
C248   C275    1.446   .     S
C248   C249    1.390   .     A
C249   C664    1.386   .     S
C250   H259    1.077   .     S
C250   C646    1.414   1_554 S
C250   C663    1.386   1_554 S
Cu251  O265    1.953   .     S
Cu251  O269    1.951   .     S
Cu251  O271    1.918   .     S
Cu251  O267    1.939   .     S
Cu251  N264    2.025   .     S
Cu251  Cu252   2.695   .     S
Cu252  O266    1.951   .     S
Cu252  O270    1.953   .     S
Cu252  O272    1.939   .     S
Cu252  O268    1.918   .     S
Cu252  N263    2.025   .     S
H254   C381    1.088   .     S
H260   C157    1.085   1_655 S
N263   H163    1.029   1_655 S
N263   N172    1.284   1_655 S
C273   N274    1.158   .     T
C273   N172    1.386   1_655 S
N276   C183    1.158   1_655 S
C277   O312    1.290   .     A
C277   O311    1.293   .     A
C277   C287    1.429   .     S
C278   C279    1.419   .     A
C278   C694    1.425   .     S
C278   C710    1.414   .     S
C279   C286    1.427   .     A
C279   C283    1.415   .     A
C280   C284    1.402   .     A
C280   C692    1.425   1_554 S
C280   C695    1.419   1_554 S
C281   C282    1.392   .     A
C281   C694    1.419   .     S
C281   C706    1.405   .     S
C282   C283    1.388   .     A
C282   H302    1.084   .     S
C283   H307    1.080   .     S
C284   H304    1.077   .     S
C284   C293    1.396   .     A
C285   C293    1.398   .     A
C285   C292    1.394   .     A
C285   H299    1.083   .     S
C286   C288    1.488   .     S
C286   C294    1.421   .     A
C287   C13     1.331   1_565 S
C287   H32     1.088   1_565 S
C288   O314    1.304   .     A
C288   O313    1.305   .     A
C289   C290    1.429   .     S
C290   O315    1.290   .     A
C290   O316    1.293   .     A
C291   O318    1.302   .     A
C291   O317    1.297   .     A
C291   C293    1.464   .     S
C292   C695    1.405   1_554 S
C292   H349    1.084   .     S
C294   C321    1.446   .     S
C294   C295    1.390   .     A
C295   C710    1.386   .     S
C295   H398    1.085   1_455 S
C296   H305    1.077   .     S
C296   C692    1.414   1_554 S
C296   C709    1.386   1_554 S
Cu297  O311    1.953   .     S
Cu297  O315    1.951   .     S
Cu297  O317    1.918   .     S
Cu297  O313    1.939   .     S
Cu297  N310    2.025   .     S
Cu297  Cu298   2.695   .     S
Cu298  O312    1.951   .     S
Cu298  O316    1.953   .     S
Cu298  O318    1.939   .     S
Cu298  O314    1.918   .     S
Cu298  N309    2.025   .     S
H300   C13     1.088   1_565 S
H301   N401    1.029   1_455 S
H303   C384    1.084   1_455 S
H306   C341    1.085   .     S
N309   H347    1.029   .     S
N309   N356    1.284   .     S
N310   N401    1.284   1_455 S
N310   C411    1.386   1_455 S
C319   N320    1.158   .     T
C319   N356    1.386   .     S
C321   N414    1.158   1_455 S
N322   C367    1.158   .     S
C323   O358    1.290   .     A
C323   O357    1.293   .     A
C323   C333    1.429   .     S
C324   C325    1.419   .     A
C324   C740    1.425   .     S
C324   C756    1.414   .     S
C325   C332    1.427   .     A
C325   C329    1.415   .     A
C326   C330    1.402   .     A
C326   C738    1.425   1_554 S
C326   C741    1.419   1_554 S
C327   C328    1.392   .     A
C327   C740    1.419   .     S
C327   C752    1.405   .     S
C328   C329    1.388   .     A
C328   H348    1.084   .     S
C329   H353    1.080   .     S
C330   H350    1.077   .     S
C330   C339    1.396   .     A
C331   C339    1.398   .     A
C331   C338    1.394   .     A
C331   H345    1.083   .     S
C332   C334    1.488   .     S
C332   C340    1.421   .     A
C333   C59     1.331   1_565 S
C333   H78     1.088   1_565 S
C334   O360    1.304   .     A
C334   O359    1.305   .     A
C335   C336    1.429   .     S
C336   O361    1.290   .     A
C336   O362    1.293   .     A
C337   O364    1.302   .     A
C337   O363    1.297   .     A
C337   C339    1.464   .     S
C338   C741    1.405   1_554 S
C338   H395    1.084   .     S
C340   C367    1.446   .     S
C340   C341    1.390   .     A
C341   C756    1.386   .     S
C342   H351    1.077   .     S
C342   C738    1.414   1_554 S
C342   C755    1.386   1_554 S
Cu343  O357    1.953   .     S
Cu343  O361    1.951   .     S
Cu343  O363    1.918   .     S
Cu343  O359    1.939   .     S
Cu343  N356    2.025   .     S
Cu343  Cu344   2.695   .     S
Cu344  O358    1.951   .     S
Cu344  O362    1.953   .     S
Cu344  O364    1.939   .     S
Cu344  O360    1.918   .     S
Cu344  N355    2.025   .     S
H346   C59     1.088   1_565 S
H352   C387    1.085   .     S
N355   H393    1.029   .     S
N355   N402    1.284   .     S
C365   N366    1.158   .     T
C365   N402    1.386   .     S
N368   C413    1.158   .     S
C369   O404    1.290   .     A
C369   O403    1.293   .     A
C369   C379    1.429   .     S
C370   C371    1.419   .     A
C370   C786    1.425   .     S
C370   C802    1.414   .     S
C371   C378    1.427   .     A
C371   C375    1.415   .     A
C372   C376    1.402   .     A
C372   C784    1.425   1_554 S
C372   C787    1.419   1_554 S
C373   C374    1.392   .     A
C373   C786    1.419   .     S
C373   C798    1.405   .     S
C374   C375    1.388   .     A
C374   H394    1.084   .     S
C375   H399    1.080   .     S
C376   H396    1.077   .     S
C376   C385    1.396   .     A
C377   C385    1.398   .     A
C377   C384    1.394   .     A
C377   H391    1.083   .     S
C378   C380    1.488   .     S
C378   C386    1.421   .     A
C379   C105    1.331   1_565 S
C379   H124    1.088   1_565 S
C380   O406    1.304   .     A
C380   O405    1.305   .     A
C381   C382    1.429   .     S
C382   O407    1.290   .     A
C382   O408    1.293   .     A
C383   O410    1.302   .     A
C383   O409    1.297   .     A
C383   C385    1.464   .     S
C384   C787    1.405   1_554 S
C384   H303    1.084   1_655 S
C386   C413    1.446   .     S
C386   C387    1.390   .     A
C387   C802    1.386   .     S
C388   H397    1.077   .     S
C388   C784    1.414   1_554 S
C388   C801    1.386   1_554 S
Cu389  O403    1.953   .     S
Cu389  O407    1.951   .     S
Cu389  O409    1.918   .     S
Cu389  O405    1.939   .     S
Cu389  N402    2.025   .     S
Cu389  Cu390   2.695   .     S
Cu390  O404    1.951   .     S
Cu390  O408    1.953   .     S
Cu390  O410    1.939   .     S
Cu390  O406    1.918   .     S
Cu390  N401    2.025   .     S
H392   C105    1.088   1_565 S
H398   C295    1.085   1_655 S
N401   H301    1.029   1_655 S
N401   N310    1.284   1_655 S
C411   N412    1.158   .     T
C411   N310    1.386   1_655 S
N414   C321    1.158   1_655 S
C415   O450    1.290   .     A
C415   O449    1.293   .     A
C415   C425    1.429   .     S
C416   C417    1.419   .     A
C416   C4      1.425   1_556 S
C416   C20     1.414   1_556 S
C417   C424    1.427   .     A
C417   C421    1.415   .     A
C418   C422    1.402   .     A
C419   C420    1.392   .     A
C419   C4      1.419   1_556 S
C419   C16     1.405   1_556 S
C420   C421    1.388   .     A
C420   H440    1.084   .     S
C421   H445    1.080   .     S
C422   H442    1.077   .     S
C422   C431    1.396   .     A
C423   C431    1.398   .     A
C423   C430    1.394   .     A
C423   H437    1.083   .     S
C424   C426    1.488   .     S
C424   C432    1.421   .     A
C425   C565    1.331   .     S
C425   H584    1.088   .     S
C426   O452    1.304   .     A
C426   O451    1.305   .     A
C427   C428    1.429   .     S
C427   C701    1.331   1_545 S
C427   H714    1.088   1_545 S
C428   O453    1.290   .     A
C428   O454    1.293   .     A
C429   O456    1.302   .     A
C429   O455    1.297   .     A
C429   C431    1.464   .     S
C430   H487    1.084   .     S
C432   C459    1.446   .     S
C432   C433    1.390   .     A
C433   C20     1.386   1_556 S
C433   H536    1.085   1_455 S
C434   H443    1.077   .     S
Cu435  O449    1.953   .     S
Cu435  O453    1.951   .     S
Cu435  O455    1.918   .     S
Cu435  O451    1.939   .     S
Cu435  N448    2.025   .     S
Cu435  Cu436   2.695   .     S
Cu436  O450    1.951   .     S
Cu436  O454    1.953   .     S
Cu436  O456    1.939   .     S
Cu436  O452    1.918   .     S
Cu436  N447    2.025   .     S
H438   C565    1.088   .     S
H439   N539    1.029   1_455 S
H441   C522    1.084   1_455 S
H444   C479    1.085   .     S
H446   C701    1.088   1_545 S
N447   H485    1.029   .     S
N447   N494    1.284   .     S
N448   N539    1.284   1_455 S
N448   C549    1.386   1_455 S
C457   N458    1.158   .     T
C457   N494    1.386   .     S
C459   N552    1.158   1_455 S
N460   C505    1.158   .     S
C461   O496    1.290   .     A
C461   O495    1.293   .     A
C461   C471    1.429   .     S
C462   C463    1.419   .     A
C462   C50     1.425   1_556 S
C462   C66     1.414   1_556 S
C463   C470    1.427   .     A
C463   C467    1.415   .     A
C464   C468    1.402   .     A
C465   C466    1.392   .     A
C465   C50     1.419   1_556 S
C465   C62     1.405   1_556 S
C466   C467    1.388   .     A
C466   H486    1.084   .     S
C467   H491    1.080   .     S
C468   H488    1.077   .     S
C468   C477    1.396   .     A
C469   C477    1.398   .     A
C469   C476    1.394   .     A
C469   H483    1.083   .     S
C470   C472    1.488   .     S
C470   C478    1.421   .     A
C471   C611    1.331   .     S
C471   H630    1.088   .     S
C472   O498    1.304   .     A
C472   O497    1.305   .     A
C473   C474    1.429   .     S
C473   C747    1.331   1_545 S
C473   H760    1.088   1_545 S
C474   O499    1.290   .     A
C474   O500    1.293   .     A
C475   O502    1.302   .     A
C475   O501    1.297   .     A
C475   C477    1.464   .     S
C476   H533    1.084   .     S
C478   C505    1.446   .     S
C478   C479    1.390   .     A
C479   C66     1.386   1_556 S
C480   H489    1.077   .     S
Cu481  O495    1.953   .     S
Cu481  O499    1.951   .     S
Cu481  O501    1.918   .     S
Cu481  O497    1.939   .     S
Cu481  N494    2.025   .     S
Cu481  Cu482   2.695   .     S
Cu482  O496    1.951   .     S
Cu482  O500    1.953   .     S
Cu482  O502    1.939   .     S
Cu482  O498    1.918   .     S
Cu482  N493    2.025   .     S
H484   C611    1.088   .     S
H490   C525    1.085   .     S
H492   C747    1.088   1_545 S
N493   H531    1.029   .     S
N493   N540    1.284   .     S
C503   N504    1.158   .     T
C503   N540    1.386   .     S
N506   C551    1.158   .     S
C507   O542    1.290   .     A
C507   O541    1.293   .     A
C507   C517    1.429   .     S
C508   C509    1.419   .     A
C508   C96     1.425   1_556 S
C508   C112    1.414   1_556 S
C509   C516    1.427   .     A
C509   C513    1.415   .     A
C510   C514    1.402   .     A
C511   C512    1.392   .     A
C511   C96     1.419   1_556 S
C511   C108    1.405   1_556 S
C512   C513    1.388   .     A
C512   H532    1.084   .     S
C513   H537    1.080   .     S
C514   H534    1.077   .     S
C514   C523    1.396   .     A
C515   C523    1.398   .     A
C515   C522    1.394   .     A
C515   H529    1.083   .     S
C516   C518    1.488   .     S
C516   C524    1.421   .     A
C517   C657    1.331   .     S
C517   H676    1.088   .     S
C518   O544    1.304   .     A
C518   O543    1.305   .     A
C519   C520    1.429   .     S
C519   C793    1.331   1_545 S
C519   H806    1.088   1_545 S
C520   O545    1.290   .     A
C520   O546    1.293   .     A
C521   O548    1.302   .     A
C521   O547    1.297   .     A
C521   C523    1.464   .     S
C522   H441    1.084   1_655 S
C524   C551    1.446   .     S
C524   C525    1.390   .     A
C525   C112    1.386   1_556 S
C526   H535    1.077   .     S
Cu527  O541    1.953   .     S
Cu527  O545    1.951   .     S
Cu527  O547    1.918   .     S
Cu527  O543    1.939   .     S
Cu527  N540    2.025   .     S
Cu527  Cu528   2.695   .     S
Cu528  O542    1.951   .     S
Cu528  O546    1.953   .     S
Cu528  O548    1.939   .     S
Cu528  O544    1.918   .     S
Cu528  N539    2.025   .     S
H530   C657    1.088   .     S
H536   C433    1.085   1_655 S
H538   C793    1.088   1_545 S
N539   H439    1.029   1_655 S
N539   N448    1.284   1_655 S
C549   N550    1.158   .     T
C549   N448    1.386   1_655 S
N552   C459    1.158   1_655 S
C553   O588    1.290   .     A
C553   O587    1.293   .     A
C553   C563    1.429   .     S
C554   C555    1.419   .     A
C554   C142    1.425   1_556 S
C554   C158    1.414   1_556 S
C555   C562    1.427   .     A
C555   C559    1.415   .     A
C556   C560    1.402   .     A
C557   C558    1.392   .     A
C557   C142    1.419   1_556 S
C557   C154    1.405   1_556 S
C558   C559    1.388   .     A
C558   H578    1.084   .     S
C559   H583    1.080   .     S
C560   H580    1.077   .     S
C560   C569    1.396   .     A
C561   C569    1.398   .     A
C561   C568    1.394   .     A
C561   H575    1.083   .     S
C562   C564    1.488   .     S
C562   C570    1.421   .     A
C563   C703    1.331   .     S
C563   H722    1.088   .     S
C564   O590    1.304   .     A
C564   O589    1.305   .     A
C565   C566    1.429   .     S
C566   O591    1.290   .     A
C566   O592    1.293   .     A
C567   O594    1.302   .     A
C567   O593    1.297   .     A
C567   C569    1.464   .     S
C568   H625    1.084   .     S
C570   C597    1.446   .     S
C570   C571    1.390   .     A
C571   C158    1.386   1_556 S
C571   H674    1.085   1_455 S
C572   H581    1.077   .     S
Cu573  O587    1.953   .     S
Cu573  O591    1.951   .     S
Cu573  O593    1.918   .     S
Cu573  O589    1.939   .     S
Cu573  N586    2.025   .     S
Cu573  Cu574   2.695   .     S
Cu574  O588    1.951   .     S
Cu574  O592    1.953   .     S
Cu574  O594    1.939   .     S
Cu574  O590    1.918   .     S
Cu574  N585    2.025   .     S
H576   C703    1.088   .     S
H577   N677    1.029   1_455 S
H579   C660    1.084   1_455 S
H582   C617    1.085   .     S
N585   H623    1.029   .     S
N585   N632    1.284   .     S
N586   N677    1.284   1_455 S
N586   C687    1.386   1_455 S
C595   N596    1.158   .     T
C595   N632    1.386   .     S
C597   N690    1.158   1_455 S
N598   C643    1.158   .     S
C599   O634    1.290   .     A
C599   O633    1.293   .     A
C599   C609    1.429   .     S
C600   C601    1.419   .     A
C600   C188    1.425   1_556 S
C600   C204    1.414   1_556 S
C601   C608    1.427   .     A
C601   C605    1.415   .     A
C602   C606    1.402   .     A
C603   C604    1.392   .     A
C603   C188    1.419   1_556 S
C603   C200    1.405   1_556 S
C604   C605    1.388   .     A
C604   H624    1.084   .     S
C605   H629    1.080   .     S
C606   H626    1.077   .     S
C606   C615    1.396   .     A
C607   C615    1.398   .     A
C607   C614    1.394   .     A
C607   H621    1.083   .     S
C608   C610    1.488   .     S
C608   C616    1.421   .     A
C609   C749    1.331   .     S
C609   H768    1.088   .     S
C610   O636    1.304   .     A
C610   O635    1.305   .     A
C611   C612    1.429   .     S
C612   O637    1.290   .     A
C612   O638    1.293   .     A
C613   O640    1.302   .     A
C613   O639    1.297   .     A
C613   C615    1.464   .     S
C614   H671    1.084   .     S
C616   C643    1.446   .     S
C616   C617    1.390   .     A
C617   C204    1.386   1_556 S
C618   H627    1.077   .     S
Cu619  O633    1.953   .     S
Cu619  O637    1.951   .     S
Cu619  O639    1.918   .     S
Cu619  O635    1.939   .     S
Cu619  N632    2.025   .     S
Cu619  Cu620   2.695   .     S
Cu620  O634    1.951   .     S
Cu620  O638    1.953   .     S
Cu620  O640    1.939   .     S
Cu620  O636    1.918   .     S
Cu620  N631    2.025   .     S
H622   C749    1.088   .     S
H628   C663    1.085   .     S
N631   H669    1.029   .     S
N631   N678    1.284   .     S
C641   N642    1.158   .     T
C641   N678    1.386   .     S
N644   C689    1.158   .     S
C645   O680    1.290   .     A
C645   O679    1.293   .     A
C645   C655    1.429   .     S
C646   C647    1.419   .     A
C646   C234    1.425   1_556 S
C646   C250    1.414   1_556 S
C647   C654    1.427   .     A
C647   C651    1.415   .     A
C648   C652    1.402   .     A
C649   C650    1.392   .     A
C649   C234    1.419   1_556 S
C649   C246    1.405   1_556 S
C650   C651    1.388   .     A
C650   H670    1.084   .     S
C651   H675    1.080   .     S
C652   H672    1.077   .     S
C652   C661    1.396   .     A
C653   C661    1.398   .     A
C653   C660    1.394   .     A
C653   H667    1.083   .     S
C654   C656    1.488   .     S
C654   C662    1.421   .     A
C655   C795    1.331   .     S
C655   H814    1.088   .     S
C656   O682    1.304   .     A
C656   O681    1.305   .     A
C657   C658    1.429   .     S
C658   O683    1.290   .     A
C658   O684    1.293   .     A
C659   O686    1.302   .     A
C659   O685    1.297   .     A
C659   C661    1.464   .     S
C660   H579    1.084   1_655 S
C662   C689    1.446   .     S
C662   C663    1.390   .     A
C663   C250    1.386   1_556 S
C664   H673    1.077   .     S
Cu665  O679    1.953   .     S
Cu665  O683    1.951   .     S
Cu665  O685    1.918   .     S
Cu665  O681    1.939   .     S
Cu665  N678    2.025   .     S
Cu665  Cu666   2.695   .     S
Cu666  O680    1.951   .     S
Cu666  O684    1.953   .     S
Cu666  O686    1.939   .     S
Cu666  O682    1.918   .     S
Cu666  N677    2.025   .     S
H668   C795    1.088   .     S
H674   C571    1.085   1_655 S
N677   H577    1.029   1_655 S
N677   N586    1.284   1_655 S
C687   N688    1.158   .     T
C687   N586    1.386   1_655 S
N690   C597    1.158   1_655 S
C691   O726    1.290   .     A
C691   O725    1.293   .     A
C691   C701    1.429   .     S
C692   C693    1.419   .     A
C692   C280    1.425   1_556 S
C692   C296    1.414   1_556 S
C693   C700    1.427   .     A
C693   C697    1.415   .     A
C694   C698    1.402   .     A
C695   C696    1.392   .     A
C695   C280    1.419   1_556 S
C695   C292    1.405   1_556 S
C696   C697    1.388   .     A
C696   H716    1.084   .     S
C697   H721    1.080   .     S
C698   H718    1.077   .     S
C698   C707    1.396   .     A
C699   C707    1.398   .     A
C699   C706    1.394   .     A
C699   H713    1.083   .     S
C700   C702    1.488   .     S
C700   C708    1.421   .     A
C701   C427    1.331   1_565 S
C701   H446    1.088   1_565 S
C702   O728    1.304   .     A
C702   O727    1.305   .     A
C703   C704    1.429   .     S
C704   O729    1.290   .     A
C704   O730    1.293   .     A
C705   O732    1.302   .     A
C705   O731    1.297   .     A
C705   C707    1.464   .     S
C706   H763    1.084   .     S
C708   C735    1.446   .     S
C708   C709    1.390   .     A
C709   C296    1.386   1_556 S
C709   H812    1.085   1_455 S
C710   H719    1.077   .     S
Cu711  O725    1.953   .     S
Cu711  O729    1.951   .     S
Cu711  O731    1.918   .     S
Cu711  O727    1.939   .     S
Cu711  N724    2.025   .     S
Cu711  Cu712   2.695   .     S
Cu712  O726    1.951   .     S
Cu712  O730    1.953   .     S
Cu712  O732    1.939   .     S
Cu712  O728    1.918   .     S
Cu712  N723    2.025   .     S
H714   C427    1.088   1_565 S
H715   N815    1.029   1_455 S
H717   C798    1.084   1_455 S
H720   C755    1.085   .     S
N723   H761    1.029   .     S
N723   N770    1.284   .     S
N724   N815    1.284   1_455 S
N724   C825    1.386   1_455 S
C733   N734    1.158   .     T
C733   N770    1.386   .     S
C735   N828    1.158   1_455 S
N736   C781    1.158   .     S
C737   O772    1.290   .     A
C737   O771    1.293   .     A
C737   C747    1.429   .     S
C738   C739    1.419   .     A
C738   C326    1.425   1_556 S
C738   C342    1.414   1_556 S
C739   C746    1.427   .     A
C739   C743    1.415   .     A
C740   C744    1.402   .     A
C741   C742    1.392   .     A
C741   C326    1.419   1_556 S
C741   C338    1.405   1_556 S
C742   C743    1.388   .     A
C742   H762    1.084   .     S
C743   H767    1.080   .     S
C744   H764    1.077   .     S
C744   C753    1.396   .     A
C745   C753    1.398   .     A
C745   C752    1.394   .     A
C745   H759    1.083   .     S
C746   C748    1.488   .     S
C746   C754    1.421   .     A
C747   C473    1.331   1_565 S
C747   H492    1.088   1_565 S
C748   O774    1.304   .     A
C748   O773    1.305   .     A
C749   C750    1.429   .     S
C750   O775    1.290   .     A
C750   O776    1.293   .     A
C751   O778    1.302   .     A
C751   O777    1.297   .     A
C751   C753    1.464   .     S
C752   H809    1.084   .     S
C754   C781    1.446   .     S
C754   C755    1.390   .     A
C755   C342    1.386   1_556 S
C756   H765    1.077   .     S
Cu757  O771    1.953   .     S
Cu757  O775    1.951   .     S
Cu757  O777    1.918   .     S
Cu757  O773    1.939   .     S
Cu757  N770    2.025   .     S
Cu757  Cu758   2.695   .     S
Cu758  O772    1.951   .     S
Cu758  O776    1.953   .     S
Cu758  O778    1.939   .     S
Cu758  O774    1.918   .     S
Cu758  N769    2.025   .     S
H760   C473    1.088   1_565 S
H766   C801    1.085   .     S
N769   H807    1.029   .     S
N769   N816    1.284   .     S
C779   N780    1.158   .     T
C779   N816    1.386   .     S
N782   C827    1.158   .     S
C783   O818    1.290   .     A
C783   O817    1.293   .     A
C783   C793    1.429   .     S
C784   C785    1.419   .     A
C784   C372    1.425   1_556 S
C784   C388    1.414   1_556 S
C785   C792    1.427   .     A
C785   C789    1.415   .     A
C786   C790    1.402   .     A
C787   C788    1.392   .     A
C787   C372    1.419   1_556 S
C787   C384    1.405   1_556 S
C788   C789    1.388   .     A
C788   H808    1.084   .     S
C789   H813    1.080   .     S
C790   H810    1.077   .     S
C790   C799    1.396   .     A
C791   C799    1.398   .     A
C791   C798    1.394   .     A
C791   H805    1.083   .     S
C792   C794    1.488   .     S
C792   C800    1.421   .     A
C793   C519    1.331   1_565 S
C793   H538    1.088   1_565 S
C794   O820    1.304   .     A
C794   O819    1.305   .     A
C795   C796    1.429   .     S
C796   O821    1.290   .     A
C796   O822    1.293   .     A
C797   O824    1.302   .     A
C797   O823    1.297   .     A
C797   C799    1.464   .     S
C798   H717    1.084   1_655 S
C800   C827    1.446   .     S
C800   C801    1.390   .     A
C801   C388    1.386   1_556 S
C802   H811    1.077   .     S
Cu803  O817    1.953   .     S
Cu803  O821    1.951   .     S
Cu803  O823    1.918   .     S
Cu803  O819    1.939   .     S
Cu803  N816    2.025   .     S
Cu803  Cu804   2.695   .     S
Cu804  O818    1.951   .     S
Cu804  O822    1.953   .     S
Cu804  O824    1.939   .     S
Cu804  O820    1.918   .     S
Cu804  N815    2.025   .     S
H806   C519    1.088   1_565 S
H812   C709    1.085   1_655 S
N815   H715    1.029   1_655 S
N815   N724    1.284   1_655 S
C825   N826    1.158   .     T
C825   N724    1.386   1_655 S
N828   C735    1.158   1_655 S
