data_str_m3_o2_o5_pcu_sym.72
_audit_creation_date              2020-01-03
_audit_creation_method            'Materials Studio'
_symmetry_space_group_name_H-M    'P1'
_symmetry_Int_Tables_number       1
_symmetry_cell_setting            triclinic
loop_
_symmetry_equiv_pos_as_xyz
  x,y,z
_cell_length_a                    29.9353
_cell_length_b                    28.5158
_cell_length_c                    26.5902
_cell_angle_alpha                 90.0709
_cell_angle_beta                  90.6263
_cell_angle_gamma                 90.5802
loop_
_atom_site_label
_atom_site_type_symbol
_atom_site_fract_x
_atom_site_fract_y
_atom_site_fract_z
_atom_site_U_iso_or_equiv
_atom_site_adp_type
_atom_site_occupancy
C1     C     0.16418   0.24971   0.16649   0.00000  Uiso   1.00
C2     C     0.33635   0.25020   0.16500   0.00000  Uiso   1.00
C3     C     0.25217   0.10154   0.12224   0.00000  Uiso   1.00
C4     C     0.27912   0.39754   0.19758   0.00000  Uiso   1.00
C5     C     0.24768   0.10143   0.21100   0.00000  Uiso   1.00
C6     C     0.22094   0.39752   0.13622   0.00000  Uiso   1.00
C7     C     0.25606   0.05207   0.12153   0.00000  Uiso   1.00
C8     C     0.28299   0.44707   0.19505   0.00000  Uiso   1.00
C9     C     0.24451   0.05180   0.21145   0.00000  Uiso   1.00
C10    C     0.21877   0.44745   0.13849   0.00000  Uiso   1.00
C11    C     0.25019   0.24999   0.07294   0.00000  Uiso   1.00
C12    C     0.25008   0.25002   0.26039   0.00000  Uiso   1.00
C13    C     0.25069   0.02604   0.16647   0.00000  Uiso   1.00
C14    C     0.25130   0.47283   0.16636   0.00000  Uiso   1.00
C15    C     0.25034   0.24999   0.02184   0.00000  Uiso   1.00
C16    C     0.25027   0.25004   0.31150   0.00000  Uiso   1.00
C17    C     0.05104   0.26425   0.11135   0.00000  Uiso   1.00
C18    C     0.45166   0.21075   0.13150   0.00000  Uiso   1.00
C19    C     0.45625   0.29041   0.16690   0.00000  Uiso   1.00
C20    C     0.04498   0.22825   0.19560   0.00000  Uiso   1.00
C21    C     0.09721   0.26475   0.11672   0.00000  Uiso   1.00
C22    C     0.40579   0.21014   0.13928   0.00000  Uiso   1.00
C23    C     0.40991   0.29151   0.16915   0.00000  Uiso   1.00
C24    C     0.09132   0.22844   0.19983   0.00000  Uiso   1.00
C25    C     0.11668   0.24853   0.16147   0.00000  Uiso   1.00
C26    C     0.38470   0.25052   0.15835   0.00000  Uiso   1.00
C27    C     0.02497   0.24626   0.15113   0.00000  Uiso   1.00
C28    C     0.47693   0.24981   0.14822   0.00000  Uiso   1.00
N29    N     0.25000   0.12623   0.16667   0.00000  Uiso   1.00
N30    N     0.25000   0.37376   0.16667   0.00000  Uiso   1.00
O31    O     0.18453   0.28974   0.16667   0.00000  Uiso   1.00
O32    O     0.31547   0.21026   0.16666   0.00000  Uiso   1.00
O33    O     0.31547   0.28974   0.16666   0.00000  Uiso   1.00
O34    O     0.18453   0.21026   0.16667   0.00000  Uiso   1.00
O35    O     0.25000   0.28973   0.09511   0.00000  Uiso   1.00
O36    O     0.25000   0.21027   0.23822   0.00000  Uiso   1.00
O37    O     0.25000   0.28973   0.23822   0.00000  Uiso   1.00
O38    O     0.25000   0.21027   0.09511   0.00000  Uiso   1.00
Zn39   Zn    0.25000   0.30307   0.16667   0.00000  Uiso   1.00
Zn40   Zn    0.25000   0.19693   0.16667   0.00000  Uiso   1.00
O41    O     0.25288   0.12492   0.07699   0.00000  Uiso   1.00
C42    C     0.20941   0.12310   0.05578   0.00000  Uiso   1.00
H43    H     0.20869   0.14550   0.02171   0.00000  Uiso   1.00
H44    H     0.18407   0.13706   0.08213   0.00000  Uiso   1.00
H45    H     0.20015   0.08685   0.04389   0.00000  Uiso   1.00
O46    O     0.30722   0.37225   0.22863   0.00000  Uiso   1.00
C47    C     0.29403   0.37836   0.27904   0.00000  Uiso   1.00
H48    H     0.31096   0.35161   0.30253   0.00000  Uiso   1.00
H49    H     0.25735   0.37329   0.28381   0.00000  Uiso   1.00
H50    H     0.30449   0.41334   0.29360   0.00000  Uiso   1.00
O51    O     0.24540   0.12477   0.25625   0.00000  Uiso   1.00
C52    C     0.28811   0.12400   0.27934   0.00000  Uiso   1.00
H53    H     0.31408   0.13943   0.25450   0.00000  Uiso   1.00
H54    H     0.29752   0.08790   0.29077   0.00000  Uiso   1.00
H55    H     0.28735   0.14576   0.31390   0.00000  Uiso   1.00
O56    O     0.19269   0.37214   0.10476   0.00000  Uiso   1.00
C57    C     0.20752   0.37716   0.05476   0.00000  Uiso   1.00
H58    H     0.18986   0.35077   0.03092   0.00000  Uiso   1.00
H59    H     0.24403   0.37084   0.05127   0.00000  Uiso   1.00
H60    H     0.19945   0.41233   0.03948   0.00000  Uiso   1.00
O61    O     0.03309   0.28274   0.06754   0.00000  Uiso   1.00
H62    H     0.00050   0.27700   0.06582   0.00000  Uiso   1.00
O63    O     0.47044   0.17196   0.10896   0.00000  Uiso   1.00
H64    H     0.00164   0.17887   0.09939   0.00000  Uiso   1.00
O65    O     0.47964   0.32941   0.18445   0.00000  Uiso   1.00
H66    H     0.01192   0.32647   0.17802   0.00000  Uiso   1.00
O67    O     0.02095   0.21210   0.23642   0.00000  Uiso   1.00
H68    H     0.48862   0.21113   0.22864   0.00000  Uiso   1.00
O69    O     0.12344   0.28354   0.07905   0.00000  Uiso   1.00
C70    C     0.13143   0.24821   0.04316   0.00000  Uiso   1.00
H71    H     0.15056   0.21878   0.05999   0.00000  Uiso   1.00
H72    H     0.15182   0.26344   0.01256   0.00000  Uiso   1.00
H73    H     0.09981   0.23478   0.02577   0.00000  Uiso   1.00
O74    O     0.38092   0.17144   0.12359   0.00000  Uiso   1.00
C75    C     0.38495   0.13558   0.15994   0.00000  Uiso   1.00
H76    H     0.35914   0.10830   0.15190   0.00000  Uiso   1.00
H77    H     0.37923   0.14869   0.19880   0.00000  Uiso   1.00
H78    H     0.41809   0.11859   0.15795   0.00000  Uiso   1.00
O79    O     0.38967   0.33189   0.18615   0.00000  Uiso   1.00
C80    C     0.38729   0.36417   0.14594   0.00000  Uiso   1.00
H81    H     0.42097   0.37427   0.13214   0.00000  Uiso   1.00
H82    H     0.37132   0.39667   0.15946   0.00000  Uiso   1.00
H83    H     0.36649   0.35004   0.11432   0.00000  Uiso   1.00
O84    O     0.11199   0.21410   0.24401   0.00000  Uiso   1.00
C85    C     0.11405   0.16468   0.24442   0.00000  Uiso   1.00
H86    H     0.12975   0.15062   0.20983   0.00000  Uiso   1.00
H87    H     0.08038   0.14869   0.24928   0.00000  Uiso   1.00
H88    H     0.13506   0.15381   0.27692   0.00000  Uiso   1.00
O89    O     0.26476   0.03112   0.07578   0.00000  Uiso   1.00
H90    H     0.27539   0.49878   0.08120   0.00000  Uiso   1.00
O91    O     0.31797   0.46839   0.22096   0.00000  Uiso   1.00
H92    H     0.32145   0.00123   0.20964   0.00000  Uiso   1.00
O93    O     0.23575   0.03040   0.25701   0.00000  Uiso   1.00
H94    H     0.22594   0.49759   0.25134   0.00000  Uiso   1.00
O95    O     0.18545   0.47213   0.11417   0.00000  Uiso   1.00
H96    H     0.16106   0.45019   0.10423   0.00000  Uiso   1.00
C97    C     0.66418   0.24971   0.16649   0.00000  Uiso   1.00
C98    C     0.83635   0.25020   0.16500   0.00000  Uiso   1.00
C99    C     0.75217   0.10154   0.12224   0.00000  Uiso   1.00
C100   C     0.77912   0.39754   0.19758   0.00000  Uiso   1.00
C101   C     0.74768   0.10143   0.21100   0.00000  Uiso   1.00
C102   C     0.72094   0.39752   0.13622   0.00000  Uiso   1.00
C103   C     0.75606   0.05207   0.12153   0.00000  Uiso   1.00
C104   C     0.78299   0.44707   0.19505   0.00000  Uiso   1.00
C105   C     0.74451   0.05180   0.21145   0.00000  Uiso   1.00
C106   C     0.71877   0.44745   0.13849   0.00000  Uiso   1.00
C107   C     0.75019   0.24999   0.07294   0.00000  Uiso   1.00
C108   C     0.75008   0.25002   0.26039   0.00000  Uiso   1.00
C109   C     0.75069   0.02604   0.16647   0.00000  Uiso   1.00
C110   C     0.75130   0.47283   0.16636   0.00000  Uiso   1.00
C111   C     0.75034   0.24999   0.02184   0.00000  Uiso   1.00
C112   C     0.75027   0.25004   0.31150   0.00000  Uiso   1.00
C113   C     0.55104   0.26425   0.11135   0.00000  Uiso   1.00
C114   C     0.95166   0.21075   0.13150   0.00000  Uiso   1.00
C115   C     0.95625   0.29041   0.16690   0.00000  Uiso   1.00
C116   C     0.54498   0.22825   0.19560   0.00000  Uiso   1.00
C117   C     0.59721   0.26475   0.11672   0.00000  Uiso   1.00
C118   C     0.90579   0.21014   0.13928   0.00000  Uiso   1.00
C119   C     0.90991   0.29151   0.16915   0.00000  Uiso   1.00
C120   C     0.59132   0.22844   0.19983   0.00000  Uiso   1.00
C121   C     0.61668   0.24853   0.16147   0.00000  Uiso   1.00
C122   C     0.88470   0.25052   0.15835   0.00000  Uiso   1.00
C123   C     0.52497   0.24626   0.15113   0.00000  Uiso   1.00
C124   C     0.97693   0.24981   0.14822   0.00000  Uiso   1.00
N125   N     0.75000   0.12623   0.16667   0.00000  Uiso   1.00
N126   N     0.75000   0.37376   0.16667   0.00000  Uiso   1.00
O127   O     0.68453   0.28974   0.16667   0.00000  Uiso   1.00
O128   O     0.81547   0.21026   0.16666   0.00000  Uiso   1.00
O129   O     0.81547   0.28974   0.16666   0.00000  Uiso   1.00
O130   O     0.68453   0.21026   0.16667   0.00000  Uiso   1.00
O131   O     0.75000   0.28973   0.09511   0.00000  Uiso   1.00
O132   O     0.75000   0.21027   0.23822   0.00000  Uiso   1.00
O133   O     0.75000   0.28973   0.23822   0.00000  Uiso   1.00
O134   O     0.75000   0.21027   0.09511   0.00000  Uiso   1.00
Zn135  Zn    0.75000   0.30307   0.16667   0.00000  Uiso   1.00
Zn136  Zn    0.75000   0.19693   0.16667   0.00000  Uiso   1.00
O137   O     0.75288   0.12492   0.07699   0.00000  Uiso   1.00
C138   C     0.70941   0.12310   0.05578   0.00000  Uiso   1.00
H139   H     0.70869   0.14550   0.02171   0.00000  Uiso   1.00
H140   H     0.68407   0.13706   0.08213   0.00000  Uiso   1.00
H141   H     0.70015   0.08685   0.04389   0.00000  Uiso   1.00
O142   O     0.80722   0.37225   0.22863   0.00000  Uiso   1.00
C143   C     0.79403   0.37836   0.27904   0.00000  Uiso   1.00
H144   H     0.81096   0.35161   0.30253   0.00000  Uiso   1.00
H145   H     0.75735   0.37329   0.28381   0.00000  Uiso   1.00
H146   H     0.80449   0.41334   0.29360   0.00000  Uiso   1.00
O147   O     0.74540   0.12477   0.25625   0.00000  Uiso   1.00
C148   C     0.78811   0.12400   0.27934   0.00000  Uiso   1.00
H149   H     0.81408   0.13943   0.25450   0.00000  Uiso   1.00
H150   H     0.79752   0.08790   0.29077   0.00000  Uiso   1.00
H151   H     0.78735   0.14576   0.31390   0.00000  Uiso   1.00
O152   O     0.69269   0.37214   0.10476   0.00000  Uiso   1.00
C153   C     0.70752   0.37716   0.05476   0.00000  Uiso   1.00
H154   H     0.68986   0.35077   0.03092   0.00000  Uiso   1.00
H155   H     0.74403   0.37084   0.05127   0.00000  Uiso   1.00
H156   H     0.69945   0.41233   0.03948   0.00000  Uiso   1.00
O157   O     0.53309   0.28274   0.06754   0.00000  Uiso   1.00
H158   H     0.50050   0.27700   0.06582   0.00000  Uiso   1.00
O159   O     0.97044   0.17196   0.10896   0.00000  Uiso   1.00
H160   H     0.50164   0.17887   0.09939   0.00000  Uiso   1.00
O161   O     0.97964   0.32941   0.18445   0.00000  Uiso   1.00
H162   H     0.51192   0.32647   0.17802   0.00000  Uiso   1.00
O163   O     0.52095   0.21210   0.23642   0.00000  Uiso   1.00
H164   H     0.98862   0.21113   0.22864   0.00000  Uiso   1.00
O165   O     0.62344   0.28354   0.07905   0.00000  Uiso   1.00
C166   C     0.63143   0.24821   0.04316   0.00000  Uiso   1.00
H167   H     0.65056   0.21878   0.05999   0.00000  Uiso   1.00
H168   H     0.65182   0.26344   0.01256   0.00000  Uiso   1.00
H169   H     0.59981   0.23478   0.02577   0.00000  Uiso   1.00
O170   O     0.88092   0.17144   0.12359   0.00000  Uiso   1.00
C171   C     0.88495   0.13558   0.15994   0.00000  Uiso   1.00
H172   H     0.85914   0.10830   0.15190   0.00000  Uiso   1.00
H173   H     0.87923   0.14869   0.19880   0.00000  Uiso   1.00
H174   H     0.91809   0.11859   0.15795   0.00000  Uiso   1.00
O175   O     0.88967   0.33189   0.18615   0.00000  Uiso   1.00
C176   C     0.88729   0.36417   0.14594   0.00000  Uiso   1.00
H177   H     0.92097   0.37427   0.13214   0.00000  Uiso   1.00
H178   H     0.87132   0.39667   0.15946   0.00000  Uiso   1.00
H179   H     0.86649   0.35004   0.11432   0.00000  Uiso   1.00
O180   O     0.61199   0.21410   0.24401   0.00000  Uiso   1.00
C181   C     0.61405   0.16468   0.24442   0.00000  Uiso   1.00
H182   H     0.62975   0.15062   0.20983   0.00000  Uiso   1.00
H183   H     0.58038   0.14869   0.24928   0.00000  Uiso   1.00
H184   H     0.63506   0.15381   0.27692   0.00000  Uiso   1.00
O185   O     0.76476   0.03112   0.07578   0.00000  Uiso   1.00
H186   H     0.77539   0.49878   0.08120   0.00000  Uiso   1.00
O187   O     0.81797   0.46839   0.22096   0.00000  Uiso   1.00
H188   H     0.82145   0.00123   0.20964   0.00000  Uiso   1.00
O189   O     0.73575   0.03040   0.25701   0.00000  Uiso   1.00
H190   H     0.72594   0.49759   0.25134   0.00000  Uiso   1.00
O191   O     0.68545   0.47213   0.11417   0.00000  Uiso   1.00
H192   H     0.66106   0.45019   0.10423   0.00000  Uiso   1.00
C193   C     0.16418   0.74971   0.16649   0.00000  Uiso   1.00
C194   C     0.33635   0.75020   0.16500   0.00000  Uiso   1.00
C195   C     0.25217   0.60154   0.12224   0.00000  Uiso   1.00
C196   C     0.27912   0.89754   0.19758   0.00000  Uiso   1.00
C197   C     0.24768   0.60143   0.21100   0.00000  Uiso   1.00
C198   C     0.22094   0.89752   0.13622   0.00000  Uiso   1.00
C199   C     0.25606   0.55207   0.12153   0.00000  Uiso   1.00
C200   C     0.28299   0.94707   0.19505   0.00000  Uiso   1.00
C201   C     0.24451   0.55180   0.21145   0.00000  Uiso   1.00
C202   C     0.21877   0.94745   0.13849   0.00000  Uiso   1.00
C203   C     0.25019   0.74999   0.07294   0.00000  Uiso   1.00
C204   C     0.25008   0.75002   0.26039   0.00000  Uiso   1.00
C205   C     0.25069   0.52604   0.16647   0.00000  Uiso   1.00
C206   C     0.25130   0.97283   0.16636   0.00000  Uiso   1.00
C207   C     0.25034   0.74999   0.02184   0.00000  Uiso   1.00
C208   C     0.25027   0.75004   0.31150   0.00000  Uiso   1.00
C209   C     0.05104   0.76425   0.11135   0.00000  Uiso   1.00
C210   C     0.45166   0.71075   0.13150   0.00000  Uiso   1.00
C211   C     0.45625   0.79041   0.16690   0.00000  Uiso   1.00
C212   C     0.04498   0.72825   0.19560   0.00000  Uiso   1.00
C213   C     0.09721   0.76475   0.11672   0.00000  Uiso   1.00
C214   C     0.40579   0.71014   0.13928   0.00000  Uiso   1.00
C215   C     0.40991   0.79151   0.16915   0.00000  Uiso   1.00
C216   C     0.09132   0.72844   0.19983   0.00000  Uiso   1.00
C217   C     0.11668   0.74853   0.16147   0.00000  Uiso   1.00
C218   C     0.38470   0.75052   0.15835   0.00000  Uiso   1.00
C219   C     0.02497   0.74626   0.15113   0.00000  Uiso   1.00
C220   C     0.47693   0.74981   0.14822   0.00000  Uiso   1.00
N221   N     0.25000   0.62623   0.16667   0.00000  Uiso   1.00
N222   N     0.25000   0.87376   0.16667   0.00000  Uiso   1.00
O223   O     0.18453   0.78974   0.16667   0.00000  Uiso   1.00
O224   O     0.31547   0.71026   0.16666   0.00000  Uiso   1.00
O225   O     0.31547   0.78974   0.16666   0.00000  Uiso   1.00
O226   O     0.18453   0.71026   0.16667   0.00000  Uiso   1.00
O227   O     0.25000   0.78973   0.09511   0.00000  Uiso   1.00
O228   O     0.25000   0.71027   0.23822   0.00000  Uiso   1.00
O229   O     0.25000   0.78973   0.23822   0.00000  Uiso   1.00
O230   O     0.25000   0.71027   0.09511   0.00000  Uiso   1.00
Zn231  Zn    0.25000   0.80307   0.16667   0.00000  Uiso   1.00
Zn232  Zn    0.25000   0.69693   0.16667   0.00000  Uiso   1.00
O233   O     0.25288   0.62492   0.07699   0.00000  Uiso   1.00
C234   C     0.20941   0.62310   0.05578   0.00000  Uiso   1.00
H235   H     0.20869   0.64550   0.02171   0.00000  Uiso   1.00
H236   H     0.18407   0.63706   0.08213   0.00000  Uiso   1.00
H237   H     0.20015   0.58685   0.04389   0.00000  Uiso   1.00
O238   O     0.30722   0.87225   0.22863   0.00000  Uiso   1.00
C239   C     0.29403   0.87836   0.27904   0.00000  Uiso   1.00
H240   H     0.31096   0.85161   0.30253   0.00000  Uiso   1.00
H241   H     0.25735   0.87329   0.28381   0.00000  Uiso   1.00
H242   H     0.30449   0.91334   0.29360   0.00000  Uiso   1.00
O243   O     0.24540   0.62477   0.25625   0.00000  Uiso   1.00
C244   C     0.28811   0.62400   0.27934   0.00000  Uiso   1.00
H245   H     0.31408   0.63943   0.25450   0.00000  Uiso   1.00
H246   H     0.29752   0.58790   0.29077   0.00000  Uiso   1.00
H247   H     0.28735   0.64576   0.31390   0.00000  Uiso   1.00
O248   O     0.19269   0.87214   0.10476   0.00000  Uiso   1.00
C249   C     0.20752   0.87716   0.05476   0.00000  Uiso   1.00
H250   H     0.18986   0.85077   0.03092   0.00000  Uiso   1.00
H251   H     0.24403   0.87084   0.05127   0.00000  Uiso   1.00
H252   H     0.19945   0.91233   0.03948   0.00000  Uiso   1.00
O253   O     0.03309   0.78274   0.06754   0.00000  Uiso   1.00
H254   H     0.00050   0.77700   0.06582   0.00000  Uiso   1.00
O255   O     0.47044   0.67196   0.10896   0.00000  Uiso   1.00
H256   H     0.00164   0.67887   0.09939   0.00000  Uiso   1.00
O257   O     0.47964   0.82941   0.18445   0.00000  Uiso   1.00
H258   H     0.01192   0.82647   0.17802   0.00000  Uiso   1.00
O259   O     0.02095   0.71210   0.23642   0.00000  Uiso   1.00
H260   H     0.48862   0.71113   0.22864   0.00000  Uiso   1.00
O261   O     0.12344   0.78354   0.07905   0.00000  Uiso   1.00
C262   C     0.13143   0.74821   0.04316   0.00000  Uiso   1.00
H263   H     0.15056   0.71878   0.05999   0.00000  Uiso   1.00
H264   H     0.15182   0.76344   0.01256   0.00000  Uiso   1.00
H265   H     0.09981   0.73478   0.02577   0.00000  Uiso   1.00
O266   O     0.38092   0.67144   0.12359   0.00000  Uiso   1.00
C267   C     0.38495   0.63558   0.15994   0.00000  Uiso   1.00
H268   H     0.35914   0.60830   0.15190   0.00000  Uiso   1.00
H269   H     0.37923   0.64869   0.19880   0.00000  Uiso   1.00
H270   H     0.41809   0.61859   0.15795   0.00000  Uiso   1.00
O271   O     0.38967   0.83189   0.18615   0.00000  Uiso   1.00
C272   C     0.38729   0.86417   0.14594   0.00000  Uiso   1.00
H273   H     0.42097   0.87427   0.13214   0.00000  Uiso   1.00
H274   H     0.37132   0.89667   0.15946   0.00000  Uiso   1.00
H275   H     0.36649   0.85004   0.11432   0.00000  Uiso   1.00
O276   O     0.11199   0.71410   0.24401   0.00000  Uiso   1.00
C277   C     0.11405   0.66468   0.24442   0.00000  Uiso   1.00
H278   H     0.12975   0.65062   0.20983   0.00000  Uiso   1.00
H279   H     0.08038   0.64869   0.24928   0.00000  Uiso   1.00
H280   H     0.13506   0.65381   0.27692   0.00000  Uiso   1.00
O281   O     0.26476   0.53112   0.07578   0.00000  Uiso   1.00
H282   H     0.27539   0.99878   0.08120   0.00000  Uiso   1.00
O283   O     0.31797   0.96839   0.22096   0.00000  Uiso   1.00
H284   H     0.32145   0.50123   0.20964   0.00000  Uiso   1.00
O285   O     0.23575   0.53040   0.25701   0.00000  Uiso   1.00
H286   H     0.22594   0.99759   0.25134   0.00000  Uiso   1.00
O287   O     0.18545   0.97213   0.11417   0.00000  Uiso   1.00
H288   H     0.16106   0.95019   0.10423   0.00000  Uiso   1.00
C289   C     0.66418   0.74971   0.16649   0.00000  Uiso   1.00
C290   C     0.83635   0.75020   0.16500   0.00000  Uiso   1.00
C291   C     0.75217   0.60154   0.12224   0.00000  Uiso   1.00
C292   C     0.77912   0.89754   0.19758   0.00000  Uiso   1.00
C293   C     0.74768   0.60143   0.21100   0.00000  Uiso   1.00
C294   C     0.72094   0.89752   0.13622   0.00000  Uiso   1.00
C295   C     0.75606   0.55207   0.12153   0.00000  Uiso   1.00
C296   C     0.78299   0.94707   0.19505   0.00000  Uiso   1.00
C297   C     0.74451   0.55180   0.21145   0.00000  Uiso   1.00
C298   C     0.71877   0.94745   0.13849   0.00000  Uiso   1.00
C299   C     0.75019   0.74999   0.07294   0.00000  Uiso   1.00
C300   C     0.75008   0.75002   0.26039   0.00000  Uiso   1.00
C301   C     0.75069   0.52604   0.16647   0.00000  Uiso   1.00
C302   C     0.75130   0.97283   0.16636   0.00000  Uiso   1.00
C303   C     0.75034   0.74999   0.02184   0.00000  Uiso   1.00
C304   C     0.75027   0.75004   0.31150   0.00000  Uiso   1.00
C305   C     0.55104   0.76425   0.11135   0.00000  Uiso   1.00
C306   C     0.95166   0.71075   0.13150   0.00000  Uiso   1.00
C307   C     0.95625   0.79041   0.16690   0.00000  Uiso   1.00
C308   C     0.54498   0.72825   0.19560   0.00000  Uiso   1.00
C309   C     0.59721   0.76475   0.11672   0.00000  Uiso   1.00
C310   C     0.90579   0.71014   0.13928   0.00000  Uiso   1.00
C311   C     0.90991   0.79151   0.16915   0.00000  Uiso   1.00
C312   C     0.59132   0.72844   0.19983   0.00000  Uiso   1.00
C313   C     0.61668   0.74853   0.16147   0.00000  Uiso   1.00
C314   C     0.88470   0.75052   0.15835   0.00000  Uiso   1.00
C315   C     0.52497   0.74626   0.15113   0.00000  Uiso   1.00
C316   C     0.97693   0.74981   0.14822   0.00000  Uiso   1.00
N317   N     0.75000   0.62623   0.16667   0.00000  Uiso   1.00
N318   N     0.75000   0.87376   0.16667   0.00000  Uiso   1.00
O319   O     0.68453   0.78974   0.16667   0.00000  Uiso   1.00
O320   O     0.81547   0.71026   0.16666   0.00000  Uiso   1.00
O321   O     0.81547   0.78974   0.16666   0.00000  Uiso   1.00
O322   O     0.68453   0.71026   0.16667   0.00000  Uiso   1.00
O323   O     0.75000   0.78973   0.09511   0.00000  Uiso   1.00
O324   O     0.75000   0.71027   0.23822   0.00000  Uiso   1.00
O325   O     0.75000   0.78973   0.23822   0.00000  Uiso   1.00
O326   O     0.75000   0.71027   0.09511   0.00000  Uiso   1.00
Zn327  Zn    0.75000   0.80307   0.16667   0.00000  Uiso   1.00
Zn328  Zn    0.75000   0.69693   0.16667   0.00000  Uiso   1.00
O329   O     0.75288   0.62492   0.07699   0.00000  Uiso   1.00
C330   C     0.70941   0.62310   0.05578   0.00000  Uiso   1.00
H331   H     0.70869   0.64550   0.02171   0.00000  Uiso   1.00
H332   H     0.68407   0.63706   0.08213   0.00000  Uiso   1.00
H333   H     0.70015   0.58685   0.04389   0.00000  Uiso   1.00
O334   O     0.80722   0.87225   0.22863   0.00000  Uiso   1.00
C335   C     0.79403   0.87836   0.27904   0.00000  Uiso   1.00
H336   H     0.81096   0.85161   0.30253   0.00000  Uiso   1.00
H337   H     0.75735   0.87329   0.28381   0.00000  Uiso   1.00
H338   H     0.80449   0.91334   0.29360   0.00000  Uiso   1.00
O339   O     0.74540   0.62477   0.25625   0.00000  Uiso   1.00
C340   C     0.78811   0.62400   0.27934   0.00000  Uiso   1.00
H341   H     0.81408   0.63943   0.25450   0.00000  Uiso   1.00
H342   H     0.79752   0.58790   0.29077   0.00000  Uiso   1.00
H343   H     0.78735   0.64576   0.31390   0.00000  Uiso   1.00
O344   O     0.69269   0.87214   0.10476   0.00000  Uiso   1.00
C345   C     0.70752   0.87716   0.05476   0.00000  Uiso   1.00
H346   H     0.68986   0.85077   0.03092   0.00000  Uiso   1.00
H347   H     0.74403   0.87084   0.05127   0.00000  Uiso   1.00
H348   H     0.69945   0.91233   0.03948   0.00000  Uiso   1.00
O349   O     0.53309   0.78274   0.06754   0.00000  Uiso   1.00
H350   H     0.50050   0.77700   0.06582   0.00000  Uiso   1.00
O351   O     0.97044   0.67196   0.10896   0.00000  Uiso   1.00
H352   H     0.50164   0.67887   0.09939   0.00000  Uiso   1.00
O353   O     0.97964   0.82941   0.18445   0.00000  Uiso   1.00
H354   H     0.51192   0.82647   0.17802   0.00000  Uiso   1.00
O355   O     0.52095   0.71210   0.23642   0.00000  Uiso   1.00
H356   H     0.98862   0.71113   0.22864   0.00000  Uiso   1.00
O357   O     0.62344   0.78354   0.07905   0.00000  Uiso   1.00
C358   C     0.63143   0.74821   0.04316   0.00000  Uiso   1.00
H359   H     0.65056   0.71878   0.05999   0.00000  Uiso   1.00
H360   H     0.65182   0.76344   0.01256   0.00000  Uiso   1.00
H361   H     0.59981   0.73478   0.02577   0.00000  Uiso   1.00
O362   O     0.88092   0.67144   0.12359   0.00000  Uiso   1.00
C363   C     0.88495   0.63558   0.15994   0.00000  Uiso   1.00
H364   H     0.85914   0.60830   0.15190   0.00000  Uiso   1.00
H365   H     0.87923   0.64869   0.19880   0.00000  Uiso   1.00
H366   H     0.91809   0.61859   0.15795   0.00000  Uiso   1.00
O367   O     0.88967   0.83189   0.18615   0.00000  Uiso   1.00
C368   C     0.88729   0.86417   0.14594   0.00000  Uiso   1.00
H369   H     0.92097   0.87427   0.13214   0.00000  Uiso   1.00
H370   H     0.87132   0.89667   0.15946   0.00000  Uiso   1.00
H371   H     0.86649   0.85004   0.11432   0.00000  Uiso   1.00
O372   O     0.61199   0.71410   0.24401   0.00000  Uiso   1.00
C373   C     0.61405   0.66468   0.24442   0.00000  Uiso   1.00
H374   H     0.62975   0.65062   0.20983   0.00000  Uiso   1.00
H375   H     0.58038   0.64869   0.24928   0.00000  Uiso   1.00
H376   H     0.63506   0.65381   0.27692   0.00000  Uiso   1.00
O377   O     0.76476   0.53112   0.07578   0.00000  Uiso   1.00
H378   H     0.77539   0.99878   0.08120   0.00000  Uiso   1.00
O379   O     0.81797   0.96839   0.22096   0.00000  Uiso   1.00
H380   H     0.82145   0.50123   0.20964   0.00000  Uiso   1.00
O381   O     0.73575   0.53040   0.25701   0.00000  Uiso   1.00
H382   H     0.72594   0.99759   0.25134   0.00000  Uiso   1.00
O383   O     0.68545   0.97213   0.11417   0.00000  Uiso   1.00
H384   H     0.66106   0.95019   0.10423   0.00000  Uiso   1.00
C385   C     0.16418   0.24971   0.49983   0.00000  Uiso   1.00
C386   C     0.33635   0.25020   0.49834   0.00000  Uiso   1.00
C387   C     0.25217   0.10154   0.45557   0.00000  Uiso   1.00
C388   C     0.27912   0.39754   0.53091   0.00000  Uiso   1.00
C389   C     0.24768   0.10143   0.54433   0.00000  Uiso   1.00
C390   C     0.22094   0.39752   0.46955   0.00000  Uiso   1.00
C391   C     0.25606   0.05207   0.45487   0.00000  Uiso   1.00
C392   C     0.28299   0.44707   0.52839   0.00000  Uiso   1.00
C393   C     0.24451   0.05180   0.54479   0.00000  Uiso   1.00
C394   C     0.21877   0.44745   0.47182   0.00000  Uiso   1.00
C395   C     0.25019   0.24999   0.40628   0.00000  Uiso   1.00
C396   C     0.25008   0.25002   0.59373   0.00000  Uiso   1.00
C397   C     0.25069   0.02604   0.49981   0.00000  Uiso   1.00
C398   C     0.25130   0.47283   0.49970   0.00000  Uiso   1.00
C399   C     0.25034   0.24999   0.35517   0.00000  Uiso   1.00
C400   C     0.25027   0.25004   0.64484   0.00000  Uiso   1.00
C401   C     0.05104   0.26425   0.44469   0.00000  Uiso   1.00
C402   C     0.45166   0.21075   0.46483   0.00000  Uiso   1.00
C403   C     0.45625   0.29041   0.50024   0.00000  Uiso   1.00
C404   C     0.04498   0.22825   0.52893   0.00000  Uiso   1.00
C405   C     0.09721   0.26475   0.45005   0.00000  Uiso   1.00
C406   C     0.40579   0.21014   0.47261   0.00000  Uiso   1.00
C407   C     0.40991   0.29151   0.50248   0.00000  Uiso   1.00
C408   C     0.09132   0.22844   0.53316   0.00000  Uiso   1.00
C409   C     0.11668   0.24853   0.49480   0.00000  Uiso   1.00
C410   C     0.38470   0.25052   0.49168   0.00000  Uiso   1.00
C411   C     0.02497   0.24626   0.48446   0.00000  Uiso   1.00
C412   C     0.47693   0.24981   0.48155   0.00000  Uiso   1.00
N413   N     0.25000   0.12623   0.50000   0.00000  Uiso   1.00
N414   N     0.25000   0.37376   0.50000   0.00000  Uiso   1.00
O415   O     0.18453   0.28974   0.50000   0.00000  Uiso   1.00
O416   O     0.31547   0.21026   0.50000   0.00000  Uiso   1.00
O417   O     0.31547   0.28974   0.50000   0.00000  Uiso   1.00
O418   O     0.18453   0.21026   0.50000   0.00000  Uiso   1.00
O419   O     0.25000   0.28973   0.42845   0.00000  Uiso   1.00
O420   O     0.25000   0.21027   0.57155   0.00000  Uiso   1.00
O421   O     0.25000   0.28973   0.57155   0.00000  Uiso   1.00
O422   O     0.25000   0.21027   0.42845   0.00000  Uiso   1.00
Zn423  Zn    0.25000   0.30307   0.50000   0.00000  Uiso   1.00
Zn424  Zn    0.25000   0.19693   0.50000   0.00000  Uiso   1.00
O425   O     0.25288   0.12492   0.41032   0.00000  Uiso   1.00
C426   C     0.20941   0.12310   0.38911   0.00000  Uiso   1.00
H427   H     0.20869   0.14550   0.35505   0.00000  Uiso   1.00
H428   H     0.18407   0.13706   0.41546   0.00000  Uiso   1.00
H429   H     0.20015   0.08685   0.37723   0.00000  Uiso   1.00
O430   O     0.30722   0.37225   0.56197   0.00000  Uiso   1.00
C431   C     0.29403   0.37836   0.61237   0.00000  Uiso   1.00
H432   H     0.31096   0.35161   0.63586   0.00000  Uiso   1.00
H433   H     0.25735   0.37329   0.61714   0.00000  Uiso   1.00
H434   H     0.30449   0.41334   0.62693   0.00000  Uiso   1.00
O435   O     0.24540   0.12477   0.58958   0.00000  Uiso   1.00
C436   C     0.28811   0.12400   0.61267   0.00000  Uiso   1.00
H437   H     0.31408   0.13943   0.58783   0.00000  Uiso   1.00
H438   H     0.29752   0.08790   0.62410   0.00000  Uiso   1.00
H439   H     0.28735   0.14576   0.64723   0.00000  Uiso   1.00
O440   O     0.19269   0.37214   0.43810   0.00000  Uiso   1.00
C441   C     0.20752   0.37716   0.38809   0.00000  Uiso   1.00
H442   H     0.18986   0.35077   0.36426   0.00000  Uiso   1.00
H443   H     0.24403   0.37084   0.38460   0.00000  Uiso   1.00
H444   H     0.19945   0.41233   0.37282   0.00000  Uiso   1.00
O445   O     0.03309   0.28274   0.40087   0.00000  Uiso   1.00
H446   H     0.00050   0.27700   0.39916   0.00000  Uiso   1.00
O447   O     0.47044   0.17196   0.44229   0.00000  Uiso   1.00
H448   H     0.00164   0.17887   0.43272   0.00000  Uiso   1.00
O449   O     0.47964   0.32941   0.51779   0.00000  Uiso   1.00
H450   H     0.01192   0.32647   0.51136   0.00000  Uiso   1.00
O451   O     0.02095   0.21210   0.56975   0.00000  Uiso   1.00
H452   H     0.48862   0.21113   0.56198   0.00000  Uiso   1.00
O453   O     0.12344   0.28354   0.41238   0.00000  Uiso   1.00
C454   C     0.13143   0.24821   0.37649   0.00000  Uiso   1.00
H455   H     0.15056   0.21878   0.39333   0.00000  Uiso   1.00
H456   H     0.15182   0.26344   0.34589   0.00000  Uiso   1.00
H457   H     0.09981   0.23478   0.35911   0.00000  Uiso   1.00
O458   O     0.38092   0.17144   0.45692   0.00000  Uiso   1.00
C459   C     0.38495   0.13558   0.49327   0.00000  Uiso   1.00
H460   H     0.35914   0.10830   0.48523   0.00000  Uiso   1.00
H461   H     0.37923   0.14869   0.53214   0.00000  Uiso   1.00
H462   H     0.41809   0.11859   0.49128   0.00000  Uiso   1.00
O463   O     0.38967   0.33189   0.51949   0.00000  Uiso   1.00
C464   C     0.38729   0.36417   0.47927   0.00000  Uiso   1.00
H465   H     0.42097   0.37427   0.46547   0.00000  Uiso   1.00
H466   H     0.37132   0.39667   0.49279   0.00000  Uiso   1.00
H467   H     0.36649   0.35004   0.44765   0.00000  Uiso   1.00
O468   O     0.11199   0.21410   0.57734   0.00000  Uiso   1.00
C469   C     0.11405   0.16468   0.57775   0.00000  Uiso   1.00
H470   H     0.12975   0.15062   0.54317   0.00000  Uiso   1.00
H471   H     0.08038   0.14869   0.58261   0.00000  Uiso   1.00
H472   H     0.13506   0.15381   0.61026   0.00000  Uiso   1.00
O473   O     0.26476   0.03112   0.40911   0.00000  Uiso   1.00
H474   H     0.27539   0.49878   0.41453   0.00000  Uiso   1.00
O475   O     0.31797   0.46839   0.55429   0.00000  Uiso   1.00
H476   H     0.32145   0.00123   0.54297   0.00000  Uiso   1.00
O477   O     0.23575   0.03040   0.59034   0.00000  Uiso   1.00
H478   H     0.22594   0.49759   0.58467   0.00000  Uiso   1.00
O479   O     0.18545   0.47213   0.44750   0.00000  Uiso   1.00
H480   H     0.16106   0.45019   0.43756   0.00000  Uiso   1.00
C481   C     0.66418   0.24971   0.49983   0.00000  Uiso   1.00
C482   C     0.83635   0.25020   0.49834   0.00000  Uiso   1.00
C483   C     0.75217   0.10154   0.45557   0.00000  Uiso   1.00
C484   C     0.77912   0.39754   0.53091   0.00000  Uiso   1.00
C485   C     0.74768   0.10143   0.54433   0.00000  Uiso   1.00
C486   C     0.72094   0.39752   0.46955   0.00000  Uiso   1.00
C487   C     0.75606   0.05207   0.45487   0.00000  Uiso   1.00
C488   C     0.78299   0.44707   0.52839   0.00000  Uiso   1.00
C489   C     0.74451   0.05180   0.54479   0.00000  Uiso   1.00
C490   C     0.71877   0.44745   0.47182   0.00000  Uiso   1.00
C491   C     0.75019   0.24999   0.40628   0.00000  Uiso   1.00
C492   C     0.75008   0.25002   0.59373   0.00000  Uiso   1.00
C493   C     0.75069   0.02604   0.49981   0.00000  Uiso   1.00
C494   C     0.75130   0.47283   0.49970   0.00000  Uiso   1.00
C495   C     0.75034   0.24999   0.35517   0.00000  Uiso   1.00
C496   C     0.75027   0.25004   0.64484   0.00000  Uiso   1.00
C497   C     0.55104   0.26425   0.44469   0.00000  Uiso   1.00
C498   C     0.95166   0.21075   0.46483   0.00000  Uiso   1.00
C499   C     0.95625   0.29041   0.50024   0.00000  Uiso   1.00
C500   C     0.54498   0.22825   0.52893   0.00000  Uiso   1.00
C501   C     0.59721   0.26475   0.45005   0.00000  Uiso   1.00
C502   C     0.90579   0.21014   0.47261   0.00000  Uiso   1.00
C503   C     0.90991   0.29151   0.50248   0.00000  Uiso   1.00
C504   C     0.59132   0.22844   0.53316   0.00000  Uiso   1.00
C505   C     0.61668   0.24853   0.49480   0.00000  Uiso   1.00
C506   C     0.88470   0.25052   0.49168   0.00000  Uiso   1.00
C507   C     0.52497   0.24626   0.48446   0.00000  Uiso   1.00
C508   C     0.97693   0.24981   0.48155   0.00000  Uiso   1.00
N509   N     0.75000   0.12623   0.50000   0.00000  Uiso   1.00
N510   N     0.75000   0.37376   0.50000   0.00000  Uiso   1.00
O511   O     0.68453   0.28974   0.50000   0.00000  Uiso   1.00
O512   O     0.81547   0.21026   0.50000   0.00000  Uiso   1.00
O513   O     0.81547   0.28974   0.50000   0.00000  Uiso   1.00
O514   O     0.68453   0.21026   0.50000   0.00000  Uiso   1.00
O515   O     0.75000   0.28973   0.42845   0.00000  Uiso   1.00
O516   O     0.75000   0.21027   0.57155   0.00000  Uiso   1.00
O517   O     0.75000   0.28973   0.57155   0.00000  Uiso   1.00
O518   O     0.75000   0.21027   0.42845   0.00000  Uiso   1.00
Zn519  Zn    0.75000   0.30307   0.50000   0.00000  Uiso   1.00
Zn520  Zn    0.75000   0.19693   0.50000   0.00000  Uiso   1.00
O521   O     0.75288   0.12492   0.41032   0.00000  Uiso   1.00
C522   C     0.70941   0.12310   0.38911   0.00000  Uiso   1.00
H523   H     0.70869   0.14550   0.35505   0.00000  Uiso   1.00
H524   H     0.68407   0.13706   0.41546   0.00000  Uiso   1.00
H525   H     0.70015   0.08685   0.37723   0.00000  Uiso   1.00
O526   O     0.80722   0.37225   0.56197   0.00000  Uiso   1.00
C527   C     0.79403   0.37836   0.61237   0.00000  Uiso   1.00
H528   H     0.81096   0.35161   0.63586   0.00000  Uiso   1.00
H529   H     0.75735   0.37329   0.61714   0.00000  Uiso   1.00
H530   H     0.80449   0.41334   0.62693   0.00000  Uiso   1.00
O531   O     0.74540   0.12477   0.58958   0.00000  Uiso   1.00
C532   C     0.78811   0.12400   0.61267   0.00000  Uiso   1.00
H533   H     0.81408   0.13943   0.58783   0.00000  Uiso   1.00
H534   H     0.79752   0.08790   0.62410   0.00000  Uiso   1.00
H535   H     0.78735   0.14576   0.64723   0.00000  Uiso   1.00
O536   O     0.69269   0.37214   0.43810   0.00000  Uiso   1.00
C537   C     0.70752   0.37716   0.38809   0.00000  Uiso   1.00
H538   H     0.68986   0.35077   0.36426   0.00000  Uiso   1.00
H539   H     0.74403   0.37084   0.38460   0.00000  Uiso   1.00
H540   H     0.69945   0.41233   0.37282   0.00000  Uiso   1.00
O541   O     0.53309   0.28274   0.40087   0.00000  Uiso   1.00
H542   H     0.50050   0.27700   0.39916   0.00000  Uiso   1.00
O543   O     0.97044   0.17196   0.44229   0.00000  Uiso   1.00
H544   H     0.50164   0.17887   0.43272   0.00000  Uiso   1.00
O545   O     0.97964   0.32941   0.51779   0.00000  Uiso   1.00
H546   H     0.51192   0.32647   0.51136   0.00000  Uiso   1.00
O547   O     0.52095   0.21210   0.56975   0.00000  Uiso   1.00
H548   H     0.98862   0.21113   0.56198   0.00000  Uiso   1.00
O549   O     0.62344   0.28354   0.41238   0.00000  Uiso   1.00
C550   C     0.63143   0.24821   0.37649   0.00000  Uiso   1.00
H551   H     0.65056   0.21878   0.39333   0.00000  Uiso   1.00
H552   H     0.65182   0.26344   0.34589   0.00000  Uiso   1.00
H553   H     0.59981   0.23478   0.35911   0.00000  Uiso   1.00
O554   O     0.88092   0.17144   0.45692   0.00000  Uiso   1.00
C555   C     0.88495   0.13558   0.49327   0.00000  Uiso   1.00
H556   H     0.85914   0.10830   0.48523   0.00000  Uiso   1.00
H557   H     0.87923   0.14869   0.53214   0.00000  Uiso   1.00
H558   H     0.91809   0.11859   0.49128   0.00000  Uiso   1.00
O559   O     0.88967   0.33189   0.51949   0.00000  Uiso   1.00
C560   C     0.88729   0.36417   0.47927   0.00000  Uiso   1.00
H561   H     0.92097   0.37427   0.46547   0.00000  Uiso   1.00
H562   H     0.87132   0.39667   0.49279   0.00000  Uiso   1.00
H563   H     0.86649   0.35004   0.44765   0.00000  Uiso   1.00
O564   O     0.61199   0.21410   0.57734   0.00000  Uiso   1.00
C565   C     0.61405   0.16468   0.57775   0.00000  Uiso   1.00
H566   H     0.62975   0.15062   0.54317   0.00000  Uiso   1.00
H567   H     0.58038   0.14869   0.58261   0.00000  Uiso   1.00
H568   H     0.63506   0.15381   0.61026   0.00000  Uiso   1.00
O569   O     0.76476   0.03112   0.40911   0.00000  Uiso   1.00
H570   H     0.77539   0.49878   0.41453   0.00000  Uiso   1.00
O571   O     0.81797   0.46839   0.55429   0.00000  Uiso   1.00
H572   H     0.82145   0.00123   0.54297   0.00000  Uiso   1.00
O573   O     0.73575   0.03040   0.59034   0.00000  Uiso   1.00
H574   H     0.72594   0.49759   0.58467   0.00000  Uiso   1.00
O575   O     0.68545   0.47213   0.44750   0.00000  Uiso   1.00
H576   H     0.66106   0.45019   0.43756   0.00000  Uiso   1.00
C577   C     0.16418   0.74971   0.49983   0.00000  Uiso   1.00
C578   C     0.33635   0.75020   0.49834   0.00000  Uiso   1.00
C579   C     0.25217   0.60154   0.45557   0.00000  Uiso   1.00
C580   C     0.27912   0.89754   0.53091   0.00000  Uiso   1.00
C581   C     0.24768   0.60143   0.54433   0.00000  Uiso   1.00
C582   C     0.22094   0.89752   0.46955   0.00000  Uiso   1.00
C583   C     0.25606   0.55207   0.45487   0.00000  Uiso   1.00
C584   C     0.28299   0.94707   0.52839   0.00000  Uiso   1.00
C585   C     0.24451   0.55180   0.54479   0.00000  Uiso   1.00
C586   C     0.21877   0.94745   0.47182   0.00000  Uiso   1.00
C587   C     0.25019   0.74999   0.40628   0.00000  Uiso   1.00
C588   C     0.25008   0.75002   0.59373   0.00000  Uiso   1.00
C589   C     0.25069   0.52604   0.49981   0.00000  Uiso   1.00
C590   C     0.25130   0.97283   0.49970   0.00000  Uiso   1.00
C591   C     0.25034   0.74999   0.35517   0.00000  Uiso   1.00
C592   C     0.25027   0.75004   0.64484   0.00000  Uiso   1.00
C593   C     0.05104   0.76425   0.44469   0.00000  Uiso   1.00
C594   C     0.45166   0.71075   0.46483   0.00000  Uiso   1.00
C595   C     0.45625   0.79041   0.50024   0.00000  Uiso   1.00
C596   C     0.04498   0.72825   0.52893   0.00000  Uiso   1.00
C597   C     0.09721   0.76475   0.45005   0.00000  Uiso   1.00
C598   C     0.40579   0.71014   0.47261   0.00000  Uiso   1.00
C599   C     0.40991   0.79151   0.50248   0.00000  Uiso   1.00
C600   C     0.09132   0.72844   0.53316   0.00000  Uiso   1.00
C601   C     0.11668   0.74853   0.49480   0.00000  Uiso   1.00
C602   C     0.38470   0.75052   0.49168   0.00000  Uiso   1.00
C603   C     0.02497   0.74626   0.48446   0.00000  Uiso   1.00
C604   C     0.47693   0.74981   0.48155   0.00000  Uiso   1.00
N605   N     0.25000   0.62623   0.50000   0.00000  Uiso   1.00
N606   N     0.25000   0.87376   0.50000   0.00000  Uiso   1.00
O607   O     0.18453   0.78974   0.50000   0.00000  Uiso   1.00
O608   O     0.31547   0.71026   0.50000   0.00000  Uiso   1.00
O609   O     0.31547   0.78974   0.50000   0.00000  Uiso   1.00
O610   O     0.18453   0.71026   0.50000   0.00000  Uiso   1.00
O611   O     0.25000   0.78973   0.42845   0.00000  Uiso   1.00
O612   O     0.25000   0.71027   0.57155   0.00000  Uiso   1.00
O613   O     0.25000   0.78973   0.57155   0.00000  Uiso   1.00
O614   O     0.25000   0.71027   0.42845   0.00000  Uiso   1.00
Zn615  Zn    0.25000   0.80307   0.50000   0.00000  Uiso   1.00
Zn616  Zn    0.25000   0.69693   0.50000   0.00000  Uiso   1.00
O617   O     0.25288   0.62492   0.41032   0.00000  Uiso   1.00
C618   C     0.20941   0.62310   0.38911   0.00000  Uiso   1.00
H619   H     0.20869   0.64550   0.35505   0.00000  Uiso   1.00
H620   H     0.18407   0.63706   0.41546   0.00000  Uiso   1.00
H621   H     0.20015   0.58685   0.37723   0.00000  Uiso   1.00
O622   O     0.30722   0.87225   0.56197   0.00000  Uiso   1.00
C623   C     0.29403   0.87836   0.61237   0.00000  Uiso   1.00
H624   H     0.31096   0.85161   0.63586   0.00000  Uiso   1.00
H625   H     0.25735   0.87329   0.61714   0.00000  Uiso   1.00
H626   H     0.30449   0.91334   0.62693   0.00000  Uiso   1.00
O627   O     0.24540   0.62477   0.58958   0.00000  Uiso   1.00
C628   C     0.28811   0.62400   0.61267   0.00000  Uiso   1.00
H629   H     0.31408   0.63943   0.58783   0.00000  Uiso   1.00
H630   H     0.29752   0.58790   0.62410   0.00000  Uiso   1.00
H631   H     0.28735   0.64576   0.64723   0.00000  Uiso   1.00
O632   O     0.19269   0.87214   0.43810   0.00000  Uiso   1.00
C633   C     0.20752   0.87716   0.38809   0.00000  Uiso   1.00
H634   H     0.18986   0.85077   0.36426   0.00000  Uiso   1.00
H635   H     0.24403   0.87084   0.38460   0.00000  Uiso   1.00
H636   H     0.19945   0.91233   0.37282   0.00000  Uiso   1.00
O637   O     0.03309   0.78274   0.40087   0.00000  Uiso   1.00
H638   H     0.00050   0.77700   0.39916   0.00000  Uiso   1.00
O639   O     0.47044   0.67196   0.44229   0.00000  Uiso   1.00
H640   H     0.00164   0.67887   0.43272   0.00000  Uiso   1.00
O641   O     0.47964   0.82941   0.51779   0.00000  Uiso   1.00
H642   H     0.01192   0.82647   0.51136   0.00000  Uiso   1.00
O643   O     0.02095   0.71210   0.56975   0.00000  Uiso   1.00
H644   H     0.48862   0.71113   0.56198   0.00000  Uiso   1.00
O645   O     0.12344   0.78354   0.41238   0.00000  Uiso   1.00
C646   C     0.13143   0.74821   0.37649   0.00000  Uiso   1.00
H647   H     0.15056   0.71878   0.39333   0.00000  Uiso   1.00
H648   H     0.15182   0.76344   0.34589   0.00000  Uiso   1.00
H649   H     0.09981   0.73478   0.35911   0.00000  Uiso   1.00
O650   O     0.38092   0.67144   0.45692   0.00000  Uiso   1.00
C651   C     0.38495   0.63558   0.49327   0.00000  Uiso   1.00
H652   H     0.35914   0.60830   0.48523   0.00000  Uiso   1.00
H653   H     0.37923   0.64869   0.53214   0.00000  Uiso   1.00
H654   H     0.41809   0.61859   0.49128   0.00000  Uiso   1.00
O655   O     0.38967   0.83189   0.51949   0.00000  Uiso   1.00
C656   C     0.38729   0.86417   0.47927   0.00000  Uiso   1.00
H657   H     0.42097   0.87427   0.46547   0.00000  Uiso   1.00
H658   H     0.37132   0.89667   0.49279   0.00000  Uiso   1.00
H659   H     0.36649   0.85004   0.44765   0.00000  Uiso   1.00
O660   O     0.11199   0.71410   0.57734   0.00000  Uiso   1.00
C661   C     0.11405   0.66468   0.57775   0.00000  Uiso   1.00
H662   H     0.12975   0.65062   0.54317   0.00000  Uiso   1.00
H663   H     0.08038   0.64869   0.58261   0.00000  Uiso   1.00
H664   H     0.13506   0.65381   0.61026   0.00000  Uiso   1.00
O665   O     0.26476   0.53112   0.40911   0.00000  Uiso   1.00
H666   H     0.27539   0.99878   0.41453   0.00000  Uiso   1.00
O667   O     0.31797   0.96839   0.55429   0.00000  Uiso   1.00
H668   H     0.32145   0.50123   0.54297   0.00000  Uiso   1.00
O669   O     0.23575   0.53040   0.59034   0.00000  Uiso   1.00
H670   H     0.22594   0.99759   0.58467   0.00000  Uiso   1.00
O671   O     0.18545   0.97213   0.44750   0.00000  Uiso   1.00
H672   H     0.16106   0.95019   0.43756   0.00000  Uiso   1.00
C673   C     0.66418   0.74971   0.49983   0.00000  Uiso   1.00
C674   C     0.83635   0.75020   0.49834   0.00000  Uiso   1.00
C675   C     0.75217   0.60154   0.45557   0.00000  Uiso   1.00
C676   C     0.77912   0.89754   0.53091   0.00000  Uiso   1.00
C677   C     0.74768   0.60143   0.54433   0.00000  Uiso   1.00
C678   C     0.72094   0.89752   0.46955   0.00000  Uiso   1.00
C679   C     0.75606   0.55207   0.45487   0.00000  Uiso   1.00
C680   C     0.78299   0.94707   0.52839   0.00000  Uiso   1.00
C681   C     0.74451   0.55180   0.54479   0.00000  Uiso   1.00
C682   C     0.71877   0.94745   0.47182   0.00000  Uiso   1.00
C683   C     0.75019   0.74999   0.40628   0.00000  Uiso   1.00
C684   C     0.75008   0.75002   0.59373   0.00000  Uiso   1.00
C685   C     0.75069   0.52604   0.49981   0.00000  Uiso   1.00
C686   C     0.75130   0.97283   0.49970   0.00000  Uiso   1.00
C687   C     0.75034   0.74999   0.35517   0.00000  Uiso   1.00
C688   C     0.75027   0.75004   0.64484   0.00000  Uiso   1.00
C689   C     0.55104   0.76425   0.44469   0.00000  Uiso   1.00
C690   C     0.95166   0.71075   0.46483   0.00000  Uiso   1.00
C691   C     0.95625   0.79041   0.50024   0.00000  Uiso   1.00
C692   C     0.54498   0.72825   0.52893   0.00000  Uiso   1.00
C693   C     0.59721   0.76475   0.45005   0.00000  Uiso   1.00
C694   C     0.90579   0.71014   0.47261   0.00000  Uiso   1.00
C695   C     0.90991   0.79151   0.50248   0.00000  Uiso   1.00
C696   C     0.59132   0.72844   0.53316   0.00000  Uiso   1.00
C697   C     0.61668   0.74853   0.49480   0.00000  Uiso   1.00
C698   C     0.88470   0.75052   0.49168   0.00000  Uiso   1.00
C699   C     0.52497   0.74626   0.48446   0.00000  Uiso   1.00
C700   C     0.97693   0.74981   0.48155   0.00000  Uiso   1.00
N701   N     0.75000   0.62623   0.50000   0.00000  Uiso   1.00
N702   N     0.75000   0.87376   0.50000   0.00000  Uiso   1.00
O703   O     0.68453   0.78974   0.50000   0.00000  Uiso   1.00
O704   O     0.81547   0.71026   0.50000   0.00000  Uiso   1.00
O705   O     0.81547   0.78974   0.50000   0.00000  Uiso   1.00
O706   O     0.68453   0.71026   0.50000   0.00000  Uiso   1.00
O707   O     0.75000   0.78973   0.42845   0.00000  Uiso   1.00
O708   O     0.75000   0.71027   0.57155   0.00000  Uiso   1.00
O709   O     0.75000   0.78973   0.57155   0.00000  Uiso   1.00
O710   O     0.75000   0.71027   0.42845   0.00000  Uiso   1.00
Zn711  Zn    0.75000   0.80307   0.50000   0.00000  Uiso   1.00
Zn712  Zn    0.75000   0.69693   0.50000   0.00000  Uiso   1.00
O713   O     0.75288   0.62492   0.41032   0.00000  Uiso   1.00
C714   C     0.70941   0.62310   0.38911   0.00000  Uiso   1.00
H715   H     0.70869   0.64550   0.35505   0.00000  Uiso   1.00
H716   H     0.68407   0.63706   0.41546   0.00000  Uiso   1.00
H717   H     0.70015   0.58685   0.37723   0.00000  Uiso   1.00
O718   O     0.80722   0.87225   0.56197   0.00000  Uiso   1.00
C719   C     0.79403   0.87836   0.61237   0.00000  Uiso   1.00
H720   H     0.81096   0.85161   0.63586   0.00000  Uiso   1.00
H721   H     0.75735   0.87329   0.61714   0.00000  Uiso   1.00
H722   H     0.80449   0.91334   0.62693   0.00000  Uiso   1.00
O723   O     0.74540   0.62477   0.58958   0.00000  Uiso   1.00
C724   C     0.78811   0.62400   0.61267   0.00000  Uiso   1.00
H725   H     0.81408   0.63943   0.58783   0.00000  Uiso   1.00
H726   H     0.79752   0.58790   0.62410   0.00000  Uiso   1.00
H727   H     0.78735   0.64576   0.64723   0.00000  Uiso   1.00
O728   O     0.69269   0.87214   0.43810   0.00000  Uiso   1.00
C729   C     0.70752   0.87716   0.38809   0.00000  Uiso   1.00
H730   H     0.68986   0.85077   0.36426   0.00000  Uiso   1.00
H731   H     0.74403   0.87084   0.38460   0.00000  Uiso   1.00
H732   H     0.69945   0.91233   0.37282   0.00000  Uiso   1.00
O733   O     0.53309   0.78274   0.40087   0.00000  Uiso   1.00
H734   H     0.50050   0.77700   0.39916   0.00000  Uiso   1.00
O735   O     0.97044   0.67196   0.44229   0.00000  Uiso   1.00
H736   H     0.50164   0.67887   0.43272   0.00000  Uiso   1.00
O737   O     0.97964   0.82941   0.51779   0.00000  Uiso   1.00
H738   H     0.51192   0.82647   0.51136   0.00000  Uiso   1.00
O739   O     0.52095   0.71210   0.56975   0.00000  Uiso   1.00
H740   H     0.98862   0.71113   0.56198   0.00000  Uiso   1.00
O741   O     0.62344   0.78354   0.41238   0.00000  Uiso   1.00
C742   C     0.63143   0.74821   0.37649   0.00000  Uiso   1.00
H743   H     0.65056   0.71878   0.39333   0.00000  Uiso   1.00
H744   H     0.65182   0.76344   0.34589   0.00000  Uiso   1.00
H745   H     0.59981   0.73478   0.35911   0.00000  Uiso   1.00
O746   O     0.88092   0.67144   0.45692   0.00000  Uiso   1.00
C747   C     0.88495   0.63558   0.49327   0.00000  Uiso   1.00
H748   H     0.85914   0.60830   0.48523   0.00000  Uiso   1.00
H749   H     0.87923   0.64869   0.53214   0.00000  Uiso   1.00
H750   H     0.91809   0.61859   0.49128   0.00000  Uiso   1.00
O751   O     0.88967   0.83189   0.51949   0.00000  Uiso   1.00
C752   C     0.88729   0.86417   0.47927   0.00000  Uiso   1.00
H753   H     0.92097   0.87427   0.46547   0.00000  Uiso   1.00
H754   H     0.87132   0.89667   0.49279   0.00000  Uiso   1.00
H755   H     0.86649   0.85004   0.44765   0.00000  Uiso   1.00
O756   O     0.61199   0.71410   0.57734   0.00000  Uiso   1.00
C757   C     0.61405   0.66468   0.57775   0.00000  Uiso   1.00
H758   H     0.62975   0.65062   0.54317   0.00000  Uiso   1.00
H759   H     0.58038   0.64869   0.58261   0.00000  Uiso   1.00
H760   H     0.63506   0.65381   0.61026   0.00000  Uiso   1.00
O761   O     0.76476   0.53112   0.40911   0.00000  Uiso   1.00
H762   H     0.77539   0.99878   0.41453   0.00000  Uiso   1.00
O763   O     0.81797   0.96839   0.55429   0.00000  Uiso   1.00
H764   H     0.82145   0.50123   0.54297   0.00000  Uiso   1.00
O765   O     0.73575   0.53040   0.59034   0.00000  Uiso   1.00
H766   H     0.72594   0.99759   0.58467   0.00000  Uiso   1.00
O767   O     0.68545   0.97213   0.44750   0.00000  Uiso   1.00
H768   H     0.66106   0.95019   0.43756   0.00000  Uiso   1.00
C769   C     0.16418   0.24971   0.83316   0.00000  Uiso   1.00
C770   C     0.33635   0.25020   0.83167   0.00000  Uiso   1.00
C771   C     0.25217   0.10154   0.78890   0.00000  Uiso   1.00
C772   C     0.27912   0.39754   0.86424   0.00000  Uiso   1.00
C773   C     0.24768   0.10143   0.87766   0.00000  Uiso   1.00
C774   C     0.22094   0.39752   0.80288   0.00000  Uiso   1.00
C775   C     0.25606   0.05207   0.78820   0.00000  Uiso   1.00
C776   C     0.28299   0.44707   0.86172   0.00000  Uiso   1.00
C777   C     0.24451   0.05180   0.87812   0.00000  Uiso   1.00
C778   C     0.21877   0.44745   0.80516   0.00000  Uiso   1.00
C779   C     0.25019   0.24999   0.73961   0.00000  Uiso   1.00
C780   C     0.25008   0.25002   0.92706   0.00000  Uiso   1.00
C781   C     0.25069   0.02604   0.83314   0.00000  Uiso   1.00
C782   C     0.25130   0.47283   0.83303   0.00000  Uiso   1.00
C783   C     0.25034   0.24999   0.68851   0.00000  Uiso   1.00
C784   C     0.25027   0.25004   0.97817   0.00000  Uiso   1.00
C785   C     0.05104   0.26425   0.77802   0.00000  Uiso   1.00
C786   C     0.45166   0.21075   0.79816   0.00000  Uiso   1.00
C787   C     0.45625   0.29041   0.83357   0.00000  Uiso   1.00
C788   C     0.04498   0.22825   0.86227   0.00000  Uiso   1.00
C789   C     0.09721   0.26475   0.78339   0.00000  Uiso   1.00
C790   C     0.40579   0.21014   0.80594   0.00000  Uiso   1.00
C791   C     0.40991   0.29151   0.83582   0.00000  Uiso   1.00
C792   C     0.09132   0.22844   0.86649   0.00000  Uiso   1.00
C793   C     0.11668   0.24853   0.82813   0.00000  Uiso   1.00
C794   C     0.38470   0.25052   0.82502   0.00000  Uiso   1.00
C795   C     0.02497   0.24626   0.81779   0.00000  Uiso   1.00
C796   C     0.47693   0.24981   0.81489   0.00000  Uiso   1.00
N797   N     0.25000   0.12623   0.83333   0.00000  Uiso   1.00
N798   N     0.25000   0.37376   0.83333   0.00000  Uiso   1.00
O799   O     0.18453   0.28974   0.83334   0.00000  Uiso   1.00
O800   O     0.31547   0.21026   0.83333   0.00000  Uiso   1.00
O801   O     0.31547   0.28974   0.83333   0.00000  Uiso   1.00
O802   O     0.18453   0.21026   0.83334   0.00000  Uiso   1.00
O803   O     0.25000   0.28973   0.76178   0.00000  Uiso   1.00
O804   O     0.25000   0.21027   0.90489   0.00000  Uiso   1.00
O805   O     0.25000   0.28973   0.90489   0.00000  Uiso   1.00
O806   O     0.25000   0.21027   0.76178   0.00000  Uiso   1.00
Zn807  Zn    0.25000   0.30307   0.83333   0.00000  Uiso   1.00
Zn808  Zn    0.25000   0.19693   0.83333   0.00000  Uiso   1.00
O809   O     0.25288   0.12492   0.74365   0.00000  Uiso   1.00
C810   C     0.20941   0.12310   0.72245   0.00000  Uiso   1.00
H811   H     0.20869   0.14550   0.68838   0.00000  Uiso   1.00
H812   H     0.18407   0.13706   0.74880   0.00000  Uiso   1.00
H813   H     0.20015   0.08685   0.71056   0.00000  Uiso   1.00
O814   O     0.30722   0.37225   0.89530   0.00000  Uiso   1.00
C815   C     0.29403   0.37836   0.94570   0.00000  Uiso   1.00
H816   H     0.31096   0.35161   0.96920   0.00000  Uiso   1.00
H817   H     0.25735   0.37329   0.95048   0.00000  Uiso   1.00
H818   H     0.30449   0.41334   0.96026   0.00000  Uiso   1.00
O819   O     0.24540   0.12477   0.92291   0.00000  Uiso   1.00
C820   C     0.28811   0.12400   0.94600   0.00000  Uiso   1.00
H821   H     0.31408   0.13943   0.92116   0.00000  Uiso   1.00
H822   H     0.29752   0.08790   0.95744   0.00000  Uiso   1.00
H823   H     0.28735   0.14576   0.98057   0.00000  Uiso   1.00
O824   O     0.19269   0.37214   0.77143   0.00000  Uiso   1.00
C825   C     0.20752   0.37716   0.72142   0.00000  Uiso   1.00
H826   H     0.18986   0.35077   0.69759   0.00000  Uiso   1.00
H827   H     0.24403   0.37084   0.71794   0.00000  Uiso   1.00
H828   H     0.19945   0.41233   0.70615   0.00000  Uiso   1.00
O829   O     0.03309   0.28274   0.73420   0.00000  Uiso   1.00
H830   H     0.00050   0.27700   0.73249   0.00000  Uiso   1.00
O831   O     0.47044   0.17196   0.77563   0.00000  Uiso   1.00
H832   H     0.00164   0.17887   0.76606   0.00000  Uiso   1.00
O833   O     0.47964   0.32941   0.85112   0.00000  Uiso   1.00
H834   H     0.01192   0.32647   0.84469   0.00000  Uiso   1.00
O835   O     0.02095   0.21210   0.90308   0.00000  Uiso   1.00
H836   H     0.48862   0.21113   0.89531   0.00000  Uiso   1.00
O837   O     0.12344   0.28354   0.74571   0.00000  Uiso   1.00
C838   C     0.13143   0.24821   0.70983   0.00000  Uiso   1.00
H839   H     0.15056   0.21878   0.72666   0.00000  Uiso   1.00
H840   H     0.15182   0.26344   0.67923   0.00000  Uiso   1.00
H841   H     0.09981   0.23478   0.69244   0.00000  Uiso   1.00
O842   O     0.38092   0.17144   0.79026   0.00000  Uiso   1.00
C843   C     0.38495   0.13558   0.82661   0.00000  Uiso   1.00
H844   H     0.35914   0.10830   0.81856   0.00000  Uiso   1.00
H845   H     0.37923   0.14869   0.86547   0.00000  Uiso   1.00
H846   H     0.41809   0.11859   0.82462   0.00000  Uiso   1.00
O847   O     0.38967   0.33189   0.85282   0.00000  Uiso   1.00
C848   C     0.38729   0.36417   0.81260   0.00000  Uiso   1.00
H849   H     0.42097   0.37427   0.79880   0.00000  Uiso   1.00
H850   H     0.37132   0.39667   0.82613   0.00000  Uiso   1.00
H851   H     0.36649   0.35004   0.78099   0.00000  Uiso   1.00
O852   O     0.11199   0.21410   0.91067   0.00000  Uiso   1.00
C853   C     0.11405   0.16468   0.91109   0.00000  Uiso   1.00
H854   H     0.12975   0.15062   0.87650   0.00000  Uiso   1.00
H855   H     0.08038   0.14869   0.91595   0.00000  Uiso   1.00
H856   H     0.13506   0.15381   0.94359   0.00000  Uiso   1.00
O857   O     0.26476   0.03112   0.74244   0.00000  Uiso   1.00
H858   H     0.27539   0.49878   0.74787   0.00000  Uiso   1.00
O859   O     0.31797   0.46839   0.88762   0.00000  Uiso   1.00
H860   H     0.32145   0.00123   0.87631   0.00000  Uiso   1.00
O861   O     0.23575   0.03040   0.92367   0.00000  Uiso   1.00
H862   H     0.22594   0.49759   0.91801   0.00000  Uiso   1.00
O863   O     0.18545   0.47213   0.78083   0.00000  Uiso   1.00
H864   H     0.16106   0.45019   0.77090   0.00000  Uiso   1.00
C865   C     0.66418   0.24971   0.83316   0.00000  Uiso   1.00
C866   C     0.83635   0.25020   0.83167   0.00000  Uiso   1.00
C867   C     0.75217   0.10154   0.78890   0.00000  Uiso   1.00
C868   C     0.77912   0.39754   0.86424   0.00000  Uiso   1.00
C869   C     0.74768   0.10143   0.87766   0.00000  Uiso   1.00
C870   C     0.72094   0.39752   0.80288   0.00000  Uiso   1.00
C871   C     0.75606   0.05207   0.78820   0.00000  Uiso   1.00
C872   C     0.78299   0.44707   0.86172   0.00000  Uiso   1.00
C873   C     0.74451   0.05180   0.87812   0.00000  Uiso   1.00
C874   C     0.71877   0.44745   0.80516   0.00000  Uiso   1.00
C875   C     0.75019   0.24999   0.73961   0.00000  Uiso   1.00
C876   C     0.75008   0.25002   0.92706   0.00000  Uiso   1.00
C877   C     0.75069   0.02604   0.83314   0.00000  Uiso   1.00
C878   C     0.75130   0.47283   0.83303   0.00000  Uiso   1.00
C879   C     0.75034   0.24999   0.68851   0.00000  Uiso   1.00
C880   C     0.75027   0.25004   0.97817   0.00000  Uiso   1.00
C881   C     0.55104   0.26425   0.77802   0.00000  Uiso   1.00
C882   C     0.95166   0.21075   0.79816   0.00000  Uiso   1.00
C883   C     0.95625   0.29041   0.83357   0.00000  Uiso   1.00
C884   C     0.54498   0.22825   0.86227   0.00000  Uiso   1.00
C885   C     0.59721   0.26475   0.78339   0.00000  Uiso   1.00
C886   C     0.90579   0.21014   0.80594   0.00000  Uiso   1.00
C887   C     0.90991   0.29151   0.83582   0.00000  Uiso   1.00
C888   C     0.59132   0.22844   0.86649   0.00000  Uiso   1.00
C889   C     0.61668   0.24853   0.82813   0.00000  Uiso   1.00
C890   C     0.88470   0.25052   0.82502   0.00000  Uiso   1.00
C891   C     0.52497   0.24626   0.81779   0.00000  Uiso   1.00
C892   C     0.97693   0.24981   0.81489   0.00000  Uiso   1.00
N893   N     0.75000   0.12623   0.83333   0.00000  Uiso   1.00
N894   N     0.75000   0.37376   0.83333   0.00000  Uiso   1.00
O895   O     0.68453   0.28974   0.83334   0.00000  Uiso   1.00
O896   O     0.81547   0.21026   0.83333   0.00000  Uiso   1.00
O897   O     0.81547   0.28974   0.83333   0.00000  Uiso   1.00
O898   O     0.68453   0.21026   0.83334   0.00000  Uiso   1.00
O899   O     0.75000   0.28973   0.76178   0.00000  Uiso   1.00
O900   O     0.75000   0.21027   0.90489   0.00000  Uiso   1.00
O901   O     0.75000   0.28973   0.90489   0.00000  Uiso   1.00
O902   O     0.75000   0.21027   0.76178   0.00000  Uiso   1.00
Zn903  Zn    0.75000   0.30307   0.83333   0.00000  Uiso   1.00
Zn904  Zn    0.75000   0.19693   0.83333   0.00000  Uiso   1.00
O905   O     0.75288   0.12492   0.74365   0.00000  Uiso   1.00
C906   C     0.70941   0.12310   0.72245   0.00000  Uiso   1.00
H907   H     0.70869   0.14550   0.68838   0.00000  Uiso   1.00
H908   H     0.68407   0.13706   0.74880   0.00000  Uiso   1.00
H909   H     0.70015   0.08685   0.71056   0.00000  Uiso   1.00
O910   O     0.80722   0.37225   0.89530   0.00000  Uiso   1.00
C911   C     0.79403   0.37836   0.94570   0.00000  Uiso   1.00
H912   H     0.81096   0.35161   0.96920   0.00000  Uiso   1.00
H913   H     0.75735   0.37329   0.95048   0.00000  Uiso   1.00
H914   H     0.80449   0.41334   0.96026   0.00000  Uiso   1.00
O915   O     0.74540   0.12477   0.92291   0.00000  Uiso   1.00
C916   C     0.78811   0.12400   0.94600   0.00000  Uiso   1.00
H917   H     0.81408   0.13943   0.92116   0.00000  Uiso   1.00
H918   H     0.79752   0.08790   0.95744   0.00000  Uiso   1.00
H919   H     0.78735   0.14576   0.98057   0.00000  Uiso   1.00
O920   O     0.69269   0.37214   0.77143   0.00000  Uiso   1.00
C921   C     0.70752   0.37716   0.72142   0.00000  Uiso   1.00
H922   H     0.68986   0.35077   0.69759   0.00000  Uiso   1.00
H923   H     0.74403   0.37084   0.71794   0.00000  Uiso   1.00
H924   H     0.69945   0.41233   0.70615   0.00000  Uiso   1.00
O925   O     0.53309   0.28274   0.73420   0.00000  Uiso   1.00
H926   H     0.50050   0.27700   0.73249   0.00000  Uiso   1.00
O927   O     0.97044   0.17196   0.77563   0.00000  Uiso   1.00
H928   H     0.50164   0.17887   0.76606   0.00000  Uiso   1.00
O929   O     0.97964   0.32941   0.85112   0.00000  Uiso   1.00
H930   H     0.51192   0.32647   0.84469   0.00000  Uiso   1.00
O931   O     0.52095   0.21210   0.90308   0.00000  Uiso   1.00
H932   H     0.98862   0.21113   0.89531   0.00000  Uiso   1.00
O933   O     0.62344   0.28354   0.74571   0.00000  Uiso   1.00
C934   C     0.63143   0.24821   0.70983   0.00000  Uiso   1.00
H935   H     0.65056   0.21878   0.72666   0.00000  Uiso   1.00
H936   H     0.65182   0.26344   0.67923   0.00000  Uiso   1.00
H937   H     0.59981   0.23478   0.69244   0.00000  Uiso   1.00
O938   O     0.88092   0.17144   0.79026   0.00000  Uiso   1.00
C939   C     0.88495   0.13558   0.82661   0.00000  Uiso   1.00
H940   H     0.85914   0.10830   0.81856   0.00000  Uiso   1.00
H941   H     0.87923   0.14869   0.86547   0.00000  Uiso   1.00
H942   H     0.91809   0.11859   0.82462   0.00000  Uiso   1.00
O943   O     0.88967   0.33189   0.85282   0.00000  Uiso   1.00
C944   C     0.88729   0.36417   0.81260   0.00000  Uiso   1.00
H945   H     0.92097   0.37427   0.79880   0.00000  Uiso   1.00
H946   H     0.87132   0.39667   0.82613   0.00000  Uiso   1.00
H947   H     0.86649   0.35004   0.78099   0.00000  Uiso   1.00
O948   O     0.61199   0.21410   0.91067   0.00000  Uiso   1.00
C949   C     0.61405   0.16468   0.91109   0.00000  Uiso   1.00
H950   H     0.62975   0.15062   0.87650   0.00000  Uiso   1.00
H951   H     0.58038   0.14869   0.91595   0.00000  Uiso   1.00
H952   H     0.63506   0.15381   0.94359   0.00000  Uiso   1.00
O953   O     0.76476   0.03112   0.74244   0.00000  Uiso   1.00
H954   H     0.77539   0.49878   0.74787   0.00000  Uiso   1.00
O955   O     0.81797   0.46839   0.88762   0.00000  Uiso   1.00
H956   H     0.82145   0.00123   0.87631   0.00000  Uiso   1.00
O957   O     0.73575   0.03040   0.92367   0.00000  Uiso   1.00
H958   H     0.72594   0.49759   0.91801   0.00000  Uiso   1.00
O959   O     0.68545   0.47213   0.78083   0.00000  Uiso   1.00
H960   H     0.66106   0.45019   0.77090   0.00000  Uiso   1.00
C961   C     0.16418   0.74971   0.83316   0.00000  Uiso   1.00
C962   C     0.33635   0.75020   0.83167   0.00000  Uiso   1.00
C963   C     0.25217   0.60154   0.78890   0.00000  Uiso   1.00
C964   C     0.27912   0.89754   0.86424   0.00000  Uiso   1.00
C965   C     0.24768   0.60143   0.87766   0.00000  Uiso   1.00
C966   C     0.22094   0.89752   0.80288   0.00000  Uiso   1.00
C967   C     0.25606   0.55207   0.78820   0.00000  Uiso   1.00
C968   C     0.28299   0.94707   0.86172   0.00000  Uiso   1.00
C969   C     0.24451   0.55180   0.87812   0.00000  Uiso   1.00
C970   C     0.21877   0.94745   0.80516   0.00000  Uiso   1.00
C971   C     0.25019   0.74999   0.73961   0.00000  Uiso   1.00
C972   C     0.25008   0.75002   0.92706   0.00000  Uiso   1.00
C973   C     0.25069   0.52604   0.83314   0.00000  Uiso   1.00
C974   C     0.25130   0.97283   0.83303   0.00000  Uiso   1.00
C975   C     0.25034   0.74999   0.68851   0.00000  Uiso   1.00
C976   C     0.25027   0.75004   0.97817   0.00000  Uiso   1.00
C977   C     0.05104   0.76425   0.77802   0.00000  Uiso   1.00
C978   C     0.45166   0.71075   0.79816   0.00000  Uiso   1.00
C979   C     0.45625   0.79041   0.83357   0.00000  Uiso   1.00
C980   C     0.04498   0.72825   0.86227   0.00000  Uiso   1.00
C981   C     0.09721   0.76475   0.78339   0.00000  Uiso   1.00
C982   C     0.40579   0.71014   0.80594   0.00000  Uiso   1.00
C983   C     0.40991   0.79151   0.83582   0.00000  Uiso   1.00
C984   C     0.09132   0.72844   0.86649   0.00000  Uiso   1.00
C985   C     0.11668   0.74853   0.82813   0.00000  Uiso   1.00
C986   C     0.38470   0.75052   0.82502   0.00000  Uiso   1.00
C987   C     0.02497   0.74626   0.81779   0.00000  Uiso   1.00
C988   C     0.47693   0.74981   0.81489   0.00000  Uiso   1.00
N989   N     0.25000   0.62623   0.83333   0.00000  Uiso   1.00
N990   N     0.25000   0.87376   0.83333   0.00000  Uiso   1.00
O991   O     0.18453   0.78974   0.83334   0.00000  Uiso   1.00
O992   O     0.31547   0.71026   0.83333   0.00000  Uiso   1.00
O993   O     0.31547   0.78974   0.83333   0.00000  Uiso   1.00
O994   O     0.18453   0.71026   0.83334   0.00000  Uiso   1.00
O995   O     0.25000   0.78973   0.76178   0.00000  Uiso   1.00
O996   O     0.25000   0.71027   0.90489   0.00000  Uiso   1.00
O997   O     0.25000   0.78973   0.90489   0.00000  Uiso   1.00
O998   O     0.25000   0.71027   0.76178   0.00000  Uiso   1.00
Zn999  Zn    0.25000   0.80307   0.83333   0.00000  Uiso   1.00
Zn1000 Zn    0.25000   0.69693   0.83333   0.00000  Uiso   1.00
O1001  O     0.25288   0.62492   0.74365   0.00000  Uiso   1.00
C1002  C     0.20941   0.62310   0.72245   0.00000  Uiso   1.00
H1003  H     0.20869   0.64550   0.68838   0.00000  Uiso   1.00
H1004  H     0.18407   0.63706   0.74880   0.00000  Uiso   1.00
H1005  H     0.20015   0.58685   0.71056   0.00000  Uiso   1.00
O1006  O     0.30722   0.87225   0.89530   0.00000  Uiso   1.00
C1007  C     0.29403   0.87836   0.94570   0.00000  Uiso   1.00
H1008  H     0.31096   0.85161   0.96920   0.00000  Uiso   1.00
H1009  H     0.25735   0.87329   0.95048   0.00000  Uiso   1.00
H1010  H     0.30449   0.91334   0.96026   0.00000  Uiso   1.00
O1011  O     0.24540   0.62477   0.92291   0.00000  Uiso   1.00
C1012  C     0.28811   0.62400   0.94600   0.00000  Uiso   1.00
H1013  H     0.31408   0.63943   0.92116   0.00000  Uiso   1.00
H1014  H     0.29752   0.58790   0.95744   0.00000  Uiso   1.00
H1015  H     0.28735   0.64576   0.98057   0.00000  Uiso   1.00
O1016  O     0.19269   0.87214   0.77143   0.00000  Uiso   1.00
C1017  C     0.20752   0.87716   0.72142   0.00000  Uiso   1.00
H1018  H     0.18986   0.85077   0.69759   0.00000  Uiso   1.00
H1019  H     0.24403   0.87084   0.71794   0.00000  Uiso   1.00
H1020  H     0.19945   0.91233   0.70615   0.00000  Uiso   1.00
O1021  O     0.03309   0.78274   0.73420   0.00000  Uiso   1.00
H1022  H     0.00050   0.77700   0.73249   0.00000  Uiso   1.00
O1023  O     0.47044   0.67196   0.77563   0.00000  Uiso   1.00
H1024  H     0.00164   0.67887   0.76606   0.00000  Uiso   1.00
O1025  O     0.47964   0.82941   0.85112   0.00000  Uiso   1.00
H1026  H     0.01192   0.82647   0.84469   0.00000  Uiso   1.00
O1027  O     0.02095   0.71210   0.90308   0.00000  Uiso   1.00
H1028  H     0.48862   0.71113   0.89531   0.00000  Uiso   1.00
O1029  O     0.12344   0.78354   0.74571   0.00000  Uiso   1.00
C1030  C     0.13143   0.74821   0.70983   0.00000  Uiso   1.00
H1031  H     0.15056   0.71878   0.72666   0.00000  Uiso   1.00
H1032  H     0.15182   0.76344   0.67923   0.00000  Uiso   1.00
H1033  H     0.09981   0.73478   0.69244   0.00000  Uiso   1.00
O1034  O     0.38092   0.67144   0.79026   0.00000  Uiso   1.00
C1035  C     0.38495   0.63558   0.82661   0.00000  Uiso   1.00
H1036  H     0.35914   0.60830   0.81856   0.00000  Uiso   1.00
H1037  H     0.37923   0.64869   0.86547   0.00000  Uiso   1.00
H1038  H     0.41809   0.61859   0.82462   0.00000  Uiso   1.00
O1039  O     0.38967   0.83189   0.85282   0.00000  Uiso   1.00
C1040  C     0.38729   0.86417   0.81260   0.00000  Uiso   1.00
H1041  H     0.42097   0.87427   0.79880   0.00000  Uiso   1.00
H1042  H     0.37132   0.89667   0.82613   0.00000  Uiso   1.00
H1043  H     0.36649   0.85004   0.78099   0.00000  Uiso   1.00
O1044  O     0.11199   0.71410   0.91067   0.00000  Uiso   1.00
C1045  C     0.11405   0.66468   0.91109   0.00000  Uiso   1.00
H1046  H     0.12975   0.65062   0.87650   0.00000  Uiso   1.00
H1047  H     0.08038   0.64869   0.91595   0.00000  Uiso   1.00
H1048  H     0.13506   0.65381   0.94359   0.00000  Uiso   1.00
O1049  O     0.26476   0.53112   0.74244   0.00000  Uiso   1.00
H1050  H     0.27539   0.99878   0.74787   0.00000  Uiso   1.00
O1051  O     0.31797   0.96839   0.88762   0.00000  Uiso   1.00
H1052  H     0.32145   0.50123   0.87631   0.00000  Uiso   1.00
O1053  O     0.23575   0.53040   0.92367   0.00000  Uiso   1.00
H1054  H     0.22594   0.99759   0.91801   0.00000  Uiso   1.00
O1055  O     0.18545   0.97213   0.78083   0.00000  Uiso   1.00
H1056  H     0.16106   0.95019   0.77090   0.00000  Uiso   1.00
C1057  C     0.66418   0.74971   0.83316   0.00000  Uiso   1.00
C1058  C     0.83635   0.75020   0.83167   0.00000  Uiso   1.00
C1059  C     0.75217   0.60154   0.78890   0.00000  Uiso   1.00
C1060  C     0.77912   0.89754   0.86424   0.00000  Uiso   1.00
C1061  C     0.74768   0.60143   0.87766   0.00000  Uiso   1.00
C1062  C     0.72094   0.89752   0.80288   0.00000  Uiso   1.00
C1063  C     0.75606   0.55207   0.78820   0.00000  Uiso   1.00
C1064  C     0.78299   0.94707   0.86172   0.00000  Uiso   1.00
C1065  C     0.74451   0.55180   0.87812   0.00000  Uiso   1.00
C1066  C     0.71877   0.94745   0.80516   0.00000  Uiso   1.00
C1067  C     0.75019   0.74999   0.73961   0.00000  Uiso   1.00
C1068  C     0.75008   0.75002   0.92706   0.00000  Uiso   1.00
C1069  C     0.75069   0.52604   0.83314   0.00000  Uiso   1.00
C1070  C     0.75130   0.97283   0.83303   0.00000  Uiso   1.00
C1071  C     0.75034   0.74999   0.68851   0.00000  Uiso   1.00
C1072  C     0.75027   0.75004   0.97817   0.00000  Uiso   1.00
C1073  C     0.55104   0.76425   0.77802   0.00000  Uiso   1.00
C1074  C     0.95166   0.71075   0.79816   0.00000  Uiso   1.00
C1075  C     0.95625   0.79041   0.83357   0.00000  Uiso   1.00
C1076  C     0.54498   0.72825   0.86227   0.00000  Uiso   1.00
C1077  C     0.59721   0.76475   0.78339   0.00000  Uiso   1.00
C1078  C     0.90579   0.71014   0.80594   0.00000  Uiso   1.00
C1079  C     0.90991   0.79151   0.83582   0.00000  Uiso   1.00
C1080  C     0.59132   0.72844   0.86649   0.00000  Uiso   1.00
C1081  C     0.61668   0.74853   0.82813   0.00000  Uiso   1.00
C1082  C     0.88470   0.75052   0.82502   0.00000  Uiso   1.00
C1083  C     0.52497   0.74626   0.81779   0.00000  Uiso   1.00
C1084  C     0.97693   0.74981   0.81489   0.00000  Uiso   1.00
N1085  N     0.75000   0.62623   0.83333   0.00000  Uiso   1.00
N1086  N     0.75000   0.87376   0.83333   0.00000  Uiso   1.00
O1087  O     0.68453   0.78974   0.83334   0.00000  Uiso   1.00
O1088  O     0.81547   0.71026   0.83333   0.00000  Uiso   1.00
O1089  O     0.81547   0.78974   0.83333   0.00000  Uiso   1.00
O1090  O     0.68453   0.71026   0.83334   0.00000  Uiso   1.00
O1091  O     0.75000   0.78973   0.76178   0.00000  Uiso   1.00
O1092  O     0.75000   0.71027   0.90489   0.00000  Uiso   1.00
O1093  O     0.75000   0.78973   0.90489   0.00000  Uiso   1.00
O1094  O     0.75000   0.71027   0.76178   0.00000  Uiso   1.00
Zn1095 Zn    0.75000   0.80307   0.83333   0.00000  Uiso   1.00
Zn1096 Zn    0.75000   0.69693   0.83333   0.00000  Uiso   1.00
O1097  O     0.75288   0.62492   0.74365   0.00000  Uiso   1.00
C1098  C     0.70941   0.62310   0.72245   0.00000  Uiso   1.00
H1099  H     0.70869   0.64550   0.68838   0.00000  Uiso   1.00
H1100  H     0.68407   0.63706   0.74880   0.00000  Uiso   1.00
H1101  H     0.70015   0.58685   0.71056   0.00000  Uiso   1.00
O1102  O     0.80722   0.87225   0.89530   0.00000  Uiso   1.00
C1103  C     0.79403   0.87836   0.94570   0.00000  Uiso   1.00
H1104  H     0.81096   0.85161   0.96920   0.00000  Uiso   1.00
H1105  H     0.75735   0.87329   0.95048   0.00000  Uiso   1.00
H1106  H     0.80449   0.91334   0.96026   0.00000  Uiso   1.00
O1107  O     0.74540   0.62477   0.92291   0.00000  Uiso   1.00
C1108  C     0.78811   0.62400   0.94600   0.00000  Uiso   1.00
H1109  H     0.81408   0.63943   0.92116   0.00000  Uiso   1.00
H1110  H     0.79752   0.58790   0.95744   0.00000  Uiso   1.00
H1111  H     0.78735   0.64576   0.98057   0.00000  Uiso   1.00
O1112  O     0.69269   0.87214   0.77143   0.00000  Uiso   1.00
C1113  C     0.70752   0.87716   0.72142   0.00000  Uiso   1.00
H1114  H     0.68986   0.85077   0.69759   0.00000  Uiso   1.00
H1115  H     0.74403   0.87084   0.71794   0.00000  Uiso   1.00
H1116  H     0.69945   0.91233   0.70615   0.00000  Uiso   1.00
O1117  O     0.53309   0.78274   0.73420   0.00000  Uiso   1.00
H1118  H     0.50050   0.77700   0.73249   0.00000  Uiso   1.00
O1119  O     0.97044   0.67196   0.77563   0.00000  Uiso   1.00
H1120  H     0.50164   0.67887   0.76606   0.00000  Uiso   1.00
O1121  O     0.97964   0.82941   0.85112   0.00000  Uiso   1.00
H1122  H     0.51192   0.82647   0.84469   0.00000  Uiso   1.00
O1123  O     0.52095   0.71210   0.90308   0.00000  Uiso   1.00
H1124  H     0.98862   0.71113   0.89531   0.00000  Uiso   1.00
O1125  O     0.62344   0.78354   0.74571   0.00000  Uiso   1.00
C1126  C     0.63143   0.74821   0.70983   0.00000  Uiso   1.00
H1127  H     0.65056   0.71878   0.72666   0.00000  Uiso   1.00
H1128  H     0.65182   0.76344   0.67923   0.00000  Uiso   1.00
H1129  H     0.59981   0.73478   0.69244   0.00000  Uiso   1.00
O1130  O     0.88092   0.67144   0.79026   0.00000  Uiso   1.00
C1131  C     0.88495   0.63558   0.82661   0.00000  Uiso   1.00
H1132  H     0.85914   0.60830   0.81856   0.00000  Uiso   1.00
H1133  H     0.87923   0.64869   0.86547   0.00000  Uiso   1.00
H1134  H     0.91809   0.61859   0.82462   0.00000  Uiso   1.00
O1135  O     0.88967   0.83189   0.85282   0.00000  Uiso   1.00
C1136  C     0.88729   0.86417   0.81260   0.00000  Uiso   1.00
H1137  H     0.92097   0.87427   0.79880   0.00000  Uiso   1.00
H1138  H     0.87132   0.89667   0.82613   0.00000  Uiso   1.00
H1139  H     0.86649   0.85004   0.78099   0.00000  Uiso   1.00
O1140  O     0.61199   0.71410   0.91067   0.00000  Uiso   1.00
C1141  C     0.61405   0.66468   0.91109   0.00000  Uiso   1.00
H1142  H     0.62975   0.65062   0.87650   0.00000  Uiso   1.00
H1143  H     0.58038   0.64869   0.91595   0.00000  Uiso   1.00
H1144  H     0.63506   0.65381   0.94359   0.00000  Uiso   1.00
O1145  O     0.76476   0.53112   0.74244   0.00000  Uiso   1.00
H1146  H     0.77539   0.99878   0.74787   0.00000  Uiso   1.00
O1147  O     0.81797   0.96839   0.88762   0.00000  Uiso   1.00
H1148  H     0.82145   0.50123   0.87631   0.00000  Uiso   1.00
O1149  O     0.73575   0.53040   0.92367   0.00000  Uiso   1.00
H1150  H     0.72594   0.99759   0.91801   0.00000  Uiso   1.00
O1151  O     0.68545   0.97213   0.78083   0.00000  Uiso   1.00
H1152  H     0.66106   0.95019   0.77090   0.00000  Uiso   1.00
loop_
_geom_bond_atom_site_label_1
_geom_bond_atom_site_label_2
_geom_bond_distance
_geom_bond_site_symmetry_2
_ccdc_geom_bond_type
C1     O31     1.288   .     A
C1     C25     1.427   .     S
C1     O34     1.285   .     A
C2     O32     1.295   .     A
C2     C26     1.460   .     S
C2     O33     1.296   .     A
C3     C7      1.417   .     A
C3     N29     1.377   .     A
C3     O41     1.377   .     S
C4     C8      1.418   .     A
C4     O46     1.381   .     S
C4     N30     1.366   .     A
C5     N29     1.378   .     A
C5     C9      1.417   .     A
C5     O51     1.377   .     S
C6     N30     1.367   .     A
C6     O56     1.382   .     S
C6     C10     1.427   .     A
C7     O89     1.383   .     S
C7     C13     1.417   .     A
C8     O91     1.382   .     S
C8     C14     1.422   .     A
C9     C13     1.418   .     A
C9     O93     1.383   .     S
C10    C14     1.411   .     A
C10    O95     1.382   .     S
C11    C15     1.359   .     S
C11    O38     1.277   .     A
C11    O35     1.277   .     A
C12    O37     1.277   .     A
C12    O36     1.277   .     A
C12    C16     1.359   .     S
C13    C206    1.518   1_545 S
C14    C205    1.518   .     S
C15    C784    1.161   1_554 S
C16    C399    1.161   .     S
C17    O61     1.385   .     S
C17    C27     1.415   .     A
C17    C21     1.388   .     A
C18    O63     1.385   .     S
C18    C28     1.409   .     A
C18    C22     1.391   .     A
C19    C23     1.390   .     A
C19    C28     1.411   .     A
C19    O65     1.386   .     S
C20    O67     1.385   .     S
C20    C24     1.391   .     A
C20    C27     1.419   .     A
C21    O69     1.385   .     S
C21    C25     1.400   .     A
C22    O74     1.386   .     S
C22    C26     1.415   .     A
C23    C26     1.412   .     A
C23    O79     1.384   .     S
C24    C25     1.398   .     A
C24    O84     1.386   .     S
C27    C124    1.444   1_455 S
C28    C123    1.444   .     S
N29    Zn40    2.016   .     S
N30    Zn39    2.016   .     S
O31    Zn39    1.993   .     S
O32    Zn40    1.993   .     S
O33    Zn39    2.000   .     S
O34    Zn40    2.000   .     S
O35    Zn39    1.940   .     S
O36    Zn40    1.940   .     S
O37    Zn39    1.941   .     S
O38    Zn40    1.941   .     S
O41    C42     1.413   .     S
C42    H44     1.115   .     S
C42    H45     1.112   .     S
C42    H43     1.109   .     S
O46    C47     1.412   .     S
C47    H49     1.115   .     S
C47    H50     1.110   .     S
C47    H48     1.109   .     S
O51    C52     1.413   .     S
C52    H55     1.109   .     S
C52    H54     1.112   .     S
C52    H53     1.113   .     S
O56    C57     1.413   .     S
C57    H59     1.114   .     S
C57    H60     1.110   .     S
C57    H58     1.109   .     S
O61    H62     0.988   .     S
O63    H160    0.989   .     S
H64    O159    0.989   1_455 S
O65    H162    0.988   .     S
H66    O161    0.988   1_455 S
O67    H164    0.987   1_455 S
H68    O163    0.987   .     S
O69    C70     1.411   .     S
C70    H71     1.112   .     S
C70    H73     1.113   .     S
C70    H72     1.109   .     S
O74    C75     1.413   .     S
C75    H76     1.110   .     S
C75    H77     1.114   .     S
C75    H78     1.110   .     S
O79    C80     1.413   .     S
C80    H83     1.113   .     S
C80    H82     1.108   .     S
C80    H81     1.112   .     S
O84    C85     1.411   .     S
C85    H86     1.113   .     S
C85    H87     1.111   .     S
C85    H88     1.110   .     S
O89    H282    0.989   1_545 S
H90    O281    0.989   .     S
O91    H284    0.989   .     S
H92    O283    0.989   1_545 S
O93    H286    0.989   1_545 S
H94    O285    0.989   .     S
O95    H96     0.990   .     S
C97    O127    1.288   .     A
C97    C121    1.427   .     S
C97    O130    1.285   .     A
C98    O128    1.295   .     A
C98    C122    1.460   .     S
C98    O129    1.296   .     A
C99    C103    1.417   .     A
C99    N125    1.377   .     A
C99    O137    1.377   .     S
C100   C104    1.418   .     A
C100   O142    1.381   .     S
C100   N126    1.366   .     A
C101   N125    1.378   .     A
C101   C105    1.417   .     A
C101   O147    1.377   .     S
C102   N126    1.367   .     A
C102   O152    1.382   .     S
C102   C106    1.427   .     A
C103   O185    1.383   .     S
C103   C109    1.417   .     A
C104   O187    1.382   .     S
C104   C110    1.422   .     A
C105   C109    1.418   .     A
C105   O189    1.383   .     S
C106   C110    1.411   .     A
C106   O191    1.382   .     S
C107   C111    1.359   .     S
C107   O134    1.277   .     A
C107   O131    1.277   .     A
C108   O133    1.277   .     A
C108   O132    1.277   .     A
C108   C112    1.359   .     S
C109   C302    1.518   1_545 S
C110   C301    1.518   .     S
C111   C880    1.161   1_554 S
C112   C495    1.161   .     S
C113   O157    1.385   .     S
C113   C123    1.415   .     A
C113   C117    1.388   .     A
C114   O159    1.385   .     S
C114   C124    1.409   .     A
C114   C118    1.391   .     A
C115   C119    1.390   .     A
C115   C124    1.411   .     A
C115   O161    1.386   .     S
C116   O163    1.385   .     S
C116   C120    1.391   .     A
C116   C123    1.419   .     A
C117   O165    1.385   .     S
C117   C121    1.400   .     A
C118   O170    1.386   .     S
C118   C122    1.415   .     A
C119   C122    1.412   .     A
C119   O175    1.384   .     S
C120   C121    1.398   .     A
C120   O180    1.386   .     S
C124   C27     1.444   1_655 S
N125   Zn136   2.016   .     S
N126   Zn135   2.016   .     S
O127   Zn135   1.993   .     S
O128   Zn136   1.993   .     S
O129   Zn135   2.000   .     S
O130   Zn136   2.000   .     S
O131   Zn135   1.940   .     S
O132   Zn136   1.940   .     S
O133   Zn135   1.941   .     S
O134   Zn136   1.941   .     S
O137   C138    1.413   .     S
C138   H140    1.115   .     S
C138   H141    1.112   .     S
C138   H139    1.109   .     S
O142   C143    1.412   .     S
C143   H145    1.115   .     S
C143   H146    1.110   .     S
C143   H144    1.109   .     S
O147   C148    1.413   .     S
C148   H151    1.109   .     S
C148   H150    1.112   .     S
C148   H149    1.113   .     S
O152   C153    1.413   .     S
C153   H155    1.114   .     S
C153   H156    1.110   .     S
C153   H154    1.109   .     S
O157   H158    0.988   .     S
O159   H64     0.989   1_655 S
O161   H66     0.988   1_655 S
H164   O67     0.987   1_655 S
O165   C166    1.411   .     S
C166   H167    1.112   .     S
C166   H169    1.113   .     S
C166   H168    1.109   .     S
O170   C171    1.413   .     S
C171   H172    1.110   .     S
C171   H173    1.114   .     S
C171   H174    1.110   .     S
O175   C176    1.413   .     S
C176   H179    1.113   .     S
C176   H178    1.108   .     S
C176   H177    1.112   .     S
O180   C181    1.411   .     S
C181   H182    1.113   .     S
C181   H183    1.111   .     S
C181   H184    1.110   .     S
O185   H378    0.989   1_545 S
H186   O377    0.989   .     S
O187   H380    0.989   .     S
H188   O379    0.989   1_545 S
O189   H382    0.989   1_545 S
H190   O381    0.989   .     S
O191   H192    0.990   .     S
C193   O223    1.288   .     A
C193   C217    1.427   .     S
C193   O226    1.285   .     A
C194   O224    1.295   .     A
C194   C218    1.460   .     S
C194   O225    1.296   .     A
C195   C199    1.417   .     A
C195   N221    1.377   .     A
C195   O233    1.377   .     S
C196   C200    1.418   .     A
C196   O238    1.381   .     S
C196   N222    1.366   .     A
C197   N221    1.378   .     A
C197   C201    1.417   .     A
C197   O243    1.377   .     S
C198   N222    1.367   .     A
C198   O248    1.382   .     S
C198   C202    1.427   .     A
C199   O281    1.383   .     S
C199   C205    1.417   .     A
C200   O283    1.382   .     S
C200   C206    1.422   .     A
C201   C205    1.418   .     A
C201   O285    1.383   .     S
C202   C206    1.411   .     A
C202   O287    1.382   .     S
C203   C207    1.359   .     S
C203   O230    1.277   .     A
C203   O227    1.277   .     A
C204   O229    1.277   .     A
C204   O228    1.277   .     A
C204   C208    1.359   .     S
C206   C13     1.518   1_565 S
C207   C976    1.161   1_554 S
C208   C591    1.161   .     S
C209   O253    1.385   .     S
C209   C219    1.415   .     A
C209   C213    1.388   .     A
C210   O255    1.385   .     S
C210   C220    1.409   .     A
C210   C214    1.391   .     A
C211   C215    1.390   .     A
C211   C220    1.411   .     A
C211   O257    1.386   .     S
C212   O259    1.385   .     S
C212   C216    1.391   .     A
C212   C219    1.419   .     A
C213   O261    1.385   .     S
C213   C217    1.400   .     A
C214   O266    1.386   .     S
C214   C218    1.415   .     A
C215   C218    1.412   .     A
C215   O271    1.384   .     S
C216   C217    1.398   .     A
C216   O276    1.386   .     S
C219   C316    1.444   1_455 S
C220   C315    1.444   .     S
N221   Zn232   2.016   .     S
N222   Zn231   2.016   .     S
O223   Zn231   1.993   .     S
O224   Zn232   1.993   .     S
O225   Zn231   2.000   .     S
O226   Zn232   2.000   .     S
O227   Zn231   1.940   .     S
O228   Zn232   1.940   .     S
O229   Zn231   1.941   .     S
O230   Zn232   1.941   .     S
O233   C234    1.413   .     S
C234   H236    1.115   .     S
C234   H237    1.112   .     S
C234   H235    1.109   .     S
O238   C239    1.412   .     S
C239   H241    1.115   .     S
C239   H242    1.110   .     S
C239   H240    1.109   .     S
O243   C244    1.413   .     S
C244   H247    1.109   .     S
C244   H246    1.112   .     S
C244   H245    1.113   .     S
O248   C249    1.413   .     S
C249   H251    1.114   .     S
C249   H252    1.110   .     S
C249   H250    1.109   .     S
O253   H254    0.988   .     S
O255   H352    0.989   .     S
H256   O351    0.989   1_455 S
O257   H354    0.988   .     S
H258   O353    0.988   1_455 S
O259   H356    0.987   1_455 S
H260   O355    0.987   .     S
O261   C262    1.411   .     S
C262   H263    1.112   .     S
C262   H265    1.113   .     S
C262   H264    1.109   .     S
O266   C267    1.413   .     S
C267   H268    1.110   .     S
C267   H269    1.114   .     S
C267   H270    1.110   .     S
O271   C272    1.413   .     S
C272   H275    1.113   .     S
C272   H274    1.108   .     S
C272   H273    1.112   .     S
O276   C277    1.411   .     S
C277   H278    1.113   .     S
C277   H279    1.111   .     S
C277   H280    1.110   .     S
H282   O89     0.989   1_565 S
O283   H92     0.989   1_565 S
H286   O93     0.989   1_565 S
O287   H288    0.990   .     S
C289   O319    1.288   .     A
C289   C313    1.427   .     S
C289   O322    1.285   .     A
C290   O320    1.295   .     A
C290   C314    1.460   .     S
C290   O321    1.296   .     A
C291   C295    1.417   .     A
C291   N317    1.377   .     A
C291   O329    1.377   .     S
C292   C296    1.418   .     A
C292   O334    1.381   .     S
C292   N318    1.366   .     A
C293   N317    1.378   .     A
C293   C297    1.417   .     A
C293   O339    1.377   .     S
C294   N318    1.367   .     A
C294   O344    1.382   .     S
C294   C298    1.427   .     A
C295   O377    1.383   .     S
C295   C301    1.417   .     A
C296   O379    1.382   .     S
C296   C302    1.422   .     A
C297   C301    1.418   .     A
C297   O381    1.383   .     S
C298   C302    1.411   .     A
C298   O383    1.382   .     S
C299   C303    1.359   .     S
C299   O326    1.277   .     A
C299   O323    1.277   .     A
C300   O325    1.277   .     A
C300   O324    1.277   .     A
C300   C304    1.359   .     S
C302   C109    1.518   1_565 S
C303   C1072   1.161   1_554 S
C304   C687    1.161   .     S
C305   O349    1.385   .     S
C305   C315    1.415   .     A
C305   C309    1.388   .     A
C306   O351    1.385   .     S
C306   C316    1.409   .     A
C306   C310    1.391   .     A
C307   C311    1.390   .     A
C307   C316    1.411   .     A
C307   O353    1.386   .     S
C308   O355    1.385   .     S
C308   C312    1.391   .     A
C308   C315    1.419   .     A
C309   O357    1.385   .     S
C309   C313    1.400   .     A
C310   O362    1.386   .     S
C310   C314    1.415   .     A
C311   C314    1.412   .     A
C311   O367    1.384   .     S
C312   C313    1.398   .     A
C312   O372    1.386   .     S
C316   C219    1.444   1_655 S
N317   Zn328   2.016   .     S
N318   Zn327   2.016   .     S
O319   Zn327   1.993   .     S
O320   Zn328   1.993   .     S
O321   Zn327   2.000   .     S
O322   Zn328   2.000   .     S
O323   Zn327   1.940   .     S
O324   Zn328   1.940   .     S
O325   Zn327   1.941   .     S
O326   Zn328   1.941   .     S
O329   C330    1.413   .     S
C330   H332    1.115   .     S
C330   H333    1.112   .     S
C330   H331    1.109   .     S
O334   C335    1.412   .     S
C335   H337    1.115   .     S
C335   H338    1.110   .     S
C335   H336    1.109   .     S
O339   C340    1.413   .     S
C340   H343    1.109   .     S
C340   H342    1.112   .     S
C340   H341    1.113   .     S
O344   C345    1.413   .     S
C345   H347    1.114   .     S
C345   H348    1.110   .     S
C345   H346    1.109   .     S
O349   H350    0.988   .     S
O351   H256    0.989   1_655 S
O353   H258    0.988   1_655 S
H356   O259    0.987   1_655 S
O357   C358    1.411   .     S
C358   H359    1.112   .     S
C358   H361    1.113   .     S
C358   H360    1.109   .     S
O362   C363    1.413   .     S
C363   H364    1.110   .     S
C363   H365    1.114   .     S
C363   H366    1.110   .     S
O367   C368    1.413   .     S
C368   H371    1.113   .     S
C368   H370    1.108   .     S
C368   H369    1.112   .     S
O372   C373    1.411   .     S
C373   H374    1.113   .     S
C373   H375    1.111   .     S
C373   H376    1.110   .     S
H378   O185    0.989   1_565 S
O379   H188    0.989   1_565 S
H382   O189    0.989   1_565 S
O383   H384    0.990   .     S
C385   O415    1.288   .     A
C385   C409    1.427   .     S
C385   O418    1.285   .     A
C386   O416    1.295   .     A
C386   C410    1.460   .     S
C386   O417    1.296   .     A
C387   C391    1.417   .     A
C387   N413    1.377   .     A
C387   O425    1.377   .     S
C388   C392    1.418   .     A
C388   O430    1.381   .     S
C388   N414    1.366   .     A
C389   N413    1.378   .     A
C389   C393    1.417   .     A
C389   O435    1.377   .     S
C390   N414    1.367   .     A
C390   O440    1.382   .     S
C390   C394    1.427   .     A
C391   O473    1.383   .     S
C391   C397    1.417   .     A
C392   O475    1.382   .     S
C392   C398    1.422   .     A
C393   C397    1.418   .     A
C393   O477    1.383   .     S
C394   C398    1.411   .     A
C394   O479    1.382   .     S
C395   C399    1.359   .     S
C395   O422    1.277   .     A
C395   O419    1.277   .     A
C396   O421    1.277   .     A
C396   O420    1.277   .     A
C396   C400    1.359   .     S
C397   C590    1.518   1_545 S
C398   C589    1.518   .     S
C400   C783    1.161   .     S
C401   O445    1.385   .     S
C401   C411    1.415   .     A
C401   C405    1.388   .     A
C402   O447    1.385   .     S
C402   C412    1.409   .     A
C402   C406    1.391   .     A
C403   C407    1.390   .     A
C403   C412    1.411   .     A
C403   O449    1.386   .     S
C404   O451    1.385   .     S
C404   C408    1.391   .     A
C404   C411    1.419   .     A
C405   O453    1.385   .     S
C405   C409    1.400   .     A
C406   O458    1.386   .     S
C406   C410    1.415   .     A
C407   C410    1.412   .     A
C407   O463    1.384   .     S
C408   C409    1.398   .     A
C408   O468    1.386   .     S
C411   C508    1.444   1_455 S
C412   C507    1.444   .     S
N413   Zn424   2.016   .     S
N414   Zn423   2.016   .     S
O415   Zn423   1.993   .     S
O416   Zn424   1.993   .     S
O417   Zn423   2.000   .     S
O418   Zn424   2.000   .     S
O419   Zn423   1.940   .     S
O420   Zn424   1.940   .     S
O421   Zn423   1.941   .     S
O422   Zn424   1.941   .     S
O425   C426    1.413   .     S
C426   H428    1.115   .     S
C426   H429    1.112   .     S
C426   H427    1.109   .     S
O430   C431    1.412   .     S
C431   H433    1.115   .     S
C431   H434    1.110   .     S
C431   H432    1.109   .     S
O435   C436    1.413   .     S
C436   H439    1.109   .     S
C436   H438    1.112   .     S
C436   H437    1.113   .     S
O440   C441    1.413   .     S
C441   H443    1.114   .     S
C441   H444    1.110   .     S
C441   H442    1.109   .     S
O445   H446    0.988   .     S
O447   H544    0.989   .     S
H448   O543    0.989   1_455 S
O449   H546    0.988   .     S
H450   O545    0.988   1_455 S
O451   H548    0.987   1_455 S
H452   O547    0.987   .     S
O453   C454    1.411   .     S
C454   H455    1.112   .     S
C454   H457    1.113   .     S
C454   H456    1.109   .     S
O458   C459    1.413   .     S
C459   H460    1.110   .     S
C459   H461    1.114   .     S
C459   H462    1.110   .     S
O463   C464    1.413   .     S
C464   H467    1.113   .     S
C464   H466    1.108   .     S
C464   H465    1.112   .     S
O468   C469    1.411   .     S
C469   H470    1.113   .     S
C469   H471    1.111   .     S
C469   H472    1.110   .     S
O473   H666    0.989   1_545 S
H474   O665    0.989   .     S
O475   H668    0.989   .     S
H476   O667    0.989   1_545 S
O477   H670    0.989   1_545 S
H478   O669    0.989   .     S
O479   H480    0.990   .     S
C481   O511    1.288   .     A
C481   C505    1.427   .     S
C481   O514    1.285   .     A
C482   O512    1.295   .     A
C482   C506    1.460   .     S
C482   O513    1.296   .     A
C483   C487    1.417   .     A
C483   N509    1.377   .     A
C483   O521    1.377   .     S
C484   C488    1.418   .     A
C484   O526    1.381   .     S
C484   N510    1.366   .     A
C485   N509    1.378   .     A
C485   C489    1.417   .     A
C485   O531    1.377   .     S
C486   N510    1.367   .     A
C486   O536    1.382   .     S
C486   C490    1.427   .     A
C487   O569    1.383   .     S
C487   C493    1.417   .     A
C488   O571    1.382   .     S
C488   C494    1.422   .     A
C489   C493    1.418   .     A
C489   O573    1.383   .     S
C490   C494    1.411   .     A
C490   O575    1.382   .     S
C491   C495    1.359   .     S
C491   O518    1.277   .     A
C491   O515    1.277   .     A
C492   O517    1.277   .     A
C492   O516    1.277   .     A
C492   C496    1.359   .     S
C493   C686    1.518   1_545 S
C494   C685    1.518   .     S
C496   C879    1.161   .     S
C497   O541    1.385   .     S
C497   C507    1.415   .     A
C497   C501    1.388   .     A
C498   O543    1.385   .     S
C498   C508    1.409   .     A
C498   C502    1.391   .     A
C499   C503    1.390   .     A
C499   C508    1.411   .     A
C499   O545    1.386   .     S
C500   O547    1.385   .     S
C500   C504    1.391   .     A
C500   C507    1.419   .     A
C501   O549    1.385   .     S
C501   C505    1.400   .     A
C502   O554    1.386   .     S
C502   C506    1.415   .     A
C503   C506    1.412   .     A
C503   O559    1.384   .     S
C504   C505    1.398   .     A
C504   O564    1.386   .     S
C508   C411    1.444   1_655 S
N509   Zn520   2.016   .     S
N510   Zn519   2.016   .     S
O511   Zn519   1.993   .     S
O512   Zn520   1.993   .     S
O513   Zn519   2.000   .     S
O514   Zn520   2.000   .     S
O515   Zn519   1.940   .     S
O516   Zn520   1.940   .     S
O517   Zn519   1.941   .     S
O518   Zn520   1.941   .     S
O521   C522    1.413   .     S
C522   H524    1.115   .     S
C522   H525    1.112   .     S
C522   H523    1.109   .     S
O526   C527    1.412   .     S
C527   H529    1.115   .     S
C527   H530    1.110   .     S
C527   H528    1.109   .     S
O531   C532    1.413   .     S
C532   H535    1.109   .     S
C532   H534    1.112   .     S
C532   H533    1.113   .     S
O536   C537    1.413   .     S
C537   H539    1.114   .     S
C537   H540    1.110   .     S
C537   H538    1.109   .     S
O541   H542    0.988   .     S
O543   H448    0.989   1_655 S
O545   H450    0.988   1_655 S
H548   O451    0.987   1_655 S
O549   C550    1.411   .     S
C550   H551    1.112   .     S
C550   H553    1.113   .     S
C550   H552    1.109   .     S
O554   C555    1.413   .     S
C555   H556    1.110   .     S
C555   H557    1.114   .     S
C555   H558    1.110   .     S
O559   C560    1.413   .     S
C560   H563    1.113   .     S
C560   H562    1.108   .     S
C560   H561    1.112   .     S
O564   C565    1.411   .     S
C565   H566    1.113   .     S
C565   H567    1.111   .     S
C565   H568    1.110   .     S
O569   H762    0.989   1_545 S
H570   O761    0.989   .     S
O571   H764    0.989   .     S
H572   O763    0.989   1_545 S
O573   H766    0.989   1_545 S
H574   O765    0.989   .     S
O575   H576    0.990   .     S
C577   O607    1.288   .     A
C577   C601    1.427   .     S
C577   O610    1.285   .     A
C578   O608    1.295   .     A
C578   C602    1.460   .     S
C578   O609    1.296   .     A
C579   C583    1.417   .     A
C579   N605    1.377   .     A
C579   O617    1.377   .     S
C580   C584    1.418   .     A
C580   O622    1.381   .     S
C580   N606    1.366   .     A
C581   N605    1.378   .     A
C581   C585    1.417   .     A
C581   O627    1.377   .     S
C582   N606    1.367   .     A
C582   O632    1.382   .     S
C582   C586    1.427   .     A
C583   O665    1.383   .     S
C583   C589    1.417   .     A
C584   O667    1.382   .     S
C584   C590    1.422   .     A
C585   C589    1.418   .     A
C585   O669    1.383   .     S
C586   C590    1.411   .     A
C586   O671    1.382   .     S
C587   C591    1.359   .     S
C587   O614    1.277   .     A
C587   O611    1.277   .     A
C588   O613    1.277   .     A
C588   O612    1.277   .     A
C588   C592    1.359   .     S
C590   C397    1.518   1_565 S
C592   C975    1.161   .     S
C593   O637    1.385   .     S
C593   C603    1.415   .     A
C593   C597    1.388   .     A
C594   O639    1.385   .     S
C594   C604    1.409   .     A
C594   C598    1.391   .     A
C595   C599    1.390   .     A
C595   C604    1.411   .     A
C595   O641    1.386   .     S
C596   O643    1.385   .     S
C596   C600    1.391   .     A
C596   C603    1.419   .     A
C597   O645    1.385   .     S
C597   C601    1.400   .     A
C598   O650    1.386   .     S
C598   C602    1.415   .     A
C599   C602    1.412   .     A
C599   O655    1.384   .     S
C600   C601    1.398   .     A
C600   O660    1.386   .     S
C603   C700    1.444   1_455 S
C604   C699    1.444   .     S
N605   Zn616   2.016   .     S
N606   Zn615   2.016   .     S
O607   Zn615   1.993   .     S
O608   Zn616   1.993   .     S
O609   Zn615   2.000   .     S
O610   Zn616   2.000   .     S
O611   Zn615   1.940   .     S
O612   Zn616   1.940   .     S
O613   Zn615   1.941   .     S
O614   Zn616   1.941   .     S
O617   C618    1.413   .     S
C618   H620    1.115   .     S
C618   H621    1.112   .     S
C618   H619    1.109   .     S
O622   C623    1.412   .     S
C623   H625    1.115   .     S
C623   H626    1.110   .     S
C623   H624    1.109   .     S
O627   C628    1.413   .     S
C628   H631    1.109   .     S
C628   H630    1.112   .     S
C628   H629    1.113   .     S
O632   C633    1.413   .     S
C633   H635    1.114   .     S
C633   H636    1.110   .     S
C633   H634    1.109   .     S
O637   H638    0.988   .     S
O639   H736    0.989   .     S
H640   O735    0.989   1_455 S
O641   H738    0.988   .     S
H642   O737    0.988   1_455 S
O643   H740    0.987   1_455 S
H644   O739    0.987   .     S
O645   C646    1.411   .     S
C646   H647    1.112   .     S
C646   H649    1.113   .     S
C646   H648    1.109   .     S
O650   C651    1.413   .     S
C651   H652    1.110   .     S
C651   H653    1.114   .     S
C651   H654    1.110   .     S
O655   C656    1.413   .     S
C656   H659    1.113   .     S
C656   H658    1.108   .     S
C656   H657    1.112   .     S
O660   C661    1.411   .     S
C661   H662    1.113   .     S
C661   H663    1.111   .     S
C661   H664    1.110   .     S
H666   O473    0.989   1_565 S
O667   H476    0.989   1_565 S
H670   O477    0.989   1_565 S
O671   H672    0.990   .     S
C673   O703    1.288   .     A
C673   C697    1.427   .     S
C673   O706    1.285   .     A
C674   O704    1.295   .     A
C674   C698    1.460   .     S
C674   O705    1.296   .     A
C675   C679    1.417   .     A
C675   N701    1.377   .     A
C675   O713    1.377   .     S
C676   C680    1.418   .     A
C676   O718    1.381   .     S
C676   N702    1.366   .     A
C677   N701    1.378   .     A
C677   C681    1.417   .     A
C677   O723    1.377   .     S
C678   N702    1.367   .     A
C678   O728    1.382   .     S
C678   C682    1.427   .     A
C679   O761    1.383   .     S
C679   C685    1.417   .     A
C680   O763    1.382   .     S
C680   C686    1.422   .     A
C681   C685    1.418   .     A
C681   O765    1.383   .     S
C682   C686    1.411   .     A
C682   O767    1.382   .     S
C683   C687    1.359   .     S
C683   O710    1.277   .     A
C683   O707    1.277   .     A
C684   O709    1.277   .     A
C684   O708    1.277   .     A
C684   C688    1.359   .     S
C686   C493    1.518   1_565 S
C688   C1071   1.161   .     S
C689   O733    1.385   .     S
C689   C699    1.415   .     A
C689   C693    1.388   .     A
C690   O735    1.385   .     S
C690   C700    1.409   .     A
C690   C694    1.391   .     A
C691   C695    1.390   .     A
C691   C700    1.411   .     A
C691   O737    1.386   .     S
C692   O739    1.385   .     S
C692   C696    1.391   .     A
C692   C699    1.419   .     A
C693   O741    1.385   .     S
C693   C697    1.400   .     A
C694   O746    1.386   .     S
C694   C698    1.415   .     A
C695   C698    1.412   .     A
C695   O751    1.384   .     S
C696   C697    1.398   .     A
C696   O756    1.386   .     S
C700   C603    1.444   1_655 S
N701   Zn712   2.016   .     S
N702   Zn711   2.016   .     S
O703   Zn711   1.993   .     S
O704   Zn712   1.993   .     S
O705   Zn711   2.000   .     S
O706   Zn712   2.000   .     S
O707   Zn711   1.940   .     S
O708   Zn712   1.940   .     S
O709   Zn711   1.941   .     S
O710   Zn712   1.941   .     S
O713   C714    1.413   .     S
C714   H716    1.115   .     S
C714   H717    1.112   .     S
C714   H715    1.109   .     S
O718   C719    1.412   .     S
C719   H721    1.115   .     S
C719   H722    1.110   .     S
C719   H720    1.109   .     S
O723   C724    1.413   .     S
C724   H727    1.109   .     S
C724   H726    1.112   .     S
C724   H725    1.113   .     S
O728   C729    1.413   .     S
C729   H731    1.114   .     S
C729   H732    1.110   .     S
C729   H730    1.109   .     S
O733   H734    0.988   .     S
O735   H640    0.989   1_655 S
O737   H642    0.988   1_655 S
H740   O643    0.987   1_655 S
O741   C742    1.411   .     S
C742   H743    1.112   .     S
C742   H745    1.113   .     S
C742   H744    1.109   .     S
O746   C747    1.413   .     S
C747   H748    1.110   .     S
C747   H749    1.114   .     S
C747   H750    1.110   .     S
O751   C752    1.413   .     S
C752   H755    1.113   .     S
C752   H754    1.108   .     S
C752   H753    1.112   .     S
O756   C757    1.411   .     S
C757   H758    1.113   .     S
C757   H759    1.111   .     S
C757   H760    1.110   .     S
H762   O569    0.989   1_565 S
O763   H572    0.989   1_565 S
H766   O573    0.989   1_565 S
O767   H768    0.990   .     S
C769   O799    1.288   .     A
C769   C793    1.427   .     S
C769   O802    1.285   .     A
C770   O800    1.295   .     A
C770   C794    1.460   .     S
C770   O801    1.296   .     A
C771   C775    1.417   .     A
C771   N797    1.377   .     A
C771   O809    1.377   .     S
C772   C776    1.418   .     A
C772   O814    1.381   .     S
C772   N798    1.366   .     A
C773   N797    1.378   .     A
C773   C777    1.417   .     A
C773   O819    1.377   .     S
C774   N798    1.367   .     A
C774   O824    1.382   .     S
C774   C778    1.427   .     A
C775   O857    1.383   .     S
C775   C781    1.417   .     A
C776   O859    1.382   .     S
C776   C782    1.422   .     A
C777   C781    1.418   .     A
C777   O861    1.383   .     S
C778   C782    1.411   .     A
C778   O863    1.382   .     S
C779   C783    1.359   .     S
C779   O806    1.277   .     A
C779   O803    1.277   .     A
C780   O805    1.277   .     A
C780   O804    1.277   .     A
C780   C784    1.359   .     S
C781   C974    1.518   1_545 S
C782   C973    1.518   .     S
C784   C15     1.161   1_556 S
C785   O829    1.385   .     S
C785   C795    1.415   .     A
C785   C789    1.388   .     A
C786   O831    1.385   .     S
C786   C796    1.409   .     A
C786   C790    1.391   .     A
C787   C791    1.390   .     A
C787   C796    1.411   .     A
C787   O833    1.386   .     S
C788   O835    1.385   .     S
C788   C792    1.391   .     A
C788   C795    1.419   .     A
C789   O837    1.385   .     S
C789   C793    1.400   .     A
C790   O842    1.386   .     S
C790   C794    1.415   .     A
C791   C794    1.412   .     A
C791   O847    1.384   .     S
C792   C793    1.398   .     A
C792   O852    1.386   .     S
C795   C892    1.444   1_455 S
C796   C891    1.444   .     S
N797   Zn808   2.016   .     S
N798   Zn807   2.016   .     S
O799   Zn807   1.993   .     S
O800   Zn808   1.993   .     S
O801   Zn807   2.000   .     S
O802   Zn808   2.000   .     S
O803   Zn807   1.940   .     S
O804   Zn808   1.940   .     S
O805   Zn807   1.941   .     S
O806   Zn808   1.941   .     S
O809   C810    1.413   .     S
C810   H812    1.115   .     S
C810   H813    1.112   .     S
C810   H811    1.109   .     S
O814   C815    1.412   .     S
C815   H817    1.115   .     S
C815   H818    1.110   .     S
C815   H816    1.109   .     S
O819   C820    1.413   .     S
C820   H823    1.109   .     S
C820   H822    1.112   .     S
C820   H821    1.113   .     S
O824   C825    1.413   .     S
C825   H827    1.114   .     S
C825   H828    1.110   .     S
C825   H826    1.109   .     S
O829   H830    0.988   .     S
O831   H928    0.989   .     S
H832   O927    0.989   1_455 S
O833   H930    0.988   .     S
H834   O929    0.988   1_455 S
O835   H932    0.987   1_455 S
H836   O931    0.987   .     S
O837   C838    1.411   .     S
C838   H839    1.112   .     S
C838   H841    1.113   .     S
C838   H840    1.109   .     S
O842   C843    1.413   .     S
C843   H844    1.110   .     S
C843   H845    1.114   .     S
C843   H846    1.110   .     S
O847   C848    1.413   .     S
C848   H851    1.113   .     S
C848   H850    1.108   .     S
C848   H849    1.112   .     S
O852   C853    1.411   .     S
C853   H854    1.113   .     S
C853   H855    1.111   .     S
C853   H856    1.110   .     S
O857   H1050   0.989   1_545 S
H858   O1049   0.989   .     S
O859   H1052   0.989   .     S
H860   O1051   0.989   1_545 S
O861   H1054   0.989   1_545 S
H862   O1053   0.989   .     S
O863   H864    0.990   .     S
C865   O895    1.288   .     A
C865   C889    1.427   .     S
C865   O898    1.285   .     A
C866   O896    1.295   .     A
C866   C890    1.460   .     S
C866   O897    1.296   .     A
C867   C871    1.417   .     A
C867   N893    1.377   .     A
C867   O905    1.377   .     S
C868   C872    1.418   .     A
C868   O910    1.381   .     S
C868   N894    1.366   .     A
C869   N893    1.378   .     A
C869   C873    1.417   .     A
C869   O915    1.377   .     S
C870   N894    1.367   .     A
C870   O920    1.382   .     S
C870   C874    1.427   .     A
C871   O953    1.383   .     S
C871   C877    1.417   .     A
C872   O955    1.382   .     S
C872   C878    1.422   .     A
C873   C877    1.418   .     A
C873   O957    1.383   .     S
C874   C878    1.411   .     A
C874   O959    1.382   .     S
C875   C879    1.359   .     S
C875   O902    1.277   .     A
C875   O899    1.277   .     A
C876   O901    1.277   .     A
C876   O900    1.277   .     A
C876   C880    1.359   .     S
C877   C1070   1.518   1_545 S
C878   C1069   1.518   .     S
C880   C111    1.161   1_556 S
C881   O925    1.385   .     S
C881   C891    1.415   .     A
C881   C885    1.388   .     A
C882   O927    1.385   .     S
C882   C892    1.409   .     A
C882   C886    1.391   .     A
C883   C887    1.390   .     A
C883   C892    1.411   .     A
C883   O929    1.386   .     S
C884   O931    1.385   .     S
C884   C888    1.391   .     A
C884   C891    1.419   .     A
C885   O933    1.385   .     S
C885   C889    1.400   .     A
C886   O938    1.386   .     S
C886   C890    1.415   .     A
C887   C890    1.412   .     A
C887   O943    1.384   .     S
C888   C889    1.398   .     A
C888   O948    1.386   .     S
C892   C795    1.444   1_655 S
N893   Zn904   2.016   .     S
N894   Zn903   2.016   .     S
O895   Zn903   1.993   .     S
O896   Zn904   1.993   .     S
O897   Zn903   2.000   .     S
O898   Zn904   2.000   .     S
O899   Zn903   1.940   .     S
O900   Zn904   1.940   .     S
O901   Zn903   1.941   .     S
O902   Zn904   1.941   .     S
O905   C906    1.413   .     S
C906   H908    1.115   .     S
C906   H909    1.112   .     S
C906   H907    1.109   .     S
O910   C911    1.412   .     S
C911   H913    1.115   .     S
C911   H914    1.110   .     S
C911   H912    1.109   .     S
O915   C916    1.413   .     S
C916   H919    1.109   .     S
C916   H918    1.112   .     S
C916   H917    1.113   .     S
O920   C921    1.413   .     S
C921   H923    1.114   .     S
C921   H924    1.110   .     S
C921   H922    1.109   .     S
O925   H926    0.988   .     S
O927   H832    0.989   1_655 S
O929   H834    0.988   1_655 S
H932   O835    0.987   1_655 S
O933   C934    1.411   .     S
C934   H935    1.112   .     S
C934   H937    1.113   .     S
C934   H936    1.109   .     S
O938   C939    1.413   .     S
C939   H940    1.110   .     S
C939   H941    1.114   .     S
C939   H942    1.110   .     S
O943   C944    1.413   .     S
C944   H947    1.113   .     S
C944   H946    1.108   .     S
C944   H945    1.112   .     S
O948   C949    1.411   .     S
C949   H950    1.113   .     S
C949   H951    1.111   .     S
C949   H952    1.110   .     S
O953   H1146   0.989   1_545 S
H954   O1145   0.989   .     S
O955   H1148   0.989   .     S
H956   O1147   0.989   1_545 S
O957   H1150   0.989   1_545 S
H958   O1149   0.989   .     S
O959   H960    0.990   .     S
C961   O991    1.288   .     A
C961   C985    1.427   .     S
C961   O994    1.285   .     A
C962   O992    1.295   .     A
C962   C986    1.460   .     S
C962   O993    1.296   .     A
C963   C967    1.417   .     A
C963   N989    1.377   .     A
C963   O1001   1.377   .     S
C964   C968    1.418   .     A
C964   O1006   1.381   .     S
C964   N990    1.366   .     A
C965   N989    1.378   .     A
C965   C969    1.417   .     A
C965   O1011   1.377   .     S
C966   N990    1.367   .     A
C966   O1016   1.382   .     S
C966   C970    1.427   .     A
C967   O1049   1.383   .     S
C967   C973    1.417   .     A
C968   O1051   1.382   .     S
C968   C974    1.422   .     A
C969   C973    1.418   .     A
C969   O1053   1.383   .     S
C970   C974    1.411   .     A
C970   O1055   1.382   .     S
C971   C975    1.359   .     S
C971   O998    1.277   .     A
C971   O995    1.277   .     A
C972   O997    1.277   .     A
C972   O996    1.277   .     A
C972   C976    1.359   .     S
C974   C781    1.518   1_565 S
C976   C207    1.161   1_556 S
C977   O1021   1.385   .     S
C977   C987    1.415   .     A
C977   C981    1.388   .     A
C978   O1023   1.385   .     S
C978   C988    1.409   .     A
C978   C982    1.391   .     A
C979   C983    1.390   .     A
C979   C988    1.411   .     A
C979   O1025   1.386   .     S
C980   O1027   1.385   .     S
C980   C984    1.391   .     A
C980   C987    1.419   .     A
C981   O1029   1.385   .     S
C981   C985    1.400   .     A
C982   O1034   1.386   .     S
C982   C986    1.415   .     A
C983   C986    1.412   .     A
C983   O1039   1.384   .     S
C984   C985    1.398   .     A
C984   O1044   1.386   .     S
C987   C1084   1.444   1_455 S
C988   C1083   1.444   .     S
N989   Zn1000  2.016   .     S
N990   Zn999   2.016   .     S
O991   Zn999   1.993   .     S
O992   Zn1000  1.993   .     S
O993   Zn999   2.000   .     S
O994   Zn1000  2.000   .     S
O995   Zn999   1.940   .     S
O996   Zn1000  1.940   .     S
O997   Zn999   1.941   .     S
O998   Zn1000  1.941   .     S
O1001  C1002   1.413   .     S
C1002  H1004   1.115   .     S
C1002  H1005   1.112   .     S
C1002  H1003   1.109   .     S
O1006  C1007   1.412   .     S
C1007  H1009   1.115   .     S
C1007  H1010   1.110   .     S
C1007  H1008   1.109   .     S
O1011  C1012   1.413   .     S
C1012  H1015   1.109   .     S
C1012  H1014   1.112   .     S
C1012  H1013   1.113   .     S
O1016  C1017   1.413   .     S
C1017  H1019   1.114   .     S
C1017  H1020   1.110   .     S
C1017  H1018   1.109   .     S
O1021  H1022   0.988   .     S
O1023  H1120   0.989   .     S
H1024  O1119   0.989   1_455 S
O1025  H1122   0.988   .     S
H1026  O1121   0.988   1_455 S
O1027  H1124   0.987   1_455 S
H1028  O1123   0.987   .     S
O1029  C1030   1.411   .     S
C1030  H1031   1.112   .     S
C1030  H1033   1.113   .     S
C1030  H1032   1.109   .     S
O1034  C1035   1.413   .     S
C1035  H1036   1.110   .     S
C1035  H1037   1.114   .     S
C1035  H1038   1.110   .     S
O1039  C1040   1.413   .     S
C1040  H1043   1.113   .     S
C1040  H1042   1.108   .     S
C1040  H1041   1.112   .     S
O1044  C1045   1.411   .     S
C1045  H1046   1.113   .     S
C1045  H1047   1.111   .     S
C1045  H1048   1.110   .     S
H1050  O857    0.989   1_565 S
O1051  H860    0.989   1_565 S
H1054  O861    0.989   1_565 S
O1055  H1056   0.990   .     S
C1057  O1087   1.288   .     A
C1057  C1081   1.427   .     S
C1057  O1090   1.285   .     A
C1058  O1088   1.295   .     A
C1058  C1082   1.460   .     S
C1058  O1089   1.296   .     A
C1059  C1063   1.417   .     A
C1059  N1085   1.377   .     A
C1059  O1097   1.377   .     S
C1060  C1064   1.418   .     A
C1060  O1102   1.381   .     S
C1060  N1086   1.366   .     A
C1061  N1085   1.378   .     A
C1061  C1065   1.417   .     A
C1061  O1107   1.377   .     S
C1062  N1086   1.367   .     A
C1062  O1112   1.382   .     S
C1062  C1066   1.427   .     A
C1063  O1145   1.383   .     S
C1063  C1069   1.417   .     A
C1064  O1147   1.382   .     S
C1064  C1070   1.422   .     A
C1065  C1069   1.418   .     A
C1065  O1149   1.383   .     S
C1066  C1070   1.411   .     A
C1066  O1151   1.382   .     S
C1067  C1071   1.359   .     S
C1067  O1094   1.277   .     A
C1067  O1091   1.277   .     A
C1068  O1093   1.277   .     A
C1068  O1092   1.277   .     A
C1068  C1072   1.359   .     S
C1070  C877    1.518   1_565 S
C1072  C303    1.161   1_556 S
C1073  O1117   1.385   .     S
C1073  C1083   1.415   .     A
C1073  C1077   1.388   .     A
C1074  O1119   1.385   .     S
C1074  C1084   1.409   .     A
C1074  C1078   1.391   .     A
C1075  C1079   1.390   .     A
C1075  C1084   1.411   .     A
C1075  O1121   1.386   .     S
C1076  O1123   1.385   .     S
C1076  C1080   1.391   .     A
C1076  C1083   1.419   .     A
C1077  O1125   1.385   .     S
C1077  C1081   1.400   .     A
C1078  O1130   1.386   .     S
C1078  C1082   1.415   .     A
C1079  C1082   1.412   .     A
C1079  O1135   1.384   .     S
C1080  C1081   1.398   .     A
C1080  O1140   1.386   .     S
C1084  C987    1.444   1_655 S
N1085  Zn1096  2.016   .     S
N1086  Zn1095  2.016   .     S
O1087  Zn1095  1.993   .     S
O1088  Zn1096  1.993   .     S
O1089  Zn1095  2.000   .     S
O1090  Zn1096  2.000   .     S
O1091  Zn1095  1.940   .     S
O1092  Zn1096  1.940   .     S
O1093  Zn1095  1.941   .     S
O1094  Zn1096  1.941   .     S
O1097  C1098   1.413   .     S
C1098  H1100   1.115   .     S
C1098  H1101   1.112   .     S
C1098  H1099   1.109   .     S
O1102  C1103   1.412   .     S
C1103  H1105   1.115   .     S
C1103  H1106   1.110   .     S
C1103  H1104   1.109   .     S
O1107  C1108   1.413   .     S
C1108  H1111   1.109   .     S
C1108  H1110   1.112   .     S
C1108  H1109   1.113   .     S
O1112  C1113   1.413   .     S
C1113  H1115   1.114   .     S
C1113  H1116   1.110   .     S
C1113  H1114   1.109   .     S
O1117  H1118   0.988   .     S
O1119  H1024   0.989   1_655 S
O1121  H1026   0.988   1_655 S
H1124  O1027   0.987   1_655 S
O1125  C1126   1.411   .     S
C1126  H1127   1.112   .     S
C1126  H1129   1.113   .     S
C1126  H1128   1.109   .     S
O1130  C1131   1.413   .     S
C1131  H1132   1.110   .     S
C1131  H1133   1.114   .     S
C1131  H1134   1.110   .     S
O1135  C1136   1.413   .     S
C1136  H1139   1.113   .     S
C1136  H1138   1.108   .     S
C1136  H1137   1.112   .     S
O1140  C1141   1.411   .     S
C1141  H1142   1.113   .     S
C1141  H1143   1.111   .     S
C1141  H1144   1.110   .     S
H1146  O953    0.989   1_565 S
O1147  H956    0.989   1_565 S
H1150  O957    0.989   1_565 S
O1151  H1152   0.990   .     S
