data_str_m3_o1_o1_pcu_sym.78
_audit_creation_date              2020-01-03
_audit_creation_method            'Materials Studio'
_symmetry_space_group_name_H-M    'P1'
_symmetry_Int_Tables_number       1
_symmetry_cell_setting            triclinic
loop_
_symmetry_equiv_pos_as_xyz
  x,y,z
_cell_length_a                    31.9297
_cell_length_b                    31.0361
_cell_length_c                    29.8636
_cell_angle_alpha                 90.0001
_cell_angle_beta                  90.0000
_cell_angle_gamma                 90.0000
loop_
_atom_site_label
_atom_site_type_symbol
_atom_site_fract_x
_atom_site_fract_y
_atom_site_fract_z
_atom_site_U_iso_or_equiv
_atom_site_adp_type
_atom_site_occupancy
C1     C     0.05992   0.18977   0.16672   0.00000  Uiso   1.00
C2     C     0.00152   0.21237   0.30952   0.00000  Uiso   1.00
C3     C     0.49848   0.21238   0.02382   0.00000  Uiso   1.00
C4     C     0.49848   0.28762   0.30952   0.00000  Uiso   1.00
C5     C     0.25152   0.03762   0.02382   0.00000  Uiso   1.00
C6     C     0.25152   0.46238   0.30952   0.00000  Uiso   1.00
C7     C     0.24848   0.46238   0.02382   0.00000  Uiso   1.00
C8     C     0.24848   0.03762   0.30952   0.00000  Uiso   1.00
C9     C     0.38529   0.14487   0.12656   0.00000  Uiso   1.00
C10    C     0.10563   0.36422   0.20648   0.00000  Uiso   1.00
C11    C     0.11471   0.35513   0.12656   0.00000  Uiso   1.00
C12    C     0.44008   0.31023   0.16672   0.00000  Uiso   1.00
C13    C     0.39438   0.13578   0.20648   0.00000  Uiso   1.00
C14    C     0.11471   0.14487   0.20677   0.00000  Uiso   1.00
C15    C     0.39437   0.36422   0.12685   0.00000  Uiso   1.00
C16    C     0.38529   0.35513   0.20677   0.00000  Uiso   1.00
C17    C     0.10562   0.13578   0.12685   0.00000  Uiso   1.00
C18    C     0.13529   0.39487   0.12656   0.00000  Uiso   1.00
C19    C     0.35563   0.11422   0.20648   0.00000  Uiso   1.00
C20    C     0.36471   0.10513   0.12656   0.00000  Uiso   1.00
C21    C     0.14438   0.38578   0.20648   0.00000  Uiso   1.00
C22    C     0.36471   0.39487   0.20677   0.00000  Uiso   1.00
C23    C     0.44008   0.18977   0.16661   0.00000  Uiso   1.00
C24    C     0.14437   0.11422   0.12685   0.00000  Uiso   1.00
C25    C     0.13529   0.10513   0.20677   0.00000  Uiso   1.00
C26    C     0.35562   0.38578   0.12685   0.00000  Uiso   1.00
C27    C     0.09371   0.34304   0.16647   0.00000  Uiso   1.00
C28    C     0.40629   0.15696   0.16647   0.00000  Uiso   1.00
C29    C     0.40629   0.34304   0.16686   0.00000  Uiso   1.00
C30    C     0.09371   0.15696   0.16686   0.00000  Uiso   1.00
C31    C     0.34371   0.09304   0.16647   0.00000  Uiso   1.00
C32    C     0.15629   0.40696   0.16647   0.00000  Uiso   1.00
C33    C     0.15629   0.09304   0.16686   0.00000  Uiso   1.00
C34    C     0.05992   0.31023   0.16661   0.00000  Uiso   1.00
C35    C     0.34371   0.40696   0.16686   0.00000  Uiso   1.00
C36    C     0.00980   0.32714   0.04695   0.00000  Uiso   1.00
C37    C     0.00980   0.17286   0.28639   0.00000  Uiso   1.00
C38    C     0.49020   0.17286   0.04695   0.00000  Uiso   1.00
C39    C     0.49020   0.32714   0.28639   0.00000  Uiso   1.00
C40    C     0.25980   0.07714   0.04695   0.00000  Uiso   1.00
C41    C     0.25980   0.42286   0.28639   0.00000  Uiso   1.00
C42    C     0.24020   0.42286   0.04695   0.00000  Uiso   1.00
C43    C     0.24020   0.07714   0.28639   0.00000  Uiso   1.00
C44    C     0.38256   0.17243   0.08475   0.00000  Uiso   1.00
C45    C     0.30992   0.43977   0.16672   0.00000  Uiso   1.00
C46    C     0.36866   0.21887   0.09406   0.00000  Uiso   1.00
C47    C     0.38604   0.24927   0.05845   0.00000  Uiso   1.00
C48    C     0.07372   0.37270   0.24314   0.00000  Uiso   1.00
C49    C     0.08056   0.41482   0.26884   0.00000  Uiso   1.00
C50    C     0.04499   0.42521   0.30106   0.00000  Uiso   1.00
C51    C     0.11744   0.32757   0.08475   0.00000  Uiso   1.00
C52    C     0.13134   0.28113   0.09406   0.00000  Uiso   1.00
C53    C     0.11396   0.25074   0.05844   0.00000  Uiso   1.00
C54    C     0.42628   0.12730   0.24314   0.00000  Uiso   1.00
C55    C     0.41944   0.08518   0.26884   0.00000  Uiso   1.00
C56    C     0.19008   0.06023   0.16672   0.00000  Uiso   1.00
C57    C     0.45502   0.07478   0.30106   0.00000  Uiso   1.00
C58    C     0.11744   0.17243   0.24858   0.00000  Uiso   1.00
C59    C     0.13134   0.21887   0.23927   0.00000  Uiso   1.00
C60    C     0.11396   0.24927   0.27489   0.00000  Uiso   1.00
C61    C     0.42628   0.37270   0.09020   0.00000  Uiso   1.00
C62    C     0.41944   0.41482   0.06449   0.00000  Uiso   1.00
C63    C     0.45501   0.42521   0.03227   0.00000  Uiso   1.00
C64    C     0.38256   0.32757   0.24859   0.00000  Uiso   1.00
C65    C     0.36866   0.28113   0.23928   0.00000  Uiso   1.00
C66    C     0.38604   0.25074   0.27490   0.00000  Uiso   1.00
C67    C     0.19008   0.43977   0.16661   0.00000  Uiso   1.00
C68    C     0.07372   0.12730   0.09020   0.00000  Uiso   1.00
C69    C     0.08056   0.08518   0.06449   0.00000  Uiso   1.00
C70    C     0.04498   0.07478   0.03227   0.00000  Uiso   1.00
C71    C     0.13256   0.42243   0.08475   0.00000  Uiso   1.00
C72    C     0.11866   0.46887   0.09406   0.00000  Uiso   1.00
C73    C     0.13604   0.49927   0.05845   0.00000  Uiso   1.00
C74    C     0.32372   0.12270   0.24314   0.00000  Uiso   1.00
C75    C     0.33056   0.16482   0.26884   0.00000  Uiso   1.00
C76    C     0.29499   0.17521   0.30106   0.00000  Uiso   1.00
C77    C     0.36744   0.07757   0.08475   0.00000  Uiso   1.00
C78    C     0.30992   0.06023   0.16661   0.00000  Uiso   1.00
C79    C     0.38134   0.03113   0.09406   0.00000  Uiso   1.00
C80    C     0.36396   0.00074   0.05844   0.00000  Uiso   1.00
C81    C     0.17628   0.37730   0.24314   0.00000  Uiso   1.00
C82    C     0.16944   0.33518   0.26884   0.00000  Uiso   1.00
C83    C     0.20502   0.32478   0.30106   0.00000  Uiso   1.00
C84    C     0.36744   0.42243   0.24858   0.00000  Uiso   1.00
C85    C     0.38134   0.46887   0.23927   0.00000  Uiso   1.00
C86    C     0.36396   0.49927   0.27489   0.00000  Uiso   1.00
C87    C     0.17628   0.12270   0.09020   0.00000  Uiso   1.00
C88    C     0.16944   0.16482   0.06449   0.00000  Uiso   1.00
C89    C     0.00152   0.28762   0.02382   0.00000  Uiso   1.00
C90    C     0.20501   0.17521   0.03227   0.00000  Uiso   1.00
C91    C     0.13256   0.07757   0.24859   0.00000  Uiso   1.00
C92    C     0.11866   0.03113   0.23928   0.00000  Uiso   1.00
C93    C     0.13604   0.00074   0.27489   0.00000  Uiso   1.00
C94    C     0.32372   0.37730   0.09020   0.00000  Uiso   1.00
C95    C     0.33056   0.33518   0.06449   0.00000  Uiso   1.00
C96    C     0.29498   0.32478   0.03227   0.00000  Uiso   1.00
H97    H     0.39749   0.27899   0.07442   0.00000  Uiso   1.00
H98    H     0.01604   0.43318   0.28224   0.00000  Uiso   1.00
H99    H     0.16260   0.01423   0.29420   0.00000  Uiso   1.00
H100   H     0.11073   0.49250   0.29834   0.00000  Uiso   1.00
H101   H     0.08385   0.02953   0.23907   0.00000  Uiso   1.00
H102   H     0.12877   0.01953   0.20590   0.00000  Uiso   1.00
H103   H     0.16257   0.07889   0.26598   0.00000  Uiso   1.00
H104   H     0.10953   0.09100   0.27281   0.00000  Uiso   1.00
H105   H     0.28953   0.35241   0.00962   0.00000  Uiso   1.00
H106   H     0.30321   0.29650   0.01134   0.00000  Uiso   1.00
H107   H     0.26603   0.31681   0.05109   0.00000  Uiso   1.00
H108   H     0.35958   0.33757   0.04435   0.00000  Uiso   1.00
H109   H     0.10958   0.41243   0.28899   0.00000  Uiso   1.00
H110   H     0.33270   0.30861   0.08925   0.00000  Uiso   1.00
H111   H     0.29328   0.37366   0.10750   0.00000  Uiso   1.00
H112   H     0.32235   0.40463   0.06643   0.00000  Uiso   1.00
H113   H     0.08271   0.44139   0.24409   0.00000  Uiso   1.00
H114   H     0.04328   0.37634   0.22583   0.00000  Uiso   1.00
H115   H     0.07235   0.34537   0.26690   0.00000  Uiso   1.00
H116   H     0.10251   0.22102   0.07441   0.00000  Uiso   1.00
H117   H     0.08740   0.26423   0.03913   0.00000  Uiso   1.00
H118   H     0.13927   0.24250   0.03500   0.00000  Uiso   1.00
H119   H     0.16615   0.27953   0.09427   0.00000  Uiso   1.00
H120   H     0.12123   0.26953   0.12743   0.00000  Uiso   1.00
H121   H     0.41260   0.23578   0.03914   0.00000  Uiso   1.00
H122   H     0.08743   0.32889   0.06735   0.00000  Uiso   1.00
H123   H     0.14047   0.34100   0.06053   0.00000  Uiso   1.00
H124   H     0.46047   0.10241   0.32372   0.00000  Uiso   1.00
H125   H     0.44678   0.04650   0.32199   0.00000  Uiso   1.00
H126   H     0.48397   0.06681   0.28224   0.00000  Uiso   1.00
H127   H     0.39042   0.08757   0.28899   0.00000  Uiso   1.00
H128   H     0.41729   0.05861   0.24408   0.00000  Uiso   1.00
H129   H     0.45672   0.12366   0.22583   0.00000  Uiso   1.00
H130   H     0.42765   0.15463   0.26690   0.00000  Uiso   1.00
H131   H     0.10251   0.27899   0.25891   0.00000  Uiso   1.00
H132   H     0.36074   0.25750   0.03500   0.00000  Uiso   1.00
H133   H     0.08740   0.23578   0.29419   0.00000  Uiso   1.00
H134   H     0.13926   0.25750   0.29834   0.00000  Uiso   1.00
H135   H     0.16615   0.22047   0.23907   0.00000  Uiso   1.00
H136   H     0.12124   0.23047   0.20589   0.00000  Uiso   1.00
H137   H     0.08743   0.17111   0.26598   0.00000  Uiso   1.00
H138   H     0.14047   0.15900   0.27281   0.00000  Uiso   1.00
H139   H     0.46047   0.39759   0.00962   0.00000  Uiso   1.00
H140   H     0.44678   0.45349   0.01134   0.00000  Uiso   1.00
H141   H     0.48396   0.43319   0.05109   0.00000  Uiso   1.00
H142   H     0.39042   0.41243   0.04434   0.00000  Uiso   1.00
H143   H     0.33385   0.22047   0.09427   0.00000  Uiso   1.00
H144   H     0.41729   0.44139   0.08924   0.00000  Uiso   1.00
H145   H     0.45672   0.37634   0.10750   0.00000  Uiso   1.00
H146   H     0.42765   0.34537   0.06643   0.00000  Uiso   1.00
H147   H     0.39749   0.22102   0.25892   0.00000  Uiso   1.00
H148   H     0.41259   0.26423   0.29421   0.00000  Uiso   1.00
H149   H     0.36073   0.24250   0.29834   0.00000  Uiso   1.00
H150   H     0.33385   0.27953   0.23907   0.00000  Uiso   1.00
H151   H     0.37877   0.26953   0.20590   0.00000  Uiso   1.00
H152   H     0.41257   0.32889   0.26598   0.00000  Uiso   1.00
H153   H     0.35953   0.34100   0.27281   0.00000  Uiso   1.00
H154   H     0.37876   0.23047   0.12744   0.00000  Uiso   1.00
H155   H     0.03953   0.10241   0.00962   0.00000  Uiso   1.00
H156   H     0.05322   0.04650   0.01134   0.00000  Uiso   1.00
H157   H     0.01603   0.06681   0.05109   0.00000  Uiso   1.00
H158   H     0.10958   0.08757   0.04435   0.00000  Uiso   1.00
H159   H     0.08271   0.05861   0.08925   0.00000  Uiso   1.00
H160   H     0.04328   0.12366   0.10750   0.00000  Uiso   1.00
H161   H     0.07235   0.15463   0.06643   0.00000  Uiso   1.00
H162   H     0.14749   0.02899   0.07442   0.00000  Uiso   1.00
H163   H     0.16260   0.48578   0.03914   0.00000  Uiso   1.00
H164   H     0.11073   0.00750   0.03500   0.00000  Uiso   1.00
H165   H     0.41257   0.17111   0.06735   0.00000  Uiso   1.00
H166   H     0.08385   0.47047   0.09427   0.00000  Uiso   1.00
H167   H     0.12876   0.48047   0.12744   0.00000  Uiso   1.00
H168   H     0.16257   0.42111   0.06735   0.00000  Uiso   1.00
H169   H     0.10953   0.40900   0.06053   0.00000  Uiso   1.00
H170   H     0.28953   0.14759   0.32372   0.00000  Uiso   1.00
H171   H     0.30322   0.20349   0.32200   0.00000  Uiso   1.00
H172   H     0.26604   0.18319   0.28224   0.00000  Uiso   1.00
H173   H     0.35958   0.16243   0.28899   0.00000  Uiso   1.00
H174   H     0.33271   0.19139   0.24409   0.00000  Uiso   1.00
H175   H     0.29328   0.12634   0.22583   0.00000  Uiso   1.00
H176   H     0.35953   0.15900   0.06053   0.00000  Uiso   1.00
H177   H     0.32235   0.09537   0.26690   0.00000  Uiso   1.00
H178   H     0.35251   0.47102   0.07441   0.00000  Uiso   1.00
H179   H     0.33740   0.01423   0.03913   0.00000  Uiso   1.00
H180   H     0.38927   0.49250   0.03499   0.00000  Uiso   1.00
H181   H     0.41615   0.02953   0.09426   0.00000  Uiso   1.00
H182   H     0.37123   0.01953   0.12743   0.00000  Uiso   1.00
H183   H     0.33743   0.07889   0.06735   0.00000  Uiso   1.00
H184   H     0.39047   0.09100   0.06053   0.00000  Uiso   1.00
H185   H     0.21047   0.35241   0.32372   0.00000  Uiso   1.00
H186   H     0.19678   0.29650   0.32199   0.00000  Uiso   1.00
H187   H     0.03953   0.39759   0.32372   0.00000  Uiso   1.00
H188   H     0.23397   0.31681   0.28224   0.00000  Uiso   1.00
H189   H     0.14042   0.33757   0.28899   0.00000  Uiso   1.00
H190   H     0.16729   0.30861   0.24409   0.00000  Uiso   1.00
H191   H     0.20672   0.37366   0.22583   0.00000  Uiso   1.00
H192   H     0.17765   0.40463   0.26690   0.00000  Uiso   1.00
H193   H     0.35251   0.02899   0.25891   0.00000  Uiso   1.00
H194   H     0.33740   0.48578   0.29419   0.00000  Uiso   1.00
H195   H     0.38926   0.00750   0.29833   0.00000  Uiso   1.00
H196   H     0.41615   0.47047   0.23907   0.00000  Uiso   1.00
H197   H     0.37124   0.48047   0.20589   0.00000  Uiso   1.00
H198   H     0.05322   0.45349   0.32200   0.00000  Uiso   1.00
H199   H     0.33743   0.42111   0.26598   0.00000  Uiso   1.00
H200   H     0.39047   0.40900   0.27281   0.00000  Uiso   1.00
H201   H     0.21047   0.14759   0.00962   0.00000  Uiso   1.00
H202   H     0.19678   0.20349   0.01134   0.00000  Uiso   1.00
H203   H     0.23396   0.18319   0.05109   0.00000  Uiso   1.00
H204   H     0.14042   0.16243   0.04434   0.00000  Uiso   1.00
H205   H     0.16729   0.19139   0.08924   0.00000  Uiso   1.00
H206   H     0.20672   0.12634   0.10750   0.00000  Uiso   1.00
H207   H     0.17765   0.09537   0.06643   0.00000  Uiso   1.00
H208   H     0.14749   0.47102   0.25892   0.00000  Uiso   1.00
N209   N     0.00000   0.25000   0.28573   0.00000  Uiso   1.00
N210   N     0.26790   0.39107   0.26819   0.00000  Uiso   1.00
N211   N     0.23210   0.39107   0.06514   0.00000  Uiso   1.00
N212   N     0.23210   0.10893   0.26819   0.00000  Uiso   1.00
N213   N    -0.00000   0.25000   0.04760   0.00000  Uiso   1.00
N214   N     0.25000   0.00000   0.28573   0.00000  Uiso   1.00
N215   N     0.25000   0.00000   0.04760   0.00000  Uiso   1.00
N216   N     0.01790   0.35893   0.06514   0.00000  Uiso   1.00
N217   N     0.01790   0.14107   0.26819   0.00000  Uiso   1.00
N218   N     0.48210   0.14107   0.06514   0.00000  Uiso   1.00
N219   N     0.48210   0.35893   0.26819   0.00000  Uiso   1.00
N220   N     0.26790   0.10893   0.06514   0.00000  Uiso   1.00
O221   O     0.04580   0.20419   0.20487   0.00000  Uiso   1.00
O222   O     0.20419   0.04581   0.12846   0.00000  Uiso   1.00
O223   O     0.20419   0.04581   0.20487   0.00000  Uiso   1.00
O224   O     0.29580   0.45419   0.12846   0.00000  Uiso   1.00
O225   O     0.20419   0.45419   0.12846   0.00000  Uiso   1.00
O226   O     0.29580   0.04581   0.20487   0.00000  Uiso   1.00
O227   O     0.29580   0.04581   0.12846   0.00000  Uiso   1.00
O228   O     0.20419   0.45419   0.20487   0.00000  Uiso   1.00
O229   O     0.45419   0.29581   0.12846   0.00000  Uiso   1.00
O230   O     0.45419   0.29581   0.20487   0.00000  Uiso   1.00
O231   O     0.04580   0.20419   0.12846   0.00000  Uiso   1.00
O232   O     0.45419   0.20419   0.12846   0.00000  Uiso   1.00
O233   O     0.04580   0.29581   0.20487   0.00000  Uiso   1.00
O234   O     0.04580   0.29581   0.12846   0.00000  Uiso   1.00
O235   O     0.45419   0.20419   0.20487   0.00000  Uiso   1.00
O236   O     0.29580   0.45419   0.20487   0.00000  Uiso   1.00
Zn237  Zn   -0.00000   0.25000   0.21771   0.00000  Uiso   1.00
Zn238  Zn    0.00000   0.25000   0.11563   0.00000  Uiso   1.00
Zn239  Zn    0.25000   0.00000   0.21771   0.00000  Uiso   1.00
Zn240  Zn    0.25000   0.00000   0.11563   0.00000  Uiso   1.00
C241   C     0.55992   0.18977   0.16672   0.00000  Uiso   1.00
C242   C     0.50152   0.21237   0.30952   0.00000  Uiso   1.00
C243   C     0.99848   0.21238   0.02382   0.00000  Uiso   1.00
C244   C     0.99848   0.28762   0.30952   0.00000  Uiso   1.00
C245   C     0.75152   0.03762   0.02382   0.00000  Uiso   1.00
C246   C     0.75152   0.46238   0.30952   0.00000  Uiso   1.00
C247   C     0.74848   0.46238   0.02382   0.00000  Uiso   1.00
C248   C     0.74848   0.03762   0.30952   0.00000  Uiso   1.00
C249   C     0.88529   0.14487   0.12656   0.00000  Uiso   1.00
C250   C     0.60563   0.36422   0.20648   0.00000  Uiso   1.00
C251   C     0.61471   0.35513   0.12656   0.00000  Uiso   1.00
C252   C     0.94008   0.31023   0.16672   0.00000  Uiso   1.00
C253   C     0.89438   0.13578   0.20648   0.00000  Uiso   1.00
C254   C     0.61471   0.14487   0.20677   0.00000  Uiso   1.00
C255   C     0.89437   0.36422   0.12685   0.00000  Uiso   1.00
C256   C     0.88529   0.35513   0.20677   0.00000  Uiso   1.00
C257   C     0.60562   0.13578   0.12685   0.00000  Uiso   1.00
C258   C     0.63529   0.39487   0.12656   0.00000  Uiso   1.00
C259   C     0.85563   0.11422   0.20648   0.00000  Uiso   1.00
C260   C     0.86471   0.10513   0.12656   0.00000  Uiso   1.00
C261   C     0.64438   0.38578   0.20648   0.00000  Uiso   1.00
C262   C     0.86471   0.39487   0.20677   0.00000  Uiso   1.00
C263   C     0.94008   0.18977   0.16661   0.00000  Uiso   1.00
C264   C     0.64437   0.11422   0.12685   0.00000  Uiso   1.00
C265   C     0.63529   0.10513   0.20677   0.00000  Uiso   1.00
C266   C     0.85562   0.38578   0.12685   0.00000  Uiso   1.00
C267   C     0.59371   0.34304   0.16647   0.00000  Uiso   1.00
C268   C     0.90629   0.15696   0.16647   0.00000  Uiso   1.00
C269   C     0.90629   0.34304   0.16686   0.00000  Uiso   1.00
C270   C     0.59371   0.15696   0.16686   0.00000  Uiso   1.00
C271   C     0.84371   0.09304   0.16647   0.00000  Uiso   1.00
C272   C     0.65629   0.40696   0.16647   0.00000  Uiso   1.00
C273   C     0.65629   0.09304   0.16686   0.00000  Uiso   1.00
C274   C     0.55992   0.31023   0.16661   0.00000  Uiso   1.00
C275   C     0.84371   0.40696   0.16686   0.00000  Uiso   1.00
C276   C     0.50980   0.32714   0.04695   0.00000  Uiso   1.00
C277   C     0.50980   0.17286   0.28639   0.00000  Uiso   1.00
C278   C     0.99020   0.17286   0.04695   0.00000  Uiso   1.00
C279   C     0.99020   0.32714   0.28639   0.00000  Uiso   1.00
C280   C     0.75980   0.07714   0.04695   0.00000  Uiso   1.00
C281   C     0.75980   0.42286   0.28639   0.00000  Uiso   1.00
C282   C     0.74020   0.42286   0.04695   0.00000  Uiso   1.00
C283   C     0.74020   0.07714   0.28639   0.00000  Uiso   1.00
C284   C     0.88256   0.17243   0.08475   0.00000  Uiso   1.00
C285   C     0.80992   0.43977   0.16672   0.00000  Uiso   1.00
C286   C     0.86866   0.21887   0.09406   0.00000  Uiso   1.00
C287   C     0.88604   0.24927   0.05845   0.00000  Uiso   1.00
C288   C     0.57372   0.37270   0.24314   0.00000  Uiso   1.00
C289   C     0.58056   0.41482   0.26884   0.00000  Uiso   1.00
C290   C     0.54499   0.42521   0.30106   0.00000  Uiso   1.00
C291   C     0.61744   0.32757   0.08475   0.00000  Uiso   1.00
C292   C     0.63134   0.28113   0.09406   0.00000  Uiso   1.00
C293   C     0.61396   0.25074   0.05844   0.00000  Uiso   1.00
C294   C     0.92628   0.12730   0.24314   0.00000  Uiso   1.00
C295   C     0.91944   0.08518   0.26884   0.00000  Uiso   1.00
C296   C     0.69008   0.06023   0.16672   0.00000  Uiso   1.00
C297   C     0.95502   0.07478   0.30106   0.00000  Uiso   1.00
C298   C     0.61744   0.17243   0.24858   0.00000  Uiso   1.00
C299   C     0.63134   0.21887   0.23927   0.00000  Uiso   1.00
C300   C     0.61396   0.24927   0.27489   0.00000  Uiso   1.00
C301   C     0.92628   0.37270   0.09020   0.00000  Uiso   1.00
C302   C     0.91944   0.41482   0.06449   0.00000  Uiso   1.00
C303   C     0.95501   0.42521   0.03227   0.00000  Uiso   1.00
C304   C     0.88256   0.32757   0.24859   0.00000  Uiso   1.00
C305   C     0.86866   0.28113   0.23928   0.00000  Uiso   1.00
C306   C     0.88604   0.25074   0.27490   0.00000  Uiso   1.00
C307   C     0.69008   0.43977   0.16661   0.00000  Uiso   1.00
C308   C     0.57372   0.12730   0.09020   0.00000  Uiso   1.00
C309   C     0.58056   0.08518   0.06449   0.00000  Uiso   1.00
C310   C     0.54498   0.07478   0.03227   0.00000  Uiso   1.00
C311   C     0.63256   0.42243   0.08475   0.00000  Uiso   1.00
C312   C     0.61866   0.46887   0.09406   0.00000  Uiso   1.00
C313   C     0.63604   0.49927   0.05845   0.00000  Uiso   1.00
C314   C     0.82372   0.12270   0.24314   0.00000  Uiso   1.00
C315   C     0.83056   0.16482   0.26884   0.00000  Uiso   1.00
C316   C     0.79499   0.17521   0.30106   0.00000  Uiso   1.00
C317   C     0.86744   0.07757   0.08475   0.00000  Uiso   1.00
C318   C     0.80992   0.06023   0.16661   0.00000  Uiso   1.00
C319   C     0.88134   0.03113   0.09406   0.00000  Uiso   1.00
C320   C     0.86396   0.00074   0.05844   0.00000  Uiso   1.00
C321   C     0.67628   0.37730   0.24314   0.00000  Uiso   1.00
C322   C     0.66944   0.33518   0.26884   0.00000  Uiso   1.00
C323   C     0.70502   0.32478   0.30106   0.00000  Uiso   1.00
C324   C     0.86744   0.42243   0.24858   0.00000  Uiso   1.00
C325   C     0.88134   0.46887   0.23927   0.00000  Uiso   1.00
C326   C     0.86396   0.49927   0.27489   0.00000  Uiso   1.00
C327   C     0.67628   0.12270   0.09020   0.00000  Uiso   1.00
C328   C     0.66944   0.16482   0.06449   0.00000  Uiso   1.00
C329   C     0.50152   0.28762   0.02382   0.00000  Uiso   1.00
C330   C     0.70501   0.17521   0.03227   0.00000  Uiso   1.00
C331   C     0.63256   0.07757   0.24859   0.00000  Uiso   1.00
C332   C     0.61866   0.03113   0.23928   0.00000  Uiso   1.00
C333   C     0.63604   0.00074   0.27489   0.00000  Uiso   1.00
C334   C     0.82372   0.37730   0.09020   0.00000  Uiso   1.00
C335   C     0.83056   0.33518   0.06449   0.00000  Uiso   1.00
C336   C     0.79498   0.32478   0.03227   0.00000  Uiso   1.00
H337   H     0.89749   0.27899   0.07442   0.00000  Uiso   1.00
H338   H     0.51604   0.43318   0.28224   0.00000  Uiso   1.00
H339   H     0.66260   0.01423   0.29420   0.00000  Uiso   1.00
H340   H     0.61073   0.49250   0.29834   0.00000  Uiso   1.00
H341   H     0.58385   0.02953   0.23907   0.00000  Uiso   1.00
H342   H     0.62877   0.01953   0.20590   0.00000  Uiso   1.00
H343   H     0.66257   0.07889   0.26598   0.00000  Uiso   1.00
H344   H     0.60953   0.09100   0.27281   0.00000  Uiso   1.00
H345   H     0.78953   0.35241   0.00962   0.00000  Uiso   1.00
H346   H     0.80321   0.29650   0.01134   0.00000  Uiso   1.00
H347   H     0.76603   0.31681   0.05109   0.00000  Uiso   1.00
H348   H     0.85958   0.33757   0.04435   0.00000  Uiso   1.00
H349   H     0.60958   0.41243   0.28899   0.00000  Uiso   1.00
H350   H     0.83270   0.30861   0.08925   0.00000  Uiso   1.00
H351   H     0.79328   0.37366   0.10750   0.00000  Uiso   1.00
H352   H     0.82235   0.40463   0.06643   0.00000  Uiso   1.00
H353   H     0.58271   0.44139   0.24409   0.00000  Uiso   1.00
H354   H     0.54328   0.37634   0.22583   0.00000  Uiso   1.00
H355   H     0.57235   0.34537   0.26690   0.00000  Uiso   1.00
H356   H     0.60251   0.22102   0.07441   0.00000  Uiso   1.00
H357   H     0.58740   0.26423   0.03913   0.00000  Uiso   1.00
H358   H     0.63927   0.24250   0.03500   0.00000  Uiso   1.00
H359   H     0.66615   0.27953   0.09427   0.00000  Uiso   1.00
H360   H     0.62123   0.26953   0.12743   0.00000  Uiso   1.00
H361   H     0.91260   0.23578   0.03914   0.00000  Uiso   1.00
H362   H     0.58743   0.32889   0.06735   0.00000  Uiso   1.00
H363   H     0.64047   0.34100   0.06053   0.00000  Uiso   1.00
H364   H     0.96047   0.10241   0.32372   0.00000  Uiso   1.00
H365   H     0.94678   0.04650   0.32199   0.00000  Uiso   1.00
H366   H     0.98397   0.06681   0.28224   0.00000  Uiso   1.00
H367   H     0.89042   0.08757   0.28899   0.00000  Uiso   1.00
H368   H     0.91729   0.05861   0.24408   0.00000  Uiso   1.00
H369   H     0.95672   0.12366   0.22583   0.00000  Uiso   1.00
H370   H     0.92765   0.15463   0.26690   0.00000  Uiso   1.00
H371   H     0.60251   0.27899   0.25891   0.00000  Uiso   1.00
H372   H     0.86074   0.25750   0.03500   0.00000  Uiso   1.00
H373   H     0.58740   0.23578   0.29419   0.00000  Uiso   1.00
H374   H     0.63926   0.25750   0.29834   0.00000  Uiso   1.00
H375   H     0.66615   0.22047   0.23907   0.00000  Uiso   1.00
H376   H     0.62124   0.23047   0.20589   0.00000  Uiso   1.00
H377   H     0.58743   0.17111   0.26598   0.00000  Uiso   1.00
H378   H     0.64047   0.15900   0.27281   0.00000  Uiso   1.00
H379   H     0.96047   0.39759   0.00962   0.00000  Uiso   1.00
H380   H     0.94678   0.45349   0.01134   0.00000  Uiso   1.00
H381   H     0.98396   0.43319   0.05109   0.00000  Uiso   1.00
H382   H     0.89042   0.41243   0.04434   0.00000  Uiso   1.00
H383   H     0.83385   0.22047   0.09427   0.00000  Uiso   1.00
H384   H     0.91729   0.44139   0.08924   0.00000  Uiso   1.00
H385   H     0.95672   0.37634   0.10750   0.00000  Uiso   1.00
H386   H     0.92765   0.34537   0.06643   0.00000  Uiso   1.00
H387   H     0.89749   0.22102   0.25892   0.00000  Uiso   1.00
H388   H     0.91259   0.26423   0.29421   0.00000  Uiso   1.00
H389   H     0.86073   0.24250   0.29834   0.00000  Uiso   1.00
H390   H     0.83385   0.27953   0.23907   0.00000  Uiso   1.00
H391   H     0.87877   0.26953   0.20590   0.00000  Uiso   1.00
H392   H     0.91257   0.32889   0.26598   0.00000  Uiso   1.00
H393   H     0.85953   0.34100   0.27281   0.00000  Uiso   1.00
H394   H     0.87876   0.23047   0.12744   0.00000  Uiso   1.00
H395   H     0.53953   0.10241   0.00962   0.00000  Uiso   1.00
H396   H     0.55322   0.04650   0.01134   0.00000  Uiso   1.00
H397   H     0.51603   0.06681   0.05109   0.00000  Uiso   1.00
H398   H     0.60958   0.08757   0.04435   0.00000  Uiso   1.00
H399   H     0.58271   0.05861   0.08925   0.00000  Uiso   1.00
H400   H     0.54328   0.12366   0.10750   0.00000  Uiso   1.00
H401   H     0.57235   0.15463   0.06643   0.00000  Uiso   1.00
H402   H     0.64749   0.02899   0.07442   0.00000  Uiso   1.00
H403   H     0.66260   0.48578   0.03914   0.00000  Uiso   1.00
H404   H     0.61073   0.00750   0.03500   0.00000  Uiso   1.00
H405   H     0.91257   0.17111   0.06735   0.00000  Uiso   1.00
H406   H     0.58385   0.47047   0.09427   0.00000  Uiso   1.00
H407   H     0.62876   0.48047   0.12744   0.00000  Uiso   1.00
H408   H     0.66257   0.42111   0.06735   0.00000  Uiso   1.00
H409   H     0.60953   0.40900   0.06053   0.00000  Uiso   1.00
H410   H     0.78953   0.14759   0.32372   0.00000  Uiso   1.00
H411   H     0.80322   0.20349   0.32200   0.00000  Uiso   1.00
H412   H     0.76604   0.18319   0.28224   0.00000  Uiso   1.00
H413   H     0.85958   0.16243   0.28899   0.00000  Uiso   1.00
H414   H     0.83271   0.19139   0.24409   0.00000  Uiso   1.00
H415   H     0.79328   0.12634   0.22583   0.00000  Uiso   1.00
H416   H     0.85953   0.15900   0.06053   0.00000  Uiso   1.00
H417   H     0.82235   0.09537   0.26690   0.00000  Uiso   1.00
H418   H     0.85251   0.47102   0.07441   0.00000  Uiso   1.00
H419   H     0.83740   0.01423   0.03913   0.00000  Uiso   1.00
H420   H     0.88927   0.49250   0.03499   0.00000  Uiso   1.00
H421   H     0.91615   0.02953   0.09426   0.00000  Uiso   1.00
H422   H     0.87123   0.01953   0.12743   0.00000  Uiso   1.00
H423   H     0.83743   0.07889   0.06735   0.00000  Uiso   1.00
H424   H     0.89047   0.09100   0.06053   0.00000  Uiso   1.00
H425   H     0.71047   0.35241   0.32372   0.00000  Uiso   1.00
H426   H     0.69678   0.29650   0.32199   0.00000  Uiso   1.00
H427   H     0.53953   0.39759   0.32372   0.00000  Uiso   1.00
H428   H     0.73397   0.31681   0.28224   0.00000  Uiso   1.00
H429   H     0.64042   0.33757   0.28899   0.00000  Uiso   1.00
H430   H     0.66729   0.30861   0.24409   0.00000  Uiso   1.00
H431   H     0.70672   0.37366   0.22583   0.00000  Uiso   1.00
H432   H     0.67765   0.40463   0.26690   0.00000  Uiso   1.00
H433   H     0.85251   0.02899   0.25891   0.00000  Uiso   1.00
H434   H     0.83740   0.48578   0.29419   0.00000  Uiso   1.00
H435   H     0.88926   0.00750   0.29833   0.00000  Uiso   1.00
H436   H     0.91615   0.47047   0.23907   0.00000  Uiso   1.00
H437   H     0.87124   0.48047   0.20589   0.00000  Uiso   1.00
H438   H     0.55322   0.45349   0.32200   0.00000  Uiso   1.00
H439   H     0.83743   0.42111   0.26598   0.00000  Uiso   1.00
H440   H     0.89047   0.40900   0.27281   0.00000  Uiso   1.00
H441   H     0.71047   0.14759   0.00962   0.00000  Uiso   1.00
H442   H     0.69678   0.20349   0.01134   0.00000  Uiso   1.00
H443   H     0.73396   0.18319   0.05109   0.00000  Uiso   1.00
H444   H     0.64042   0.16243   0.04434   0.00000  Uiso   1.00
H445   H     0.66729   0.19139   0.08924   0.00000  Uiso   1.00
H446   H     0.70672   0.12634   0.10750   0.00000  Uiso   1.00
H447   H     0.67765   0.09537   0.06643   0.00000  Uiso   1.00
H448   H     0.64749   0.47102   0.25892   0.00000  Uiso   1.00
N449   N     0.50000   0.25000   0.28573   0.00000  Uiso   1.00
N450   N     0.76790   0.39107   0.26819   0.00000  Uiso   1.00
N451   N     0.73210   0.39107   0.06514   0.00000  Uiso   1.00
N452   N     0.73210   0.10893   0.26819   0.00000  Uiso   1.00
N453   N     0.50000   0.25000   0.04760   0.00000  Uiso   1.00
N454   N     0.75000   0.00000   0.28573   0.00000  Uiso   1.00
N455   N     0.75000   0.00000   0.04760   0.00000  Uiso   1.00
N456   N     0.51790   0.35893   0.06514   0.00000  Uiso   1.00
N457   N     0.51790   0.14107   0.26819   0.00000  Uiso   1.00
N458   N     0.98210   0.14107   0.06514   0.00000  Uiso   1.00
N459   N     0.98210   0.35893   0.26819   0.00000  Uiso   1.00
N460   N     0.76790   0.10893   0.06514   0.00000  Uiso   1.00
O461   O     0.54580   0.20419   0.20487   0.00000  Uiso   1.00
O462   O     0.70419   0.04581   0.12846   0.00000  Uiso   1.00
O463   O     0.70419   0.04581   0.20487   0.00000  Uiso   1.00
O464   O     0.79580   0.45419   0.12846   0.00000  Uiso   1.00
O465   O     0.70419   0.45419   0.12846   0.00000  Uiso   1.00
O466   O     0.79580   0.04581   0.20487   0.00000  Uiso   1.00
O467   O     0.79580   0.04581   0.12846   0.00000  Uiso   1.00
O468   O     0.70419   0.45419   0.20487   0.00000  Uiso   1.00
O469   O     0.95419   0.29581   0.12846   0.00000  Uiso   1.00
O470   O     0.95419   0.29581   0.20487   0.00000  Uiso   1.00
O471   O     0.54580   0.20419   0.12846   0.00000  Uiso   1.00
O472   O     0.95419   0.20419   0.12846   0.00000  Uiso   1.00
O473   O     0.54580   0.29581   0.20487   0.00000  Uiso   1.00
O474   O     0.54580   0.29581   0.12846   0.00000  Uiso   1.00
O475   O     0.95419   0.20419   0.20487   0.00000  Uiso   1.00
O476   O     0.79580   0.45419   0.20487   0.00000  Uiso   1.00
Zn477  Zn    0.50000   0.25000   0.21771   0.00000  Uiso   1.00
Zn478  Zn    0.50000   0.25000   0.11563   0.00000  Uiso   1.00
Zn479  Zn    0.75000   0.00000   0.21771   0.00000  Uiso   1.00
Zn480  Zn    0.75000   0.00000   0.11563   0.00000  Uiso   1.00
C481   C     0.05992   0.68977   0.16672   0.00000  Uiso   1.00
C482   C     0.00152   0.71237   0.30952   0.00000  Uiso   1.00
C483   C     0.49848   0.71238   0.02382   0.00000  Uiso   1.00
C484   C     0.49848   0.78762   0.30952   0.00000  Uiso   1.00
C485   C     0.25152   0.53762   0.02382   0.00000  Uiso   1.00
C486   C     0.25152   0.96238   0.30952   0.00000  Uiso   1.00
C487   C     0.24848   0.96238   0.02382   0.00000  Uiso   1.00
C488   C     0.24848   0.53762   0.30952   0.00000  Uiso   1.00
C489   C     0.38529   0.64487   0.12656   0.00000  Uiso   1.00
C490   C     0.10563   0.86422   0.20648   0.00000  Uiso   1.00
C491   C     0.11471   0.85513   0.12656   0.00000  Uiso   1.00
C492   C     0.44008   0.81023   0.16672   0.00000  Uiso   1.00
C493   C     0.39438   0.63578   0.20648   0.00000  Uiso   1.00
C494   C     0.11471   0.64487   0.20677   0.00000  Uiso   1.00
C495   C     0.39437   0.86422   0.12685   0.00000  Uiso   1.00
C496   C     0.38529   0.85513   0.20677   0.00000  Uiso   1.00
C497   C     0.10562   0.63578   0.12685   0.00000  Uiso   1.00
C498   C     0.13529   0.89487   0.12656   0.00000  Uiso   1.00
C499   C     0.35563   0.61422   0.20648   0.00000  Uiso   1.00
C500   C     0.36471   0.60513   0.12656   0.00000  Uiso   1.00
C501   C     0.14438   0.88578   0.20648   0.00000  Uiso   1.00
C502   C     0.36471   0.89487   0.20677   0.00000  Uiso   1.00
C503   C     0.44008   0.68977   0.16661   0.00000  Uiso   1.00
C504   C     0.14437   0.61422   0.12685   0.00000  Uiso   1.00
C505   C     0.13529   0.60513   0.20677   0.00000  Uiso   1.00
C506   C     0.35562   0.88578   0.12685   0.00000  Uiso   1.00
C507   C     0.09371   0.84304   0.16647   0.00000  Uiso   1.00
C508   C     0.40629   0.65696   0.16647   0.00000  Uiso   1.00
C509   C     0.40629   0.84304   0.16686   0.00000  Uiso   1.00
C510   C     0.09371   0.65696   0.16686   0.00000  Uiso   1.00
C511   C     0.34371   0.59304   0.16647   0.00000  Uiso   1.00
C512   C     0.15629   0.90696   0.16647   0.00000  Uiso   1.00
C513   C     0.15629   0.59304   0.16686   0.00000  Uiso   1.00
C514   C     0.05992   0.81023   0.16661   0.00000  Uiso   1.00
C515   C     0.34371   0.90696   0.16686   0.00000  Uiso   1.00
C516   C     0.00980   0.82714   0.04695   0.00000  Uiso   1.00
C517   C     0.00980   0.67286   0.28639   0.00000  Uiso   1.00
C518   C     0.49020   0.67286   0.04695   0.00000  Uiso   1.00
C519   C     0.49020   0.82714   0.28639   0.00000  Uiso   1.00
C520   C     0.25980   0.57714   0.04695   0.00000  Uiso   1.00
C521   C     0.25980   0.92286   0.28639   0.00000  Uiso   1.00
C522   C     0.24020   0.92286   0.04695   0.00000  Uiso   1.00
C523   C     0.24020   0.57714   0.28639   0.00000  Uiso   1.00
C524   C     0.38256   0.67243   0.08475   0.00000  Uiso   1.00
C525   C     0.30992   0.93977   0.16672   0.00000  Uiso   1.00
C526   C     0.36866   0.71887   0.09406   0.00000  Uiso   1.00
C527   C     0.38604   0.74927   0.05845   0.00000  Uiso   1.00
C528   C     0.07372   0.87270   0.24314   0.00000  Uiso   1.00
C529   C     0.08056   0.91482   0.26884   0.00000  Uiso   1.00
C530   C     0.04499   0.92521   0.30106   0.00000  Uiso   1.00
C531   C     0.11744   0.82757   0.08475   0.00000  Uiso   1.00
C532   C     0.13134   0.78113   0.09406   0.00000  Uiso   1.00
C533   C     0.11396   0.75074   0.05844   0.00000  Uiso   1.00
C534   C     0.42628   0.62730   0.24314   0.00000  Uiso   1.00
C535   C     0.41944   0.58518   0.26884   0.00000  Uiso   1.00
C536   C     0.19008   0.56023   0.16672   0.00000  Uiso   1.00
C537   C     0.45502   0.57478   0.30106   0.00000  Uiso   1.00
C538   C     0.11744   0.67243   0.24858   0.00000  Uiso   1.00
C539   C     0.13134   0.71887   0.23927   0.00000  Uiso   1.00
C540   C     0.11396   0.74927   0.27489   0.00000  Uiso   1.00
C541   C     0.42628   0.87270   0.09020   0.00000  Uiso   1.00
C542   C     0.41944   0.91482   0.06449   0.00000  Uiso   1.00
C543   C     0.45501   0.92521   0.03227   0.00000  Uiso   1.00
C544   C     0.38256   0.82757   0.24859   0.00000  Uiso   1.00
C545   C     0.36866   0.78113   0.23928   0.00000  Uiso   1.00
C546   C     0.38604   0.75074   0.27490   0.00000  Uiso   1.00
C547   C     0.19008   0.93977   0.16661   0.00000  Uiso   1.00
C548   C     0.07372   0.62730   0.09020   0.00000  Uiso   1.00
C549   C     0.08056   0.58518   0.06449   0.00000  Uiso   1.00
C550   C     0.04498   0.57478   0.03227   0.00000  Uiso   1.00
C551   C     0.13256   0.92243   0.08475   0.00000  Uiso   1.00
C552   C     0.11866   0.96887   0.09406   0.00000  Uiso   1.00
C553   C     0.13604   0.99927   0.05845   0.00000  Uiso   1.00
C554   C     0.32372   0.62270   0.24314   0.00000  Uiso   1.00
C555   C     0.33056   0.66482   0.26884   0.00000  Uiso   1.00
C556   C     0.29499   0.67521   0.30106   0.00000  Uiso   1.00
C557   C     0.36744   0.57757   0.08475   0.00000  Uiso   1.00
C558   C     0.30992   0.56023   0.16661   0.00000  Uiso   1.00
C559   C     0.38134   0.53113   0.09406   0.00000  Uiso   1.00
C560   C     0.36396   0.50074   0.05844   0.00000  Uiso   1.00
C561   C     0.17628   0.87730   0.24314   0.00000  Uiso   1.00
C562   C     0.16944   0.83518   0.26884   0.00000  Uiso   1.00
C563   C     0.20502   0.82478   0.30106   0.00000  Uiso   1.00
C564   C     0.36744   0.92243   0.24858   0.00000  Uiso   1.00
C565   C     0.38134   0.96887   0.23927   0.00000  Uiso   1.00
C566   C     0.36396   0.99927   0.27489   0.00000  Uiso   1.00
C567   C     0.17628   0.62270   0.09020   0.00000  Uiso   1.00
C568   C     0.16944   0.66482   0.06449   0.00000  Uiso   1.00
C569   C     0.00152   0.78762   0.02382   0.00000  Uiso   1.00
C570   C     0.20501   0.67521   0.03227   0.00000  Uiso   1.00
C571   C     0.13256   0.57757   0.24859   0.00000  Uiso   1.00
C572   C     0.11866   0.53113   0.23928   0.00000  Uiso   1.00
C573   C     0.13604   0.50074   0.27489   0.00000  Uiso   1.00
C574   C     0.32372   0.87730   0.09020   0.00000  Uiso   1.00
C575   C     0.33056   0.83518   0.06449   0.00000  Uiso   1.00
C576   C     0.29498   0.82478   0.03227   0.00000  Uiso   1.00
H577   H     0.39749   0.77899   0.07442   0.00000  Uiso   1.00
H578   H     0.01604   0.93318   0.28224   0.00000  Uiso   1.00
H579   H     0.16260   0.51423   0.29420   0.00000  Uiso   1.00
H580   H     0.11073   0.99250   0.29834   0.00000  Uiso   1.00
H581   H     0.08385   0.52953   0.23907   0.00000  Uiso   1.00
H582   H     0.12877   0.51953   0.20590   0.00000  Uiso   1.00
H583   H     0.16257   0.57889   0.26598   0.00000  Uiso   1.00
H584   H     0.10953   0.59100   0.27281   0.00000  Uiso   1.00
H585   H     0.28953   0.85241   0.00962   0.00000  Uiso   1.00
H586   H     0.30321   0.79650   0.01134   0.00000  Uiso   1.00
H587   H     0.26603   0.81681   0.05109   0.00000  Uiso   1.00
H588   H     0.35958   0.83757   0.04435   0.00000  Uiso   1.00
H589   H     0.10958   0.91243   0.28899   0.00000  Uiso   1.00
H590   H     0.33270   0.80861   0.08925   0.00000  Uiso   1.00
H591   H     0.29328   0.87366   0.10750   0.00000  Uiso   1.00
H592   H     0.32235   0.90463   0.06643   0.00000  Uiso   1.00
H593   H     0.08271   0.94139   0.24409   0.00000  Uiso   1.00
H594   H     0.04328   0.87634   0.22583   0.00000  Uiso   1.00
H595   H     0.07235   0.84537   0.26690   0.00000  Uiso   1.00
H596   H     0.10251   0.72102   0.07441   0.00000  Uiso   1.00
H597   H     0.08740   0.76423   0.03913   0.00000  Uiso   1.00
H598   H     0.13927   0.74250   0.03500   0.00000  Uiso   1.00
H599   H     0.16615   0.77953   0.09427   0.00000  Uiso   1.00
H600   H     0.12123   0.76953   0.12743   0.00000  Uiso   1.00
H601   H     0.41260   0.73578   0.03914   0.00000  Uiso   1.00
H602   H     0.08743   0.82889   0.06735   0.00000  Uiso   1.00
H603   H     0.14047   0.84100   0.06053   0.00000  Uiso   1.00
H604   H     0.46047   0.60241   0.32372   0.00000  Uiso   1.00
H605   H     0.44678   0.54650   0.32199   0.00000  Uiso   1.00
H606   H     0.48397   0.56681   0.28224   0.00000  Uiso   1.00
H607   H     0.39042   0.58757   0.28899   0.00000  Uiso   1.00
H608   H     0.41729   0.55861   0.24408   0.00000  Uiso   1.00
H609   H     0.45672   0.62366   0.22583   0.00000  Uiso   1.00
H610   H     0.42765   0.65463   0.26690   0.00000  Uiso   1.00
H611   H     0.10251   0.77899   0.25891   0.00000  Uiso   1.00
H612   H     0.36074   0.75750   0.03500   0.00000  Uiso   1.00
H613   H     0.08740   0.73578   0.29419   0.00000  Uiso   1.00
H614   H     0.13926   0.75750   0.29834   0.00000  Uiso   1.00
H615   H     0.16615   0.72047   0.23907   0.00000  Uiso   1.00
H616   H     0.12124   0.73047   0.20589   0.00000  Uiso   1.00
H617   H     0.08743   0.67111   0.26598   0.00000  Uiso   1.00
H618   H     0.14047   0.65900   0.27281   0.00000  Uiso   1.00
H619   H     0.46047   0.89759   0.00962   0.00000  Uiso   1.00
H620   H     0.44678   0.95349   0.01134   0.00000  Uiso   1.00
H621   H     0.48396   0.93319   0.05109   0.00000  Uiso   1.00
H622   H     0.39042   0.91243   0.04434   0.00000  Uiso   1.00
H623   H     0.33385   0.72047   0.09427   0.00000  Uiso   1.00
H624   H     0.41729   0.94139   0.08924   0.00000  Uiso   1.00
H625   H     0.45672   0.87634   0.10750   0.00000  Uiso   1.00
H626   H     0.42765   0.84537   0.06643   0.00000  Uiso   1.00
H627   H     0.39749   0.72102   0.25892   0.00000  Uiso   1.00
H628   H     0.41259   0.76423   0.29421   0.00000  Uiso   1.00
H629   H     0.36073   0.74250   0.29834   0.00000  Uiso   1.00
H630   H     0.33385   0.77953   0.23907   0.00000  Uiso   1.00
H631   H     0.37877   0.76953   0.20590   0.00000  Uiso   1.00
H632   H     0.41257   0.82889   0.26598   0.00000  Uiso   1.00
H633   H     0.35953   0.84100   0.27281   0.00000  Uiso   1.00
H634   H     0.37876   0.73047   0.12744   0.00000  Uiso   1.00
H635   H     0.03953   0.60241   0.00962   0.00000  Uiso   1.00
H636   H     0.05322   0.54650   0.01134   0.00000  Uiso   1.00
H637   H     0.01603   0.56681   0.05109   0.00000  Uiso   1.00
H638   H     0.10958   0.58757   0.04435   0.00000  Uiso   1.00
H639   H     0.08271   0.55861   0.08925   0.00000  Uiso   1.00
H640   H     0.04328   0.62366   0.10750   0.00000  Uiso   1.00
H641   H     0.07235   0.65463   0.06643   0.00000  Uiso   1.00
H642   H     0.14749   0.52899   0.07442   0.00000  Uiso   1.00
H643   H     0.16260   0.98578   0.03914   0.00000  Uiso   1.00
H644   H     0.11073   0.50750   0.03500   0.00000  Uiso   1.00
H645   H     0.41257   0.67111   0.06735   0.00000  Uiso   1.00
H646   H     0.08385   0.97047   0.09427   0.00000  Uiso   1.00
H647   H     0.12876   0.98047   0.12744   0.00000  Uiso   1.00
H648   H     0.16257   0.92111   0.06735   0.00000  Uiso   1.00
H649   H     0.10953   0.90900   0.06053   0.00000  Uiso   1.00
H650   H     0.28953   0.64759   0.32372   0.00000  Uiso   1.00
H651   H     0.30322   0.70349   0.32200   0.00000  Uiso   1.00
H652   H     0.26604   0.68319   0.28224   0.00000  Uiso   1.00
H653   H     0.35958   0.66243   0.28899   0.00000  Uiso   1.00
H654   H     0.33271   0.69139   0.24409   0.00000  Uiso   1.00
H655   H     0.29328   0.62634   0.22583   0.00000  Uiso   1.00
H656   H     0.35953   0.65900   0.06053   0.00000  Uiso   1.00
H657   H     0.32235   0.59537   0.26690   0.00000  Uiso   1.00
H658   H     0.35251   0.97102   0.07441   0.00000  Uiso   1.00
H659   H     0.33740   0.51423   0.03913   0.00000  Uiso   1.00
H660   H     0.38927   0.99250   0.03499   0.00000  Uiso   1.00
H661   H     0.41615   0.52953   0.09426   0.00000  Uiso   1.00
H662   H     0.37123   0.51953   0.12743   0.00000  Uiso   1.00
H663   H     0.33743   0.57889   0.06735   0.00000  Uiso   1.00
H664   H     0.39047   0.59100   0.06053   0.00000  Uiso   1.00
H665   H     0.21047   0.85241   0.32372   0.00000  Uiso   1.00
H666   H     0.19678   0.79650   0.32199   0.00000  Uiso   1.00
H667   H     0.03953   0.89759   0.32372   0.00000  Uiso   1.00
H668   H     0.23397   0.81681   0.28224   0.00000  Uiso   1.00
H669   H     0.14042   0.83757   0.28899   0.00000  Uiso   1.00
H670   H     0.16729   0.80861   0.24409   0.00000  Uiso   1.00
H671   H     0.20672   0.87366   0.22583   0.00000  Uiso   1.00
H672   H     0.17765   0.90463   0.26690   0.00000  Uiso   1.00
H673   H     0.35251   0.52899   0.25891   0.00000  Uiso   1.00
H674   H     0.33740   0.98578   0.29419   0.00000  Uiso   1.00
H675   H     0.38926   0.50750   0.29833   0.00000  Uiso   1.00
H676   H     0.41615   0.97047   0.23907   0.00000  Uiso   1.00
H677   H     0.37124   0.98047   0.20589   0.00000  Uiso   1.00
H678   H     0.05322   0.95349   0.32200   0.00000  Uiso   1.00
H679   H     0.33743   0.92111   0.26598   0.00000  Uiso   1.00
H680   H     0.39047   0.90900   0.27281   0.00000  Uiso   1.00
H681   H     0.21047   0.64759   0.00962   0.00000  Uiso   1.00
H682   H     0.19678   0.70349   0.01134   0.00000  Uiso   1.00
H683   H     0.23396   0.68319   0.05109   0.00000  Uiso   1.00
H684   H     0.14042   0.66243   0.04434   0.00000  Uiso   1.00
H685   H     0.16729   0.69139   0.08924   0.00000  Uiso   1.00
H686   H     0.20672   0.62634   0.10750   0.00000  Uiso   1.00
H687   H     0.17765   0.59537   0.06643   0.00000  Uiso   1.00
H688   H     0.14749   0.97102   0.25892   0.00000  Uiso   1.00
N689   N     0.00000   0.75000   0.28573   0.00000  Uiso   1.00
N690   N     0.26790   0.89107   0.26819   0.00000  Uiso   1.00
N691   N     0.23210   0.89107   0.06514   0.00000  Uiso   1.00
N692   N     0.23210   0.60893   0.26819   0.00000  Uiso   1.00
N693   N    -0.00000   0.75000   0.04760   0.00000  Uiso   1.00
N694   N     0.25000   0.50000   0.28573   0.00000  Uiso   1.00
N695   N     0.25000   0.50000   0.04760   0.00000  Uiso   1.00
N696   N     0.01790   0.85893   0.06514   0.00000  Uiso   1.00
N697   N     0.01790   0.64107   0.26819   0.00000  Uiso   1.00
N698   N     0.48210   0.64107   0.06514   0.00000  Uiso   1.00
N699   N     0.48210   0.85893   0.26819   0.00000  Uiso   1.00
N700   N     0.26790   0.60893   0.06514   0.00000  Uiso   1.00
O701   O     0.04580   0.70419   0.20487   0.00000  Uiso   1.00
O702   O     0.20419   0.54581   0.12846   0.00000  Uiso   1.00
O703   O     0.20419   0.54581   0.20487   0.00000  Uiso   1.00
O704   O     0.29580   0.95419   0.12846   0.00000  Uiso   1.00
O705   O     0.20419   0.95419   0.12846   0.00000  Uiso   1.00
O706   O     0.29580   0.54581   0.20487   0.00000  Uiso   1.00
O707   O     0.29580   0.54581   0.12846   0.00000  Uiso   1.00
O708   O     0.20419   0.95419   0.20487   0.00000  Uiso   1.00
O709   O     0.45419   0.79581   0.12846   0.00000  Uiso   1.00
O710   O     0.45419   0.79581   0.20487   0.00000  Uiso   1.00
O711   O     0.04580   0.70419   0.12846   0.00000  Uiso   1.00
O712   O     0.45419   0.70419   0.12846   0.00000  Uiso   1.00
O713   O     0.04580   0.79581   0.20487   0.00000  Uiso   1.00
O714   O     0.04580   0.79581   0.12846   0.00000  Uiso   1.00
O715   O     0.45419   0.70419   0.20487   0.00000  Uiso   1.00
O716   O     0.29580   0.95419   0.20487   0.00000  Uiso   1.00
Zn717  Zn   -0.00000   0.75000   0.21771   0.00000  Uiso   1.00
Zn718  Zn    0.00000   0.75000   0.11563   0.00000  Uiso   1.00
Zn719  Zn    0.25000   0.50000   0.21771   0.00000  Uiso   1.00
Zn720  Zn    0.25000   0.50000   0.11563   0.00000  Uiso   1.00
C721   C     0.55992   0.68977   0.16672   0.00000  Uiso   1.00
C722   C     0.50152   0.71237   0.30952   0.00000  Uiso   1.00
C723   C     0.99848   0.71238   0.02382   0.00000  Uiso   1.00
C724   C     0.99848   0.78762   0.30952   0.00000  Uiso   1.00
C725   C     0.75152   0.53762   0.02382   0.00000  Uiso   1.00
C726   C     0.75152   0.96238   0.30952   0.00000  Uiso   1.00
C727   C     0.74848   0.96238   0.02382   0.00000  Uiso   1.00
C728   C     0.74848   0.53762   0.30952   0.00000  Uiso   1.00
C729   C     0.88529   0.64487   0.12656   0.00000  Uiso   1.00
C730   C     0.60563   0.86422   0.20648   0.00000  Uiso   1.00
C731   C     0.61471   0.85513   0.12656   0.00000  Uiso   1.00
C732   C     0.94008   0.81023   0.16672   0.00000  Uiso   1.00
C733   C     0.89438   0.63578   0.20648   0.00000  Uiso   1.00
C734   C     0.61471   0.64487   0.20677   0.00000  Uiso   1.00
C735   C     0.89437   0.86422   0.12685   0.00000  Uiso   1.00
C736   C     0.88529   0.85513   0.20677   0.00000  Uiso   1.00
C737   C     0.60562   0.63578   0.12685   0.00000  Uiso   1.00
C738   C     0.63529   0.89487   0.12656   0.00000  Uiso   1.00
C739   C     0.85563   0.61422   0.20648   0.00000  Uiso   1.00
C740   C     0.86471   0.60513   0.12656   0.00000  Uiso   1.00
C741   C     0.64438   0.88578   0.20648   0.00000  Uiso   1.00
C742   C     0.86471   0.89487   0.20677   0.00000  Uiso   1.00
C743   C     0.94008   0.68977   0.16661   0.00000  Uiso   1.00
C744   C     0.64437   0.61422   0.12685   0.00000  Uiso   1.00
C745   C     0.63529   0.60513   0.20677   0.00000  Uiso   1.00
C746   C     0.85562   0.88578   0.12685   0.00000  Uiso   1.00
C747   C     0.59371   0.84304   0.16647   0.00000  Uiso   1.00
C748   C     0.90629   0.65696   0.16647   0.00000  Uiso   1.00
C749   C     0.90629   0.84304   0.16686   0.00000  Uiso   1.00
C750   C     0.59371   0.65696   0.16686   0.00000  Uiso   1.00
C751   C     0.84371   0.59304   0.16647   0.00000  Uiso   1.00
C752   C     0.65629   0.90696   0.16647   0.00000  Uiso   1.00
C753   C     0.65629   0.59304   0.16686   0.00000  Uiso   1.00
C754   C     0.55992   0.81023   0.16661   0.00000  Uiso   1.00
C755   C     0.84371   0.90696   0.16686   0.00000  Uiso   1.00
C756   C     0.50980   0.82714   0.04695   0.00000  Uiso   1.00
C757   C     0.50980   0.67286   0.28639   0.00000  Uiso   1.00
C758   C     0.99020   0.67286   0.04695   0.00000  Uiso   1.00
C759   C     0.99020   0.82714   0.28639   0.00000  Uiso   1.00
C760   C     0.75980   0.57714   0.04695   0.00000  Uiso   1.00
C761   C     0.75980   0.92286   0.28639   0.00000  Uiso   1.00
C762   C     0.74020   0.92286   0.04695   0.00000  Uiso   1.00
C763   C     0.74020   0.57714   0.28639   0.00000  Uiso   1.00
C764   C     0.88256   0.67243   0.08475   0.00000  Uiso   1.00
C765   C     0.80992   0.93977   0.16672   0.00000  Uiso   1.00
C766   C     0.86866   0.71887   0.09406   0.00000  Uiso   1.00
C767   C     0.88604   0.74927   0.05845   0.00000  Uiso   1.00
C768   C     0.57372   0.87270   0.24314   0.00000  Uiso   1.00
C769   C     0.58056   0.91482   0.26884   0.00000  Uiso   1.00
C770   C     0.54499   0.92521   0.30106   0.00000  Uiso   1.00
C771   C     0.61744   0.82757   0.08475   0.00000  Uiso   1.00
C772   C     0.63134   0.78113   0.09406   0.00000  Uiso   1.00
C773   C     0.61396   0.75074   0.05844   0.00000  Uiso   1.00
C774   C     0.92628   0.62730   0.24314   0.00000  Uiso   1.00
C775   C     0.91944   0.58518   0.26884   0.00000  Uiso   1.00
C776   C     0.69008   0.56023   0.16672   0.00000  Uiso   1.00
C777   C     0.95502   0.57478   0.30106   0.00000  Uiso   1.00
C778   C     0.61744   0.67243   0.24858   0.00000  Uiso   1.00
C779   C     0.63134   0.71887   0.23927   0.00000  Uiso   1.00
C780   C     0.61396   0.74927   0.27489   0.00000  Uiso   1.00
C781   C     0.92628   0.87270   0.09020   0.00000  Uiso   1.00
C782   C     0.91944   0.91482   0.06449   0.00000  Uiso   1.00
C783   C     0.95501   0.92521   0.03227   0.00000  Uiso   1.00
C784   C     0.88256   0.82757   0.24859   0.00000  Uiso   1.00
C785   C     0.86866   0.78113   0.23928   0.00000  Uiso   1.00
C786   C     0.88604   0.75074   0.27490   0.00000  Uiso   1.00
C787   C     0.69008   0.93977   0.16661   0.00000  Uiso   1.00
C788   C     0.57372   0.62730   0.09020   0.00000  Uiso   1.00
C789   C     0.58056   0.58518   0.06449   0.00000  Uiso   1.00
C790   C     0.54498   0.57478   0.03227   0.00000  Uiso   1.00
C791   C     0.63256   0.92243   0.08475   0.00000  Uiso   1.00
C792   C     0.61866   0.96887   0.09406   0.00000  Uiso   1.00
C793   C     0.63604   0.99927   0.05845   0.00000  Uiso   1.00
C794   C     0.82372   0.62270   0.24314   0.00000  Uiso   1.00
C795   C     0.83056   0.66482   0.26884   0.00000  Uiso   1.00
C796   C     0.79499   0.67521   0.30106   0.00000  Uiso   1.00
C797   C     0.86744   0.57757   0.08475   0.00000  Uiso   1.00
C798   C     0.80992   0.56023   0.16661   0.00000  Uiso   1.00
C799   C     0.88134   0.53113   0.09406   0.00000  Uiso   1.00
C800   C     0.86396   0.50074   0.05844   0.00000  Uiso   1.00
C801   C     0.67628   0.87730   0.24314   0.00000  Uiso   1.00
C802   C     0.66944   0.83518   0.26884   0.00000  Uiso   1.00
C803   C     0.70502   0.82478   0.30106   0.00000  Uiso   1.00
C804   C     0.86744   0.92243   0.24858   0.00000  Uiso   1.00
C805   C     0.88134   0.96887   0.23927   0.00000  Uiso   1.00
C806   C     0.86396   0.99927   0.27489   0.00000  Uiso   1.00
C807   C     0.67628   0.62270   0.09020   0.00000  Uiso   1.00
C808   C     0.66944   0.66482   0.06449   0.00000  Uiso   1.00
C809   C     0.50152   0.78762   0.02382   0.00000  Uiso   1.00
C810   C     0.70501   0.67521   0.03227   0.00000  Uiso   1.00
C811   C     0.63256   0.57757   0.24859   0.00000  Uiso   1.00
C812   C     0.61866   0.53113   0.23928   0.00000  Uiso   1.00
C813   C     0.63604   0.50074   0.27489   0.00000  Uiso   1.00
C814   C     0.82372   0.87730   0.09020   0.00000  Uiso   1.00
C815   C     0.83056   0.83518   0.06449   0.00000  Uiso   1.00
C816   C     0.79498   0.82478   0.03227   0.00000  Uiso   1.00
H817   H     0.89749   0.77899   0.07442   0.00000  Uiso   1.00
H818   H     0.51604   0.93318   0.28224   0.00000  Uiso   1.00
H819   H     0.66260   0.51423   0.29420   0.00000  Uiso   1.00
H820   H     0.61073   0.99250   0.29834   0.00000  Uiso   1.00
H821   H     0.58385   0.52953   0.23907   0.00000  Uiso   1.00
H822   H     0.62877   0.51953   0.20590   0.00000  Uiso   1.00
H823   H     0.66257   0.57889   0.26598   0.00000  Uiso   1.00
H824   H     0.60953   0.59100   0.27281   0.00000  Uiso   1.00
H825   H     0.78953   0.85241   0.00962   0.00000  Uiso   1.00
H826   H     0.80321   0.79650   0.01134   0.00000  Uiso   1.00
H827   H     0.76603   0.81681   0.05109   0.00000  Uiso   1.00
H828   H     0.85958   0.83757   0.04435   0.00000  Uiso   1.00
H829   H     0.60958   0.91243   0.28899   0.00000  Uiso   1.00
H830   H     0.83270   0.80861   0.08925   0.00000  Uiso   1.00
H831   H     0.79328   0.87366   0.10750   0.00000  Uiso   1.00
H832   H     0.82235   0.90463   0.06643   0.00000  Uiso   1.00
H833   H     0.58271   0.94139   0.24409   0.00000  Uiso   1.00
H834   H     0.54328   0.87634   0.22583   0.00000  Uiso   1.00
H835   H     0.57235   0.84537   0.26690   0.00000  Uiso   1.00
H836   H     0.60251   0.72102   0.07441   0.00000  Uiso   1.00
H837   H     0.58740   0.76423   0.03913   0.00000  Uiso   1.00
H838   H     0.63927   0.74250   0.03500   0.00000  Uiso   1.00
H839   H     0.66615   0.77953   0.09427   0.00000  Uiso   1.00
H840   H     0.62123   0.76953   0.12743   0.00000  Uiso   1.00
H841   H     0.91260   0.73578   0.03914   0.00000  Uiso   1.00
H842   H     0.58743   0.82889   0.06735   0.00000  Uiso   1.00
H843   H     0.64047   0.84100   0.06053   0.00000  Uiso   1.00
H844   H     0.96047   0.60241   0.32372   0.00000  Uiso   1.00
H845   H     0.94678   0.54650   0.32199   0.00000  Uiso   1.00
H846   H     0.98397   0.56681   0.28224   0.00000  Uiso   1.00
H847   H     0.89042   0.58757   0.28899   0.00000  Uiso   1.00
H848   H     0.91729   0.55861   0.24408   0.00000  Uiso   1.00
H849   H     0.95672   0.62366   0.22583   0.00000  Uiso   1.00
H850   H     0.92765   0.65463   0.26690   0.00000  Uiso   1.00
H851   H     0.60251   0.77899   0.25891   0.00000  Uiso   1.00
H852   H     0.86074   0.75750   0.03500   0.00000  Uiso   1.00
H853   H     0.58740   0.73578   0.29419   0.00000  Uiso   1.00
H854   H     0.63926   0.75750   0.29834   0.00000  Uiso   1.00
H855   H     0.66615   0.72047   0.23907   0.00000  Uiso   1.00
H856   H     0.62124   0.73047   0.20589   0.00000  Uiso   1.00
H857   H     0.58743   0.67111   0.26598   0.00000  Uiso   1.00
H858   H     0.64047   0.65900   0.27281   0.00000  Uiso   1.00
H859   H     0.96047   0.89759   0.00962   0.00000  Uiso   1.00
H860   H     0.94678   0.95349   0.01134   0.00000  Uiso   1.00
H861   H     0.98396   0.93319   0.05109   0.00000  Uiso   1.00
H862   H     0.89042   0.91243   0.04434   0.00000  Uiso   1.00
H863   H     0.83385   0.72047   0.09427   0.00000  Uiso   1.00
H864   H     0.91729   0.94139   0.08924   0.00000  Uiso   1.00
H865   H     0.95672   0.87634   0.10750   0.00000  Uiso   1.00
H866   H     0.92765   0.84537   0.06643   0.00000  Uiso   1.00
H867   H     0.89749   0.72102   0.25892   0.00000  Uiso   1.00
H868   H     0.91259   0.76423   0.29421   0.00000  Uiso   1.00
H869   H     0.86073   0.74250   0.29834   0.00000  Uiso   1.00
H870   H     0.83385   0.77953   0.23907   0.00000  Uiso   1.00
H871   H     0.87877   0.76953   0.20590   0.00000  Uiso   1.00
H872   H     0.91257   0.82889   0.26598   0.00000  Uiso   1.00
H873   H     0.85953   0.84100   0.27281   0.00000  Uiso   1.00
H874   H     0.87876   0.73047   0.12744   0.00000  Uiso   1.00
H875   H     0.53953   0.60241   0.00962   0.00000  Uiso   1.00
H876   H     0.55322   0.54650   0.01134   0.00000  Uiso   1.00
H877   H     0.51603   0.56681   0.05109   0.00000  Uiso   1.00
H878   H     0.60958   0.58757   0.04435   0.00000  Uiso   1.00
H879   H     0.58271   0.55861   0.08925   0.00000  Uiso   1.00
H880   H     0.54328   0.62366   0.10750   0.00000  Uiso   1.00
H881   H     0.57235   0.65463   0.06643   0.00000  Uiso   1.00
H882   H     0.64749   0.52899   0.07442   0.00000  Uiso   1.00
H883   H     0.66260   0.98578   0.03914   0.00000  Uiso   1.00
H884   H     0.61073   0.50750   0.03500   0.00000  Uiso   1.00
H885   H     0.91257   0.67111   0.06735   0.00000  Uiso   1.00
H886   H     0.58385   0.97047   0.09427   0.00000  Uiso   1.00
H887   H     0.62876   0.98047   0.12744   0.00000  Uiso   1.00
H888   H     0.66257   0.92111   0.06735   0.00000  Uiso   1.00
H889   H     0.60953   0.90900   0.06053   0.00000  Uiso   1.00
H890   H     0.78953   0.64759   0.32372   0.00000  Uiso   1.00
H891   H     0.80322   0.70349   0.32200   0.00000  Uiso   1.00
H892   H     0.76604   0.68319   0.28224   0.00000  Uiso   1.00
H893   H     0.85958   0.66243   0.28899   0.00000  Uiso   1.00
H894   H     0.83271   0.69139   0.24409   0.00000  Uiso   1.00
H895   H     0.79328   0.62634   0.22583   0.00000  Uiso   1.00
H896   H     0.85953   0.65900   0.06053   0.00000  Uiso   1.00
H897   H     0.82235   0.59537   0.26690   0.00000  Uiso   1.00
H898   H     0.85251   0.97102   0.07441   0.00000  Uiso   1.00
H899   H     0.83740   0.51423   0.03913   0.00000  Uiso   1.00
H900   H     0.88927   0.99250   0.03499   0.00000  Uiso   1.00
H901   H     0.91615   0.52953   0.09426   0.00000  Uiso   1.00
H902   H     0.87123   0.51953   0.12743   0.00000  Uiso   1.00
H903   H     0.83743   0.57889   0.06735   0.00000  Uiso   1.00
H904   H     0.89047   0.59100   0.06053   0.00000  Uiso   1.00
H905   H     0.71047   0.85241   0.32372   0.00000  Uiso   1.00
H906   H     0.69678   0.79650   0.32199   0.00000  Uiso   1.00
H907   H     0.53953   0.89759   0.32372   0.00000  Uiso   1.00
H908   H     0.73397   0.81681   0.28224   0.00000  Uiso   1.00
H909   H     0.64042   0.83757   0.28899   0.00000  Uiso   1.00
H910   H     0.66729   0.80861   0.24409   0.00000  Uiso   1.00
H911   H     0.70672   0.87366   0.22583   0.00000  Uiso   1.00
H912   H     0.67765   0.90463   0.26690   0.00000  Uiso   1.00
H913   H     0.85251   0.52899   0.25891   0.00000  Uiso   1.00
H914   H     0.83740   0.98578   0.29419   0.00000  Uiso   1.00
H915   H     0.88926   0.50750   0.29833   0.00000  Uiso   1.00
H916   H     0.91615   0.97047   0.23907   0.00000  Uiso   1.00
H917   H     0.87124   0.98047   0.20589   0.00000  Uiso   1.00
H918   H     0.55322   0.95349   0.32200   0.00000  Uiso   1.00
H919   H     0.83743   0.92111   0.26598   0.00000  Uiso   1.00
H920   H     0.89047   0.90900   0.27281   0.00000  Uiso   1.00
H921   H     0.71047   0.64759   0.00962   0.00000  Uiso   1.00
H922   H     0.69678   0.70349   0.01134   0.00000  Uiso   1.00
H923   H     0.73396   0.68319   0.05109   0.00000  Uiso   1.00
H924   H     0.64042   0.66243   0.04434   0.00000  Uiso   1.00
H925   H     0.66729   0.69139   0.08924   0.00000  Uiso   1.00
H926   H     0.70672   0.62634   0.10750   0.00000  Uiso   1.00
H927   H     0.67765   0.59537   0.06643   0.00000  Uiso   1.00
H928   H     0.64749   0.97102   0.25892   0.00000  Uiso   1.00
N929   N     0.50000   0.75000   0.28573   0.00000  Uiso   1.00
N930   N     0.76790   0.89107   0.26819   0.00000  Uiso   1.00
N931   N     0.73210   0.89107   0.06514   0.00000  Uiso   1.00
N932   N     0.73210   0.60893   0.26819   0.00000  Uiso   1.00
N933   N     0.50000   0.75000   0.04760   0.00000  Uiso   1.00
N934   N     0.75000   0.50000   0.28573   0.00000  Uiso   1.00
N935   N     0.75000   0.50000   0.04760   0.00000  Uiso   1.00
N936   N     0.51790   0.85893   0.06514   0.00000  Uiso   1.00
N937   N     0.51790   0.64107   0.26819   0.00000  Uiso   1.00
N938   N     0.98210   0.64107   0.06514   0.00000  Uiso   1.00
N939   N     0.98210   0.85893   0.26819   0.00000  Uiso   1.00
N940   N     0.76790   0.60893   0.06514   0.00000  Uiso   1.00
O941   O     0.54580   0.70419   0.20487   0.00000  Uiso   1.00
O942   O     0.70419   0.54581   0.12846   0.00000  Uiso   1.00
O943   O     0.70419   0.54581   0.20487   0.00000  Uiso   1.00
O944   O     0.79580   0.95419   0.12846   0.00000  Uiso   1.00
O945   O     0.70419   0.95419   0.12846   0.00000  Uiso   1.00
O946   O     0.79580   0.54581   0.20487   0.00000  Uiso   1.00
O947   O     0.79580   0.54581   0.12846   0.00000  Uiso   1.00
O948   O     0.70419   0.95419   0.20487   0.00000  Uiso   1.00
O949   O     0.95419   0.79581   0.12846   0.00000  Uiso   1.00
O950   O     0.95419   0.79581   0.20487   0.00000  Uiso   1.00
O951   O     0.54580   0.70419   0.12846   0.00000  Uiso   1.00
O952   O     0.95419   0.70419   0.12846   0.00000  Uiso   1.00
O953   O     0.54580   0.79581   0.20487   0.00000  Uiso   1.00
O954   O     0.54580   0.79581   0.12846   0.00000  Uiso   1.00
O955   O     0.95419   0.70419   0.20487   0.00000  Uiso   1.00
O956   O     0.79580   0.95419   0.20487   0.00000  Uiso   1.00
Zn957  Zn    0.50000   0.75000   0.21771   0.00000  Uiso   1.00
Zn958  Zn    0.50000   0.75000   0.11563   0.00000  Uiso   1.00
Zn959  Zn    0.75000   0.50000   0.21771   0.00000  Uiso   1.00
Zn960  Zn    0.75000   0.50000   0.11563   0.00000  Uiso   1.00
C961   C     0.05992   0.18977   0.50005   0.00000  Uiso   1.00
C962   C     0.00152   0.21237   0.64285   0.00000  Uiso   1.00
C963   C     0.49848   0.21238   0.35715   0.00000  Uiso   1.00
C964   C     0.49848   0.28762   0.64285   0.00000  Uiso   1.00
C965   C     0.25152   0.03762   0.35715   0.00000  Uiso   1.00
C966   C     0.25152   0.46238   0.64285   0.00000  Uiso   1.00
C967   C     0.24848   0.46238   0.35715   0.00000  Uiso   1.00
C968   C     0.24848   0.03762   0.64285   0.00000  Uiso   1.00
C969   C     0.38529   0.14487   0.45989   0.00000  Uiso   1.00
C970   C     0.10563   0.36422   0.53982   0.00000  Uiso   1.00
C971   C     0.11471   0.35513   0.45989   0.00000  Uiso   1.00
C972   C     0.44008   0.31023   0.50005   0.00000  Uiso   1.00
C973   C     0.39438   0.13578   0.53982   0.00000  Uiso   1.00
C974   C     0.11471   0.14487   0.54011   0.00000  Uiso   1.00
C975   C     0.39437   0.36422   0.46018   0.00000  Uiso   1.00
C976   C     0.38529   0.35513   0.54011   0.00000  Uiso   1.00
C977   C     0.10562   0.13578   0.46018   0.00000  Uiso   1.00
C978   C     0.13529   0.39487   0.45989   0.00000  Uiso   1.00
C979   C     0.35563   0.11422   0.53982   0.00000  Uiso   1.00
C980   C     0.36471   0.10513   0.45989   0.00000  Uiso   1.00
C981   C     0.14438   0.38578   0.53982   0.00000  Uiso   1.00
C982   C     0.36471   0.39487   0.54011   0.00000  Uiso   1.00
C983   C     0.44008   0.18977   0.49995   0.00000  Uiso   1.00
C984   C     0.14437   0.11422   0.46018   0.00000  Uiso   1.00
C985   C     0.13529   0.10513   0.54011   0.00000  Uiso   1.00
C986   C     0.35562   0.38578   0.46018   0.00000  Uiso   1.00
C987   C     0.09371   0.34304   0.49981   0.00000  Uiso   1.00
C988   C     0.40629   0.15696   0.49981   0.00000  Uiso   1.00
C989   C     0.40629   0.34304   0.50019   0.00000  Uiso   1.00
C990   C     0.09371   0.15696   0.50019   0.00000  Uiso   1.00
C991   C     0.34371   0.09304   0.49981   0.00000  Uiso   1.00
C992   C     0.15629   0.40696   0.49981   0.00000  Uiso   1.00
C993   C     0.15629   0.09304   0.50019   0.00000  Uiso   1.00
C994   C     0.05992   0.31023   0.49995   0.00000  Uiso   1.00
C995   C     0.34371   0.40696   0.50019   0.00000  Uiso   1.00
C996   C     0.00980   0.32714   0.38028   0.00000  Uiso   1.00
C997   C     0.00980   0.17286   0.61972   0.00000  Uiso   1.00
C998   C     0.49020   0.17286   0.38028   0.00000  Uiso   1.00
C999   C     0.49020   0.32714   0.61972   0.00000  Uiso   1.00
C1000  C     0.25980   0.07714   0.38028   0.00000  Uiso   1.00
C1001  C     0.25980   0.42286   0.61972   0.00000  Uiso   1.00
C1002  C     0.24020   0.42286   0.38028   0.00000  Uiso   1.00
C1003  C     0.24020   0.07714   0.61972   0.00000  Uiso   1.00
C1004  C     0.38256   0.17243   0.41808   0.00000  Uiso   1.00
C1005  C     0.30992   0.43977   0.50005   0.00000  Uiso   1.00
C1006  C     0.36866   0.21887   0.42739   0.00000  Uiso   1.00
C1007  C     0.38604   0.24927   0.39178   0.00000  Uiso   1.00
C1008  C     0.07372   0.37270   0.57647   0.00000  Uiso   1.00
C1009  C     0.08056   0.41482   0.60218   0.00000  Uiso   1.00
C1010  C     0.04499   0.42521   0.63440   0.00000  Uiso   1.00
C1011  C     0.11744   0.32757   0.41808   0.00000  Uiso   1.00
C1012  C     0.13134   0.28113   0.42739   0.00000  Uiso   1.00
C1013  C     0.11396   0.25074   0.39177   0.00000  Uiso   1.00
C1014  C     0.42628   0.12730   0.57647   0.00000  Uiso   1.00
C1015  C     0.41944   0.08518   0.60217   0.00000  Uiso   1.00
C1016  C     0.19008   0.06023   0.50005   0.00000  Uiso   1.00
C1017  C     0.45502   0.07478   0.63439   0.00000  Uiso   1.00
C1018  C     0.11744   0.17243   0.58192   0.00000  Uiso   1.00
C1019  C     0.13134   0.21887   0.57261   0.00000  Uiso   1.00
C1020  C     0.11396   0.24927   0.60822   0.00000  Uiso   1.00
C1021  C     0.42628   0.37270   0.42353   0.00000  Uiso   1.00
C1022  C     0.41944   0.41482   0.39782   0.00000  Uiso   1.00
C1023  C     0.45501   0.42521   0.36560   0.00000  Uiso   1.00
C1024  C     0.38256   0.32757   0.58192   0.00000  Uiso   1.00
C1025  C     0.36866   0.28113   0.57261   0.00000  Uiso   1.00
C1026  C     0.38604   0.25074   0.60823   0.00000  Uiso   1.00
C1027  C     0.19008   0.43977   0.49995   0.00000  Uiso   1.00
C1028  C     0.07372   0.12730   0.42353   0.00000  Uiso   1.00
C1029  C     0.08056   0.08518   0.39783   0.00000  Uiso   1.00
C1030  C     0.04498   0.07478   0.36561   0.00000  Uiso   1.00
C1031  C     0.13256   0.42243   0.41808   0.00000  Uiso   1.00
C1032  C     0.11866   0.46887   0.42739   0.00000  Uiso   1.00
C1033  C     0.13604   0.49927   0.39178   0.00000  Uiso   1.00
C1034  C     0.32372   0.12270   0.57647   0.00000  Uiso   1.00
C1035  C     0.33056   0.16482   0.60218   0.00000  Uiso   1.00
C1036  C     0.29499   0.17521   0.63440   0.00000  Uiso   1.00
C1037  C     0.36744   0.07757   0.41808   0.00000  Uiso   1.00
C1038  C     0.30992   0.06023   0.49995   0.00000  Uiso   1.00
C1039  C     0.38134   0.03113   0.42739   0.00000  Uiso   1.00
C1040  C     0.36396   0.00074   0.39177   0.00000  Uiso   1.00
C1041  C     0.17628   0.37730   0.57647   0.00000  Uiso   1.00
C1042  C     0.16944   0.33518   0.60217   0.00000  Uiso   1.00
C1043  C     0.20502   0.32478   0.63439   0.00000  Uiso   1.00
C1044  C     0.36744   0.42243   0.58192   0.00000  Uiso   1.00
C1045  C     0.38134   0.46887   0.57261   0.00000  Uiso   1.00
C1046  C     0.36396   0.49927   0.60822   0.00000  Uiso   1.00
C1047  C     0.17628   0.12270   0.42353   0.00000  Uiso   1.00
C1048  C     0.16944   0.16482   0.39782   0.00000  Uiso   1.00
C1049  C     0.00152   0.28762   0.35715   0.00000  Uiso   1.00
C1050  C     0.20501   0.17521   0.36560   0.00000  Uiso   1.00
C1051  C     0.13256   0.07757   0.58192   0.00000  Uiso   1.00
C1052  C     0.11866   0.03113   0.57261   0.00000  Uiso   1.00
C1053  C     0.13604   0.00074   0.60823   0.00000  Uiso   1.00
C1054  C     0.32372   0.37730   0.42353   0.00000  Uiso   1.00
C1055  C     0.33056   0.33518   0.39783   0.00000  Uiso   1.00
C1056  C     0.29498   0.32478   0.36561   0.00000  Uiso   1.00
H1057  H     0.39749   0.27899   0.40776   0.00000  Uiso   1.00
H1058  H     0.01604   0.43318   0.61558   0.00000  Uiso   1.00
H1059  H     0.16260   0.01423   0.62754   0.00000  Uiso   1.00
H1060  H     0.11073   0.49250   0.63167   0.00000  Uiso   1.00
H1061  H     0.08385   0.02953   0.57240   0.00000  Uiso   1.00
H1062  H     0.12877   0.01953   0.53923   0.00000  Uiso   1.00
H1063  H     0.16257   0.07889   0.59932   0.00000  Uiso   1.00
H1064  H     0.10953   0.09100   0.60614   0.00000  Uiso   1.00
H1065  H     0.28953   0.35241   0.34295   0.00000  Uiso   1.00
H1066  H     0.30321   0.29650   0.34467   0.00000  Uiso   1.00
H1067  H     0.26603   0.31681   0.38443   0.00000  Uiso   1.00
H1068  H     0.35958   0.33757   0.37768   0.00000  Uiso   1.00
H1069  H     0.10958   0.41243   0.62232   0.00000  Uiso   1.00
H1070  H     0.33270   0.30861   0.42258   0.00000  Uiso   1.00
H1071  H     0.29328   0.37366   0.44084   0.00000  Uiso   1.00
H1072  H     0.32235   0.40463   0.39976   0.00000  Uiso   1.00
H1073  H     0.08271   0.44139   0.57742   0.00000  Uiso   1.00
H1074  H     0.04328   0.37634   0.55917   0.00000  Uiso   1.00
H1075  H     0.07235   0.34537   0.60024   0.00000  Uiso   1.00
H1076  H     0.10251   0.22102   0.40774   0.00000  Uiso   1.00
H1077  H     0.08740   0.26423   0.37246   0.00000  Uiso   1.00
H1078  H     0.13927   0.24250   0.36833   0.00000  Uiso   1.00
H1079  H     0.16615   0.27953   0.42760   0.00000  Uiso   1.00
H1080  H     0.12123   0.26953   0.46077   0.00000  Uiso   1.00
H1081  H     0.41260   0.23578   0.37248   0.00000  Uiso   1.00
H1082  H     0.08743   0.32889   0.40068   0.00000  Uiso   1.00
H1083  H     0.14047   0.34100   0.39386   0.00000  Uiso   1.00
H1084  H     0.46047   0.10241   0.65705   0.00000  Uiso   1.00
H1085  H     0.44678   0.04650   0.65533   0.00000  Uiso   1.00
H1086  H     0.48397   0.06681   0.61557   0.00000  Uiso   1.00
H1087  H     0.39042   0.08757   0.62232   0.00000  Uiso   1.00
H1088  H     0.41729   0.05861   0.57742   0.00000  Uiso   1.00
H1089  H     0.45672   0.12366   0.55916   0.00000  Uiso   1.00
H1090  H     0.42765   0.15463   0.60024   0.00000  Uiso   1.00
H1091  H     0.10251   0.27899   0.59225   0.00000  Uiso   1.00
H1092  H     0.36074   0.25750   0.36833   0.00000  Uiso   1.00
H1093  H     0.08740   0.23578   0.62752   0.00000  Uiso   1.00
H1094  H     0.13926   0.25750   0.63167   0.00000  Uiso   1.00
H1095  H     0.16615   0.22047   0.57240   0.00000  Uiso   1.00
H1096  H     0.12124   0.23047   0.53923   0.00000  Uiso   1.00
H1097  H     0.08743   0.17111   0.59932   0.00000  Uiso   1.00
H1098  H     0.14047   0.15900   0.60614   0.00000  Uiso   1.00
H1099  H     0.46047   0.39759   0.34295   0.00000  Uiso   1.00
H1100  H     0.44678   0.45349   0.34467   0.00000  Uiso   1.00
H1101  H     0.48396   0.43319   0.38442   0.00000  Uiso   1.00
H1102  H     0.39042   0.41243   0.37768   0.00000  Uiso   1.00
H1103  H     0.33385   0.22047   0.42760   0.00000  Uiso   1.00
H1104  H     0.41729   0.44139   0.42258   0.00000  Uiso   1.00
H1105  H     0.45672   0.37634   0.44083   0.00000  Uiso   1.00
H1106  H     0.42765   0.34537   0.39976   0.00000  Uiso   1.00
H1107  H     0.39749   0.22102   0.59226   0.00000  Uiso   1.00
H1108  H     0.41259   0.26423   0.62754   0.00000  Uiso   1.00
H1109  H     0.36073   0.24250   0.63167   0.00000  Uiso   1.00
H1110  H     0.33385   0.27953   0.57240   0.00000  Uiso   1.00
H1111  H     0.37877   0.26953   0.53923   0.00000  Uiso   1.00
H1112  H     0.41257   0.32889   0.59932   0.00000  Uiso   1.00
H1113  H     0.35953   0.34100   0.60614   0.00000  Uiso   1.00
H1114  H     0.37876   0.23047   0.46077   0.00000  Uiso   1.00
H1115  H     0.03953   0.10241   0.34295   0.00000  Uiso   1.00
H1116  H     0.05322   0.04650   0.34467   0.00000  Uiso   1.00
H1117  H     0.01603   0.06681   0.38443   0.00000  Uiso   1.00
H1118  H     0.10958   0.08757   0.37768   0.00000  Uiso   1.00
H1119  H     0.08271   0.05861   0.42258   0.00000  Uiso   1.00
H1120  H     0.04328   0.12366   0.44084   0.00000  Uiso   1.00
H1121  H     0.07235   0.15463   0.39976   0.00000  Uiso   1.00
H1122  H     0.14749   0.02899   0.40775   0.00000  Uiso   1.00
H1123  H     0.16260   0.48578   0.37248   0.00000  Uiso   1.00
H1124  H     0.11073   0.00750   0.36833   0.00000  Uiso   1.00
H1125  H     0.41257   0.17111   0.40068   0.00000  Uiso   1.00
H1126  H     0.08385   0.47047   0.42760   0.00000  Uiso   1.00
H1127  H     0.12876   0.48047   0.46077   0.00000  Uiso   1.00
H1128  H     0.16257   0.42111   0.40068   0.00000  Uiso   1.00
H1129  H     0.10953   0.40900   0.39386   0.00000  Uiso   1.00
H1130  H     0.28953   0.14759   0.65705   0.00000  Uiso   1.00
H1131  H     0.30322   0.20349   0.65533   0.00000  Uiso   1.00
H1132  H     0.26604   0.18319   0.61558   0.00000  Uiso   1.00
H1133  H     0.35958   0.16243   0.62232   0.00000  Uiso   1.00
H1134  H     0.33271   0.19139   0.57742   0.00000  Uiso   1.00
H1135  H     0.29328   0.12634   0.55917   0.00000  Uiso   1.00
H1136  H     0.35953   0.15900   0.39386   0.00000  Uiso   1.00
H1137  H     0.32235   0.09537   0.60024   0.00000  Uiso   1.00
H1138  H     0.35251   0.47102   0.40774   0.00000  Uiso   1.00
H1139  H     0.33740   0.01423   0.37246   0.00000  Uiso   1.00
H1140  H     0.38927   0.49250   0.36833   0.00000  Uiso   1.00
H1141  H     0.41615   0.02953   0.42760   0.00000  Uiso   1.00
H1142  H     0.37123   0.01953   0.46077   0.00000  Uiso   1.00
H1143  H     0.33743   0.07889   0.40068   0.00000  Uiso   1.00
H1144  H     0.39047   0.09100   0.39386   0.00000  Uiso   1.00
H1145  H     0.21047   0.35241   0.65705   0.00000  Uiso   1.00
H1146  H     0.19678   0.29650   0.65533   0.00000  Uiso   1.00
H1147  H     0.03953   0.39759   0.65705   0.00000  Uiso   1.00
H1148  H     0.23397   0.31681   0.61557   0.00000  Uiso   1.00
H1149  H     0.14042   0.33757   0.62232   0.00000  Uiso   1.00
H1150  H     0.16729   0.30861   0.57742   0.00000  Uiso   1.00
H1151  H     0.20672   0.37366   0.55916   0.00000  Uiso   1.00
H1152  H     0.17765   0.40463   0.60024   0.00000  Uiso   1.00
H1153  H     0.35251   0.02899   0.59224   0.00000  Uiso   1.00
H1154  H     0.33740   0.48578   0.62752   0.00000  Uiso   1.00
H1155  H     0.38926   0.00750   0.63167   0.00000  Uiso   1.00
H1156  H     0.41615   0.47047   0.57240   0.00000  Uiso   1.00
H1157  H     0.37124   0.48047   0.53923   0.00000  Uiso   1.00
H1158  H     0.05322   0.45349   0.65533   0.00000  Uiso   1.00
H1159  H     0.33743   0.42111   0.59932   0.00000  Uiso   1.00
H1160  H     0.39047   0.40900   0.60614   0.00000  Uiso   1.00
H1161  H     0.21047   0.14759   0.34295   0.00000  Uiso   1.00
H1162  H     0.19678   0.20349   0.34467   0.00000  Uiso   1.00
H1163  H     0.23396   0.18319   0.38442   0.00000  Uiso   1.00
H1164  H     0.14042   0.16243   0.37768   0.00000  Uiso   1.00
H1165  H     0.16729   0.19139   0.42258   0.00000  Uiso   1.00
H1166  H     0.20672   0.12634   0.44083   0.00000  Uiso   1.00
H1167  H     0.17765   0.09537   0.39976   0.00000  Uiso   1.00
H1168  H     0.14749   0.47102   0.59226   0.00000  Uiso   1.00
N1169  N     0.00000   0.25000   0.61907   0.00000  Uiso   1.00
N1170  N     0.26790   0.39107   0.60152   0.00000  Uiso   1.00
N1171  N     0.23210   0.39107   0.39848   0.00000  Uiso   1.00
N1172  N     0.23210   0.10893   0.60152   0.00000  Uiso   1.00
N1173  N    -0.00000   0.25000   0.38093   0.00000  Uiso   1.00
N1174  N     0.25000   0.00000   0.61907   0.00000  Uiso   1.00
N1175  N     0.25000   0.00000   0.38093   0.00000  Uiso   1.00
N1176  N     0.01790   0.35893   0.39848   0.00000  Uiso   1.00
N1177  N     0.01790   0.14107   0.60152   0.00000  Uiso   1.00
N1178  N     0.48210   0.14107   0.39848   0.00000  Uiso   1.00
N1179  N     0.48210   0.35893   0.60152   0.00000  Uiso   1.00
N1180  N     0.26790   0.10893   0.39848   0.00000  Uiso   1.00
O1181  O     0.04580   0.20419   0.53821   0.00000  Uiso   1.00
O1182  O     0.20419   0.04581   0.46179   0.00000  Uiso   1.00
O1183  O     0.20419   0.04581   0.53821   0.00000  Uiso   1.00
O1184  O     0.29580   0.45419   0.46179   0.00000  Uiso   1.00
O1185  O     0.20419   0.45419   0.46179   0.00000  Uiso   1.00
O1186  O     0.29580   0.04581   0.53821   0.00000  Uiso   1.00
O1187  O     0.29580   0.04581   0.46179   0.00000  Uiso   1.00
O1188  O     0.20419   0.45419   0.53821   0.00000  Uiso   1.00
O1189  O     0.45419   0.29581   0.46179   0.00000  Uiso   1.00
O1190  O     0.45419   0.29581   0.53821   0.00000  Uiso   1.00
O1191  O     0.04580   0.20419   0.46179   0.00000  Uiso   1.00
O1192  O     0.45419   0.20419   0.46179   0.00000  Uiso   1.00
O1193  O     0.04580   0.29581   0.53821   0.00000  Uiso   1.00
O1194  O     0.04580   0.29581   0.46179   0.00000  Uiso   1.00
O1195  O     0.45419   0.20419   0.53821   0.00000  Uiso   1.00
O1196  O     0.29580   0.45419   0.53821   0.00000  Uiso   1.00
Zn1197 Zn   -0.00000   0.25000   0.55104   0.00000  Uiso   1.00
Zn1198 Zn    0.00000   0.25000   0.44896   0.00000  Uiso   1.00
Zn1199 Zn    0.25000   0.00000   0.55104   0.00000  Uiso   1.00
Zn1200 Zn    0.25000   0.00000   0.44896   0.00000  Uiso   1.00
C1201  C     0.55992   0.18977   0.50005   0.00000  Uiso   1.00
C1202  C     0.50152   0.21237   0.64285   0.00000  Uiso   1.00
C1203  C     0.99848   0.21238   0.35715   0.00000  Uiso   1.00
C1204  C     0.99848   0.28762   0.64285   0.00000  Uiso   1.00
C1205  C     0.75152   0.03762   0.35715   0.00000  Uiso   1.00
C1206  C     0.75152   0.46238   0.64285   0.00000  Uiso   1.00
C1207  C     0.74848   0.46238   0.35715   0.00000  Uiso   1.00
C1208  C     0.74848   0.03762   0.64285   0.00000  Uiso   1.00
C1209  C     0.88529   0.14487   0.45989   0.00000  Uiso   1.00
C1210  C     0.60563   0.36422   0.53982   0.00000  Uiso   1.00
C1211  C     0.61471   0.35513   0.45989   0.00000  Uiso   1.00
C1212  C     0.94008   0.31023   0.50005   0.00000  Uiso   1.00
C1213  C     0.89438   0.13578   0.53982   0.00000  Uiso   1.00
C1214  C     0.61471   0.14487   0.54011   0.00000  Uiso   1.00
C1215  C     0.89437   0.36422   0.46018   0.00000  Uiso   1.00
C1216  C     0.88529   0.35513   0.54011   0.00000  Uiso   1.00
C1217  C     0.60562   0.13578   0.46018   0.00000  Uiso   1.00
C1218  C     0.63529   0.39487   0.45989   0.00000  Uiso   1.00
C1219  C     0.85563   0.11422   0.53982   0.00000  Uiso   1.00
C1220  C     0.86471   0.10513   0.45989   0.00000  Uiso   1.00
C1221  C     0.64438   0.38578   0.53982   0.00000  Uiso   1.00
C1222  C     0.86471   0.39487   0.54011   0.00000  Uiso   1.00
C1223  C     0.94008   0.18977   0.49995   0.00000  Uiso   1.00
C1224  C     0.64437   0.11422   0.46018   0.00000  Uiso   1.00
C1225  C     0.63529   0.10513   0.54011   0.00000  Uiso   1.00
C1226  C     0.85562   0.38578   0.46018   0.00000  Uiso   1.00
C1227  C     0.59371   0.34304   0.49981   0.00000  Uiso   1.00
C1228  C     0.90629   0.15696   0.49981   0.00000  Uiso   1.00
C1229  C     0.90629   0.34304   0.50019   0.00000  Uiso   1.00
C1230  C     0.59371   0.15696   0.50019   0.00000  Uiso   1.00
C1231  C     0.84371   0.09304   0.49981   0.00000  Uiso   1.00
C1232  C     0.65629   0.40696   0.49981   0.00000  Uiso   1.00
C1233  C     0.65629   0.09304   0.50019   0.00000  Uiso   1.00
C1234  C     0.55992   0.31023   0.49995   0.00000  Uiso   1.00
C1235  C     0.84371   0.40696   0.50019   0.00000  Uiso   1.00
C1236  C     0.50980   0.32714   0.38028   0.00000  Uiso   1.00
C1237  C     0.50980   0.17286   0.61972   0.00000  Uiso   1.00
C1238  C     0.99020   0.17286   0.38028   0.00000  Uiso   1.00
C1239  C     0.99020   0.32714   0.61972   0.00000  Uiso   1.00
C1240  C     0.75980   0.07714   0.38028   0.00000  Uiso   1.00
C1241  C     0.75980   0.42286   0.61972   0.00000  Uiso   1.00
C1242  C     0.74020   0.42286   0.38028   0.00000  Uiso   1.00
C1243  C     0.74020   0.07714   0.61972   0.00000  Uiso   1.00
C1244  C     0.88256   0.17243   0.41808   0.00000  Uiso   1.00
C1245  C     0.80992   0.43977   0.50005   0.00000  Uiso   1.00
C1246  C     0.86866   0.21887   0.42739   0.00000  Uiso   1.00
C1247  C     0.88604   0.24927   0.39178   0.00000  Uiso   1.00
C1248  C     0.57372   0.37270   0.57647   0.00000  Uiso   1.00
C1249  C     0.58056   0.41482   0.60218   0.00000  Uiso   1.00
C1250  C     0.54499   0.42521   0.63440   0.00000  Uiso   1.00
C1251  C     0.61744   0.32757   0.41808   0.00000  Uiso   1.00
C1252  C     0.63134   0.28113   0.42739   0.00000  Uiso   1.00
C1253  C     0.61396   0.25074   0.39177   0.00000  Uiso   1.00
C1254  C     0.92628   0.12730   0.57647   0.00000  Uiso   1.00
C1255  C     0.91944   0.08518   0.60217   0.00000  Uiso   1.00
C1256  C     0.69008   0.06023   0.50005   0.00000  Uiso   1.00
C1257  C     0.95502   0.07478   0.63439   0.00000  Uiso   1.00
C1258  C     0.61744   0.17243   0.58192   0.00000  Uiso   1.00
C1259  C     0.63134   0.21887   0.57261   0.00000  Uiso   1.00
C1260  C     0.61396   0.24927   0.60822   0.00000  Uiso   1.00
C1261  C     0.92628   0.37270   0.42353   0.00000  Uiso   1.00
C1262  C     0.91944   0.41482   0.39782   0.00000  Uiso   1.00
C1263  C     0.95501   0.42521   0.36560   0.00000  Uiso   1.00
C1264  C     0.88256   0.32757   0.58192   0.00000  Uiso   1.00
C1265  C     0.86866   0.28113   0.57261   0.00000  Uiso   1.00
C1266  C     0.88604   0.25074   0.60823   0.00000  Uiso   1.00
C1267  C     0.69008   0.43977   0.49995   0.00000  Uiso   1.00
C1268  C     0.57372   0.12730   0.42353   0.00000  Uiso   1.00
C1269  C     0.58056   0.08518   0.39783   0.00000  Uiso   1.00
C1270  C     0.54498   0.07478   0.36561   0.00000  Uiso   1.00
C1271  C     0.63256   0.42243   0.41808   0.00000  Uiso   1.00
C1272  C     0.61866   0.46887   0.42739   0.00000  Uiso   1.00
C1273  C     0.63604   0.49927   0.39178   0.00000  Uiso   1.00
C1274  C     0.82372   0.12270   0.57647   0.00000  Uiso   1.00
C1275  C     0.83056   0.16482   0.60218   0.00000  Uiso   1.00
C1276  C     0.79499   0.17521   0.63440   0.00000  Uiso   1.00
C1277  C     0.86744   0.07757   0.41808   0.00000  Uiso   1.00
C1278  C     0.80992   0.06023   0.49995   0.00000  Uiso   1.00
C1279  C     0.88134   0.03113   0.42739   0.00000  Uiso   1.00
C1280  C     0.86396   0.00074   0.39177   0.00000  Uiso   1.00
C1281  C     0.67628   0.37730   0.57647   0.00000  Uiso   1.00
C1282  C     0.66944   0.33518   0.60217   0.00000  Uiso   1.00
C1283  C     0.70502   0.32478   0.63439   0.00000  Uiso   1.00
C1284  C     0.86744   0.42243   0.58192   0.00000  Uiso   1.00
C1285  C     0.88134   0.46887   0.57261   0.00000  Uiso   1.00
C1286  C     0.86396   0.49927   0.60822   0.00000  Uiso   1.00
C1287  C     0.67628   0.12270   0.42353   0.00000  Uiso   1.00
C1288  C     0.66944   0.16482   0.39782   0.00000  Uiso   1.00
C1289  C     0.50152   0.28762   0.35715   0.00000  Uiso   1.00
C1290  C     0.70501   0.17521   0.36560   0.00000  Uiso   1.00
C1291  C     0.63256   0.07757   0.58192   0.00000  Uiso   1.00
C1292  C     0.61866   0.03113   0.57261   0.00000  Uiso   1.00
C1293  C     0.63604   0.00074   0.60823   0.00000  Uiso   1.00
C1294  C     0.82372   0.37730   0.42353   0.00000  Uiso   1.00
C1295  C     0.83056   0.33518   0.39783   0.00000  Uiso   1.00
C1296  C     0.79498   0.32478   0.36561   0.00000  Uiso   1.00
H1297  H     0.89749   0.27899   0.40776   0.00000  Uiso   1.00
H1298  H     0.51604   0.43318   0.61558   0.00000  Uiso   1.00
H1299  H     0.66260   0.01423   0.62754   0.00000  Uiso   1.00
H1300  H     0.61073   0.49250   0.63167   0.00000  Uiso   1.00
H1301  H     0.58385   0.02953   0.57240   0.00000  Uiso   1.00
H1302  H     0.62877   0.01953   0.53923   0.00000  Uiso   1.00
H1303  H     0.66257   0.07889   0.59932   0.00000  Uiso   1.00
H1304  H     0.60953   0.09100   0.60614   0.00000  Uiso   1.00
H1305  H     0.78953   0.35241   0.34295   0.00000  Uiso   1.00
H1306  H     0.80321   0.29650   0.34467   0.00000  Uiso   1.00
H1307  H     0.76603   0.31681   0.38443   0.00000  Uiso   1.00
H1308  H     0.85958   0.33757   0.37768   0.00000  Uiso   1.00
H1309  H     0.60958   0.41243   0.62232   0.00000  Uiso   1.00
H1310  H     0.83270   0.30861   0.42258   0.00000  Uiso   1.00
H1311  H     0.79328   0.37366   0.44084   0.00000  Uiso   1.00
H1312  H     0.82235   0.40463   0.39976   0.00000  Uiso   1.00
H1313  H     0.58271   0.44139   0.57742   0.00000  Uiso   1.00
H1314  H     0.54328   0.37634   0.55917   0.00000  Uiso   1.00
H1315  H     0.57235   0.34537   0.60024   0.00000  Uiso   1.00
H1316  H     0.60251   0.22102   0.40774   0.00000  Uiso   1.00
H1317  H     0.58740   0.26423   0.37246   0.00000  Uiso   1.00
H1318  H     0.63927   0.24250   0.36833   0.00000  Uiso   1.00
H1319  H     0.66615   0.27953   0.42760   0.00000  Uiso   1.00
H1320  H     0.62123   0.26953   0.46077   0.00000  Uiso   1.00
H1321  H     0.91260   0.23578   0.37248   0.00000  Uiso   1.00
H1322  H     0.58743   0.32889   0.40068   0.00000  Uiso   1.00
H1323  H     0.64047   0.34100   0.39386   0.00000  Uiso   1.00
H1324  H     0.96047   0.10241   0.65705   0.00000  Uiso   1.00
H1325  H     0.94678   0.04650   0.65533   0.00000  Uiso   1.00
H1326  H     0.98397   0.06681   0.61557   0.00000  Uiso   1.00
H1327  H     0.89042   0.08757   0.62232   0.00000  Uiso   1.00
H1328  H     0.91729   0.05861   0.57742   0.00000  Uiso   1.00
H1329  H     0.95672   0.12366   0.55916   0.00000  Uiso   1.00
H1330  H     0.92765   0.15463   0.60024   0.00000  Uiso   1.00
H1331  H     0.60251   0.27899   0.59225   0.00000  Uiso   1.00
H1332  H     0.86074   0.25750   0.36833   0.00000  Uiso   1.00
H1333  H     0.58740   0.23578   0.62752   0.00000  Uiso   1.00
H1334  H     0.63926   0.25750   0.63167   0.00000  Uiso   1.00
H1335  H     0.66615   0.22047   0.57240   0.00000  Uiso   1.00
H1336  H     0.62124   0.23047   0.53923   0.00000  Uiso   1.00
H1337  H     0.58743   0.17111   0.59932   0.00000  Uiso   1.00
H1338  H     0.64047   0.15900   0.60614   0.00000  Uiso   1.00
H1339  H     0.96047   0.39759   0.34295   0.00000  Uiso   1.00
H1340  H     0.94678   0.45349   0.34467   0.00000  Uiso   1.00
H1341  H     0.98396   0.43319   0.38442   0.00000  Uiso   1.00
H1342  H     0.89042   0.41243   0.37768   0.00000  Uiso   1.00
H1343  H     0.83385   0.22047   0.42760   0.00000  Uiso   1.00
H1344  H     0.91729   0.44139   0.42258   0.00000  Uiso   1.00
H1345  H     0.95672   0.37634   0.44083   0.00000  Uiso   1.00
H1346  H     0.92765   0.34537   0.39976   0.00000  Uiso   1.00
H1347  H     0.89749   0.22102   0.59226   0.00000  Uiso   1.00
H1348  H     0.91259   0.26423   0.62754   0.00000  Uiso   1.00
H1349  H     0.86073   0.24250   0.63167   0.00000  Uiso   1.00
H1350  H     0.83385   0.27953   0.57240   0.00000  Uiso   1.00
H1351  H     0.87877   0.26953   0.53923   0.00000  Uiso   1.00
H1352  H     0.91257   0.32889   0.59932   0.00000  Uiso   1.00
H1353  H     0.85953   0.34100   0.60614   0.00000  Uiso   1.00
H1354  H     0.87876   0.23047   0.46077   0.00000  Uiso   1.00
H1355  H     0.53953   0.10241   0.34295   0.00000  Uiso   1.00
H1356  H     0.55322   0.04650   0.34467   0.00000  Uiso   1.00
H1357  H     0.51603   0.06681   0.38443   0.00000  Uiso   1.00
H1358  H     0.60958   0.08757   0.37768   0.00000  Uiso   1.00
H1359  H     0.58271   0.05861   0.42258   0.00000  Uiso   1.00
H1360  H     0.54328   0.12366   0.44084   0.00000  Uiso   1.00
H1361  H     0.57235   0.15463   0.39976   0.00000  Uiso   1.00
H1362  H     0.64749   0.02899   0.40775   0.00000  Uiso   1.00
H1363  H     0.66260   0.48578   0.37248   0.00000  Uiso   1.00
H1364  H     0.61073   0.00750   0.36833   0.00000  Uiso   1.00
H1365  H     0.91257   0.17111   0.40068   0.00000  Uiso   1.00
H1366  H     0.58385   0.47047   0.42760   0.00000  Uiso   1.00
H1367  H     0.62876   0.48047   0.46077   0.00000  Uiso   1.00
H1368  H     0.66257   0.42111   0.40068   0.00000  Uiso   1.00
H1369  H     0.60953   0.40900   0.39386   0.00000  Uiso   1.00
H1370  H     0.78953   0.14759   0.65705   0.00000  Uiso   1.00
H1371  H     0.80322   0.20349   0.65533   0.00000  Uiso   1.00
H1372  H     0.76604   0.18319   0.61558   0.00000  Uiso   1.00
H1373  H     0.85958   0.16243   0.62232   0.00000  Uiso   1.00
H1374  H     0.83271   0.19139   0.57742   0.00000  Uiso   1.00
H1375  H     0.79328   0.12634   0.55917   0.00000  Uiso   1.00
H1376  H     0.85953   0.15900   0.39386   0.00000  Uiso   1.00
H1377  H     0.82235   0.09537   0.60024   0.00000  Uiso   1.00
H1378  H     0.85251   0.47102   0.40774   0.00000  Uiso   1.00
H1379  H     0.83740   0.01423   0.37246   0.00000  Uiso   1.00
H1380  H     0.88927   0.49250   0.36833   0.00000  Uiso   1.00
H1381  H     0.91615   0.02953   0.42760   0.00000  Uiso   1.00
H1382  H     0.87123   0.01953   0.46077   0.00000  Uiso   1.00
H1383  H     0.83743   0.07889   0.40068   0.00000  Uiso   1.00
H1384  H     0.89047   0.09100   0.39386   0.00000  Uiso   1.00
H1385  H     0.71047   0.35241   0.65705   0.00000  Uiso   1.00
H1386  H     0.69678   0.29650   0.65533   0.00000  Uiso   1.00
H1387  H     0.53953   0.39759   0.65705   0.00000  Uiso   1.00
H1388  H     0.73397   0.31681   0.61557   0.00000  Uiso   1.00
H1389  H     0.64042   0.33757   0.62232   0.00000  Uiso   1.00
H1390  H     0.66729   0.30861   0.57742   0.00000  Uiso   1.00
H1391  H     0.70672   0.37366   0.55916   0.00000  Uiso   1.00
H1392  H     0.67765   0.40463   0.60024   0.00000  Uiso   1.00
H1393  H     0.85251   0.02899   0.59224   0.00000  Uiso   1.00
H1394  H     0.83740   0.48578   0.62752   0.00000  Uiso   1.00
H1395  H     0.88926   0.00750   0.63167   0.00000  Uiso   1.00
H1396  H     0.91615   0.47047   0.57240   0.00000  Uiso   1.00
H1397  H     0.87124   0.48047   0.53923   0.00000  Uiso   1.00
H1398  H     0.55322   0.45349   0.65533   0.00000  Uiso   1.00
H1399  H     0.83743   0.42111   0.59932   0.00000  Uiso   1.00
H1400  H     0.89047   0.40900   0.60614   0.00000  Uiso   1.00
H1401  H     0.71047   0.14759   0.34295   0.00000  Uiso   1.00
H1402  H     0.69678   0.20349   0.34467   0.00000  Uiso   1.00
H1403  H     0.73396   0.18319   0.38442   0.00000  Uiso   1.00
H1404  H     0.64042   0.16243   0.37768   0.00000  Uiso   1.00
H1405  H     0.66729   0.19139   0.42258   0.00000  Uiso   1.00
H1406  H     0.70672   0.12634   0.44083   0.00000  Uiso   1.00
H1407  H     0.67765   0.09537   0.39976   0.00000  Uiso   1.00
H1408  H     0.64749   0.47102   0.59226   0.00000  Uiso   1.00
N1409  N     0.50000   0.25000   0.61907   0.00000  Uiso   1.00
N1410  N     0.76790   0.39107   0.60152   0.00000  Uiso   1.00
N1411  N     0.73210   0.39107   0.39848   0.00000  Uiso   1.00
N1412  N     0.73210   0.10893   0.60152   0.00000  Uiso   1.00
N1413  N     0.50000   0.25000   0.38093   0.00000  Uiso   1.00
N1414  N     0.75000   0.00000   0.61907   0.00000  Uiso   1.00
N1415  N     0.75000   0.00000   0.38093   0.00000  Uiso   1.00
N1416  N     0.51790   0.35893   0.39848   0.00000  Uiso   1.00
N1417  N     0.51790   0.14107   0.60152   0.00000  Uiso   1.00
N1418  N     0.98210   0.14107   0.39848   0.00000  Uiso   1.00
N1419  N     0.98210   0.35893   0.60152   0.00000  Uiso   1.00
N1420  N     0.76790   0.10893   0.39848   0.00000  Uiso   1.00
O1421  O     0.54580   0.20419   0.53821   0.00000  Uiso   1.00
O1422  O     0.70419   0.04581   0.46179   0.00000  Uiso   1.00
O1423  O     0.70419   0.04581   0.53821   0.00000  Uiso   1.00
O1424  O     0.79580   0.45419   0.46179   0.00000  Uiso   1.00
O1425  O     0.70419   0.45419   0.46179   0.00000  Uiso   1.00
O1426  O     0.79580   0.04581   0.53821   0.00000  Uiso   1.00
O1427  O     0.79580   0.04581   0.46179   0.00000  Uiso   1.00
O1428  O     0.70419   0.45419   0.53821   0.00000  Uiso   1.00
O1429  O     0.95419   0.29581   0.46179   0.00000  Uiso   1.00
O1430  O     0.95419   0.29581   0.53821   0.00000  Uiso   1.00
O1431  O     0.54580   0.20419   0.46179   0.00000  Uiso   1.00
O1432  O     0.95419   0.20419   0.46179   0.00000  Uiso   1.00
O1433  O     0.54580   0.29581   0.53821   0.00000  Uiso   1.00
O1434  O     0.54580   0.29581   0.46179   0.00000  Uiso   1.00
O1435  O     0.95419   0.20419   0.53821   0.00000  Uiso   1.00
O1436  O     0.79580   0.45419   0.53821   0.00000  Uiso   1.00
Zn1437 Zn    0.50000   0.25000   0.55104   0.00000  Uiso   1.00
Zn1438 Zn    0.50000   0.25000   0.44896   0.00000  Uiso   1.00
Zn1439 Zn    0.75000   0.00000   0.55104   0.00000  Uiso   1.00
Zn1440 Zn    0.75000   0.00000   0.44896   0.00000  Uiso   1.00
C1441  C     0.05992   0.68977   0.50005   0.00000  Uiso   1.00
C1442  C     0.00152   0.71237   0.64285   0.00000  Uiso   1.00
C1443  C     0.49848   0.71238   0.35715   0.00000  Uiso   1.00
C1444  C     0.49848   0.78762   0.64285   0.00000  Uiso   1.00
C1445  C     0.25152   0.53762   0.35715   0.00000  Uiso   1.00
C1446  C     0.25152   0.96238   0.64285   0.00000  Uiso   1.00
C1447  C     0.24848   0.96238   0.35715   0.00000  Uiso   1.00
C1448  C     0.24848   0.53762   0.64285   0.00000  Uiso   1.00
C1449  C     0.38529   0.64487   0.45989   0.00000  Uiso   1.00
C1450  C     0.10563   0.86422   0.53982   0.00000  Uiso   1.00
C1451  C     0.11471   0.85513   0.45989   0.00000  Uiso   1.00
C1452  C     0.44008   0.81023   0.50005   0.00000  Uiso   1.00
C1453  C     0.39438   0.63578   0.53982   0.00000  Uiso   1.00
C1454  C     0.11471   0.64487   0.54011   0.00000  Uiso   1.00
C1455  C     0.39437   0.86422   0.46018   0.00000  Uiso   1.00
C1456  C     0.38529   0.85513   0.54011   0.00000  Uiso   1.00
C1457  C     0.10562   0.63578   0.46018   0.00000  Uiso   1.00
C1458  C     0.13529   0.89487   0.45989   0.00000  Uiso   1.00
C1459  C     0.35563   0.61422   0.53982   0.00000  Uiso   1.00
C1460  C     0.36471   0.60513   0.45989   0.00000  Uiso   1.00
C1461  C     0.14438   0.88578   0.53982   0.00000  Uiso   1.00
C1462  C     0.36471   0.89487   0.54011   0.00000  Uiso   1.00
C1463  C     0.44008   0.68977   0.49995   0.00000  Uiso   1.00
C1464  C     0.14437   0.61422   0.46018   0.00000  Uiso   1.00
C1465  C     0.13529   0.60513   0.54011   0.00000  Uiso   1.00
C1466  C     0.35562   0.88578   0.46018   0.00000  Uiso   1.00
C1467  C     0.09371   0.84304   0.49981   0.00000  Uiso   1.00
C1468  C     0.40629   0.65696   0.49981   0.00000  Uiso   1.00
C1469  C     0.40629   0.84304   0.50019   0.00000  Uiso   1.00
C1470  C     0.09371   0.65696   0.50019   0.00000  Uiso   1.00
C1471  C     0.34371   0.59304   0.49981   0.00000  Uiso   1.00
C1472  C     0.15629   0.90696   0.49981   0.00000  Uiso   1.00
C1473  C     0.15629   0.59304   0.50019   0.00000  Uiso   1.00
C1474  C     0.05992   0.81023   0.49995   0.00000  Uiso   1.00
C1475  C     0.34371   0.90696   0.50019   0.00000  Uiso   1.00
C1476  C     0.00980   0.82714   0.38028   0.00000  Uiso   1.00
C1477  C     0.00980   0.67286   0.61972   0.00000  Uiso   1.00
C1478  C     0.49020   0.67286   0.38028   0.00000  Uiso   1.00
C1479  C     0.49020   0.82714   0.61972   0.00000  Uiso   1.00
C1480  C     0.25980   0.57714   0.38028   0.00000  Uiso   1.00
C1481  C     0.25980   0.92286   0.61972   0.00000  Uiso   1.00
C1482  C     0.24020   0.92286   0.38028   0.00000  Uiso   1.00
C1483  C     0.24020   0.57714   0.61972   0.00000  Uiso   1.00
C1484  C     0.38256   0.67243   0.41808   0.00000  Uiso   1.00
C1485  C     0.30992   0.93977   0.50005   0.00000  Uiso   1.00
C1486  C     0.36866   0.71887   0.42739   0.00000  Uiso   1.00
C1487  C     0.38604   0.74927   0.39178   0.00000  Uiso   1.00
C1488  C     0.07372   0.87270   0.57647   0.00000  Uiso   1.00
C1489  C     0.08056   0.91482   0.60218   0.00000  Uiso   1.00
C1490  C     0.04499   0.92521   0.63440   0.00000  Uiso   1.00
C1491  C     0.11744   0.82757   0.41808   0.00000  Uiso   1.00
C1492  C     0.13134   0.78113   0.42739   0.00000  Uiso   1.00
C1493  C     0.11396   0.75074   0.39177   0.00000  Uiso   1.00
C1494  C     0.42628   0.62730   0.57647   0.00000  Uiso   1.00
C1495  C     0.41944   0.58518   0.60217   0.00000  Uiso   1.00
C1496  C     0.19008   0.56023   0.50005   0.00000  Uiso   1.00
C1497  C     0.45502   0.57478   0.63439   0.00000  Uiso   1.00
C1498  C     0.11744   0.67243   0.58192   0.00000  Uiso   1.00
C1499  C     0.13134   0.71887   0.57261   0.00000  Uiso   1.00
C1500  C     0.11396   0.74927   0.60822   0.00000  Uiso   1.00
C1501  C     0.42628   0.87270   0.42353   0.00000  Uiso   1.00
C1502  C     0.41944   0.91482   0.39782   0.00000  Uiso   1.00
C1503  C     0.45501   0.92521   0.36560   0.00000  Uiso   1.00
C1504  C     0.38256   0.82757   0.58192   0.00000  Uiso   1.00
C1505  C     0.36866   0.78113   0.57261   0.00000  Uiso   1.00
C1506  C     0.38604   0.75074   0.60823   0.00000  Uiso   1.00
C1507  C     0.19008   0.93977   0.49995   0.00000  Uiso   1.00
C1508  C     0.07372   0.62730   0.42353   0.00000  Uiso   1.00
C1509  C     0.08056   0.58518   0.39783   0.00000  Uiso   1.00
C1510  C     0.04498   0.57478   0.36561   0.00000  Uiso   1.00
C1511  C     0.13256   0.92243   0.41808   0.00000  Uiso   1.00
C1512  C     0.11866   0.96887   0.42739   0.00000  Uiso   1.00
C1513  C     0.13604   0.99927   0.39178   0.00000  Uiso   1.00
C1514  C     0.32372   0.62270   0.57647   0.00000  Uiso   1.00
C1515  C     0.33056   0.66482   0.60218   0.00000  Uiso   1.00
C1516  C     0.29499   0.67521   0.63440   0.00000  Uiso   1.00
C1517  C     0.36744   0.57757   0.41808   0.00000  Uiso   1.00
C1518  C     0.30992   0.56023   0.49995   0.00000  Uiso   1.00
C1519  C     0.38134   0.53113   0.42739   0.00000  Uiso   1.00
C1520  C     0.36396   0.50074   0.39177   0.00000  Uiso   1.00
C1521  C     0.17628   0.87730   0.57647   0.00000  Uiso   1.00
C1522  C     0.16944   0.83518   0.60217   0.00000  Uiso   1.00
C1523  C     0.20502   0.82478   0.63439   0.00000  Uiso   1.00
C1524  C     0.36744   0.92243   0.58192   0.00000  Uiso   1.00
C1525  C     0.38134   0.96887   0.57261   0.00000  Uiso   1.00
C1526  C     0.36396   0.99927   0.60822   0.00000  Uiso   1.00
C1527  C     0.17628   0.62270   0.42353   0.00000  Uiso   1.00
C1528  C     0.16944   0.66482   0.39782   0.00000  Uiso   1.00
C1529  C     0.00152   0.78762   0.35715   0.00000  Uiso   1.00
C1530  C     0.20501   0.67521   0.36560   0.00000  Uiso   1.00
C1531  C     0.13256   0.57757   0.58192   0.00000  Uiso   1.00
C1532  C     0.11866   0.53113   0.57261   0.00000  Uiso   1.00
C1533  C     0.13604   0.50074   0.60823   0.00000  Uiso   1.00
C1534  C     0.32372   0.87730   0.42353   0.00000  Uiso   1.00
C1535  C     0.33056   0.83518   0.39783   0.00000  Uiso   1.00
C1536  C     0.29498   0.82478   0.36561   0.00000  Uiso   1.00
H1537  H     0.39749   0.77899   0.40776   0.00000  Uiso   1.00
H1538  H     0.01604   0.93318   0.61558   0.00000  Uiso   1.00
H1539  H     0.16260   0.51423   0.62754   0.00000  Uiso   1.00
H1540  H     0.11073   0.99250   0.63167   0.00000  Uiso   1.00
H1541  H     0.08385   0.52953   0.57240   0.00000  Uiso   1.00
H1542  H     0.12877   0.51953   0.53923   0.00000  Uiso   1.00
H1543  H     0.16257   0.57889   0.59932   0.00000  Uiso   1.00
H1544  H     0.10953   0.59100   0.60614   0.00000  Uiso   1.00
H1545  H     0.28953   0.85241   0.34295   0.00000  Uiso   1.00
H1546  H     0.30321   0.79650   0.34467   0.00000  Uiso   1.00
H1547  H     0.26603   0.81681   0.38443   0.00000  Uiso   1.00
H1548  H     0.35958   0.83757   0.37768   0.00000  Uiso   1.00
H1549  H     0.10958   0.91243   0.62232   0.00000  Uiso   1.00
H1550  H     0.33270   0.80861   0.42258   0.00000  Uiso   1.00
H1551  H     0.29328   0.87366   0.44084   0.00000  Uiso   1.00
H1552  H     0.32235   0.90463   0.39976   0.00000  Uiso   1.00
H1553  H     0.08271   0.94139   0.57742   0.00000  Uiso   1.00
H1554  H     0.04328   0.87634   0.55917   0.00000  Uiso   1.00
H1555  H     0.07235   0.84537   0.60024   0.00000  Uiso   1.00
H1556  H     0.10251   0.72102   0.40774   0.00000  Uiso   1.00
H1557  H     0.08740   0.76423   0.37246   0.00000  Uiso   1.00
H1558  H     0.13927   0.74250   0.36833   0.00000  Uiso   1.00
H1559  H     0.16615   0.77953   0.42760   0.00000  Uiso   1.00
H1560  H     0.12123   0.76953   0.46077   0.00000  Uiso   1.00
H1561  H     0.41260   0.73578   0.37248   0.00000  Uiso   1.00
H1562  H     0.08743   0.82889   0.40068   0.00000  Uiso   1.00
H1563  H     0.14047   0.84100   0.39386   0.00000  Uiso   1.00
H1564  H     0.46047   0.60241   0.65705   0.00000  Uiso   1.00
H1565  H     0.44678   0.54650   0.65533   0.00000  Uiso   1.00
H1566  H     0.48397   0.56681   0.61557   0.00000  Uiso   1.00
H1567  H     0.39042   0.58757   0.62232   0.00000  Uiso   1.00
H1568  H     0.41729   0.55861   0.57742   0.00000  Uiso   1.00
H1569  H     0.45672   0.62366   0.55916   0.00000  Uiso   1.00
H1570  H     0.42765   0.65463   0.60024   0.00000  Uiso   1.00
H1571  H     0.10251   0.77899   0.59225   0.00000  Uiso   1.00
H1572  H     0.36074   0.75750   0.36833   0.00000  Uiso   1.00
H1573  H     0.08740   0.73578   0.62752   0.00000  Uiso   1.00
H1574  H     0.13926   0.75750   0.63167   0.00000  Uiso   1.00
H1575  H     0.16615   0.72047   0.57240   0.00000  Uiso   1.00
H1576  H     0.12124   0.73047   0.53923   0.00000  Uiso   1.00
H1577  H     0.08743   0.67111   0.59932   0.00000  Uiso   1.00
H1578  H     0.14047   0.65900   0.60614   0.00000  Uiso   1.00
H1579  H     0.46047   0.89759   0.34295   0.00000  Uiso   1.00
H1580  H     0.44678   0.95349   0.34467   0.00000  Uiso   1.00
H1581  H     0.48396   0.93319   0.38442   0.00000  Uiso   1.00
H1582  H     0.39042   0.91243   0.37768   0.00000  Uiso   1.00
H1583  H     0.33385   0.72047   0.42760   0.00000  Uiso   1.00
H1584  H     0.41729   0.94139   0.42258   0.00000  Uiso   1.00
H1585  H     0.45672   0.87634   0.44083   0.00000  Uiso   1.00
H1586  H     0.42765   0.84537   0.39976   0.00000  Uiso   1.00
H1587  H     0.39749   0.72102   0.59226   0.00000  Uiso   1.00
H1588  H     0.41259   0.76423   0.62754   0.00000  Uiso   1.00
H1589  H     0.36073   0.74250   0.63167   0.00000  Uiso   1.00
H1590  H     0.33385   0.77953   0.57240   0.00000  Uiso   1.00
H1591  H     0.37877   0.76953   0.53923   0.00000  Uiso   1.00
H1592  H     0.41257   0.82889   0.59932   0.00000  Uiso   1.00
H1593  H     0.35953   0.84100   0.60614   0.00000  Uiso   1.00
H1594  H     0.37876   0.73047   0.46077   0.00000  Uiso   1.00
H1595  H     0.03953   0.60241   0.34295   0.00000  Uiso   1.00
H1596  H     0.05322   0.54650   0.34467   0.00000  Uiso   1.00
H1597  H     0.01603   0.56681   0.38443   0.00000  Uiso   1.00
H1598  H     0.10958   0.58757   0.37768   0.00000  Uiso   1.00
H1599  H     0.08271   0.55861   0.42258   0.00000  Uiso   1.00
H1600  H     0.04328   0.62366   0.44084   0.00000  Uiso   1.00
H1601  H     0.07235   0.65463   0.39976   0.00000  Uiso   1.00
H1602  H     0.14749   0.52899   0.40775   0.00000  Uiso   1.00
H1603  H     0.16260   0.98578   0.37248   0.00000  Uiso   1.00
H1604  H     0.11073   0.50750   0.36833   0.00000  Uiso   1.00
H1605  H     0.41257   0.67111   0.40068   0.00000  Uiso   1.00
H1606  H     0.08385   0.97047   0.42760   0.00000  Uiso   1.00
H1607  H     0.12876   0.98047   0.46077   0.00000  Uiso   1.00
H1608  H     0.16257   0.92111   0.40068   0.00000  Uiso   1.00
H1609  H     0.10953   0.90900   0.39386   0.00000  Uiso   1.00
H1610  H     0.28953   0.64759   0.65705   0.00000  Uiso   1.00
H1611  H     0.30322   0.70349   0.65533   0.00000  Uiso   1.00
H1612  H     0.26604   0.68319   0.61558   0.00000  Uiso   1.00
H1613  H     0.35958   0.66243   0.62232   0.00000  Uiso   1.00
H1614  H     0.33271   0.69139   0.57742   0.00000  Uiso   1.00
H1615  H     0.29328   0.62634   0.55917   0.00000  Uiso   1.00
H1616  H     0.35953   0.65900   0.39386   0.00000  Uiso   1.00
H1617  H     0.32235   0.59537   0.60024   0.00000  Uiso   1.00
H1618  H     0.35251   0.97102   0.40774   0.00000  Uiso   1.00
H1619  H     0.33740   0.51423   0.37246   0.00000  Uiso   1.00
H1620  H     0.38927   0.99250   0.36833   0.00000  Uiso   1.00
H1621  H     0.41615   0.52953   0.42760   0.00000  Uiso   1.00
H1622  H     0.37123   0.51953   0.46077   0.00000  Uiso   1.00
H1623  H     0.33743   0.57889   0.40068   0.00000  Uiso   1.00
H1624  H     0.39047   0.59100   0.39386   0.00000  Uiso   1.00
H1625  H     0.21047   0.85241   0.65705   0.00000  Uiso   1.00
H1626  H     0.19678   0.79650   0.65533   0.00000  Uiso   1.00
H1627  H     0.03953   0.89759   0.65705   0.00000  Uiso   1.00
H1628  H     0.23397   0.81681   0.61557   0.00000  Uiso   1.00
H1629  H     0.14042   0.83757   0.62232   0.00000  Uiso   1.00
H1630  H     0.16729   0.80861   0.57742   0.00000  Uiso   1.00
H1631  H     0.20672   0.87366   0.55916   0.00000  Uiso   1.00
H1632  H     0.17765   0.90463   0.60024   0.00000  Uiso   1.00
H1633  H     0.35251   0.52899   0.59224   0.00000  Uiso   1.00
H1634  H     0.33740   0.98578   0.62752   0.00000  Uiso   1.00
H1635  H     0.38926   0.50750   0.63167   0.00000  Uiso   1.00
H1636  H     0.41615   0.97047   0.57240   0.00000  Uiso   1.00
H1637  H     0.37124   0.98047   0.53923   0.00000  Uiso   1.00
H1638  H     0.05322   0.95349   0.65533   0.00000  Uiso   1.00
H1639  H     0.33743   0.92111   0.59932   0.00000  Uiso   1.00
H1640  H     0.39047   0.90900   0.60614   0.00000  Uiso   1.00
H1641  H     0.21047   0.64759   0.34295   0.00000  Uiso   1.00
H1642  H     0.19678   0.70349   0.34467   0.00000  Uiso   1.00
H1643  H     0.23396   0.68319   0.38442   0.00000  Uiso   1.00
H1644  H     0.14042   0.66243   0.37768   0.00000  Uiso   1.00
H1645  H     0.16729   0.69139   0.42258   0.00000  Uiso   1.00
H1646  H     0.20672   0.62634   0.44083   0.00000  Uiso   1.00
H1647  H     0.17765   0.59537   0.39976   0.00000  Uiso   1.00
H1648  H     0.14749   0.97102   0.59226   0.00000  Uiso   1.00
N1649  N     0.00000   0.75000   0.61907   0.00000  Uiso   1.00
N1650  N     0.26790   0.89107   0.60152   0.00000  Uiso   1.00
N1651  N     0.23210   0.89107   0.39848   0.00000  Uiso   1.00
N1652  N     0.23210   0.60893   0.60152   0.00000  Uiso   1.00
N1653  N    -0.00000   0.75000   0.38093   0.00000  Uiso   1.00
N1654  N     0.25000   0.50000   0.61907   0.00000  Uiso   1.00
N1655  N     0.25000   0.50000   0.38093   0.00000  Uiso   1.00
N1656  N     0.01790   0.85893   0.39848   0.00000  Uiso   1.00
N1657  N     0.01790   0.64107   0.60152   0.00000  Uiso   1.00
N1658  N     0.48210   0.64107   0.39848   0.00000  Uiso   1.00
N1659  N     0.48210   0.85893   0.60152   0.00000  Uiso   1.00
N1660  N     0.26790   0.60893   0.39848   0.00000  Uiso   1.00
O1661  O     0.04580   0.70419   0.53821   0.00000  Uiso   1.00
O1662  O     0.20419   0.54581   0.46179   0.00000  Uiso   1.00
O1663  O     0.20419   0.54581   0.53821   0.00000  Uiso   1.00
O1664  O     0.29580   0.95419   0.46179   0.00000  Uiso   1.00
O1665  O     0.20419   0.95419   0.46179   0.00000  Uiso   1.00
O1666  O     0.29580   0.54581   0.53821   0.00000  Uiso   1.00
O1667  O     0.29580   0.54581   0.46179   0.00000  Uiso   1.00
O1668  O     0.20419   0.95419   0.53821   0.00000  Uiso   1.00
O1669  O     0.45419   0.79581   0.46179   0.00000  Uiso   1.00
O1670  O     0.45419   0.79581   0.53821   0.00000  Uiso   1.00
O1671  O     0.04580   0.70419   0.46179   0.00000  Uiso   1.00
O1672  O     0.45419   0.70419   0.46179   0.00000  Uiso   1.00
O1673  O     0.04580   0.79581   0.53821   0.00000  Uiso   1.00
O1674  O     0.04580   0.79581   0.46179   0.00000  Uiso   1.00
O1675  O     0.45419   0.70419   0.53821   0.00000  Uiso   1.00
O1676  O     0.29580   0.95419   0.53821   0.00000  Uiso   1.00
Zn1677 Zn   -0.00000   0.75000   0.55104   0.00000  Uiso   1.00
Zn1678 Zn    0.00000   0.75000   0.44896   0.00000  Uiso   1.00
Zn1679 Zn    0.25000   0.50000   0.55104   0.00000  Uiso   1.00
Zn1680 Zn    0.25000   0.50000   0.44896   0.00000  Uiso   1.00
C1681  C     0.55992   0.68977   0.50005   0.00000  Uiso   1.00
C1682  C     0.50152   0.71237   0.64285   0.00000  Uiso   1.00
C1683  C     0.99848   0.71238   0.35715   0.00000  Uiso   1.00
C1684  C     0.99848   0.78762   0.64285   0.00000  Uiso   1.00
C1685  C     0.75152   0.53762   0.35715   0.00000  Uiso   1.00
C1686  C     0.75152   0.96238   0.64285   0.00000  Uiso   1.00
C1687  C     0.74848   0.96238   0.35715   0.00000  Uiso   1.00
C1688  C     0.74848   0.53762   0.64285   0.00000  Uiso   1.00
C1689  C     0.88529   0.64487   0.45989   0.00000  Uiso   1.00
C1690  C     0.60563   0.86422   0.53982   0.00000  Uiso   1.00
C1691  C     0.61471   0.85513   0.45989   0.00000  Uiso   1.00
C1692  C     0.94008   0.81023   0.50005   0.00000  Uiso   1.00
C1693  C     0.89438   0.63578   0.53982   0.00000  Uiso   1.00
C1694  C     0.61471   0.64487   0.54011   0.00000  Uiso   1.00
C1695  C     0.89437   0.86422   0.46018   0.00000  Uiso   1.00
C1696  C     0.88529   0.85513   0.54011   0.00000  Uiso   1.00
C1697  C     0.60562   0.63578   0.46018   0.00000  Uiso   1.00
C1698  C     0.63529   0.89487   0.45989   0.00000  Uiso   1.00
C1699  C     0.85563   0.61422   0.53982   0.00000  Uiso   1.00
C1700  C     0.86471   0.60513   0.45989   0.00000  Uiso   1.00
C1701  C     0.64438   0.88578   0.53982   0.00000  Uiso   1.00
C1702  C     0.86471   0.89487   0.54011   0.00000  Uiso   1.00
C1703  C     0.94008   0.68977   0.49995   0.00000  Uiso   1.00
C1704  C     0.64437   0.61422   0.46018   0.00000  Uiso   1.00
C1705  C     0.63529   0.60513   0.54011   0.00000  Uiso   1.00
C1706  C     0.85562   0.88578   0.46018   0.00000  Uiso   1.00
C1707  C     0.59371   0.84304   0.49981   0.00000  Uiso   1.00
C1708  C     0.90629   0.65696   0.49981   0.00000  Uiso   1.00
C1709  C     0.90629   0.84304   0.50019   0.00000  Uiso   1.00
C1710  C     0.59371   0.65696   0.50019   0.00000  Uiso   1.00
C1711  C     0.84371   0.59304   0.49981   0.00000  Uiso   1.00
C1712  C     0.65629   0.90696   0.49981   0.00000  Uiso   1.00
C1713  C     0.65629   0.59304   0.50019   0.00000  Uiso   1.00
C1714  C     0.55992   0.81023   0.49995   0.00000  Uiso   1.00
C1715  C     0.84371   0.90696   0.50019   0.00000  Uiso   1.00
C1716  C     0.50980   0.82714   0.38028   0.00000  Uiso   1.00
C1717  C     0.50980   0.67286   0.61972   0.00000  Uiso   1.00
C1718  C     0.99020   0.67286   0.38028   0.00000  Uiso   1.00
C1719  C     0.99020   0.82714   0.61972   0.00000  Uiso   1.00
C1720  C     0.75980   0.57714   0.38028   0.00000  Uiso   1.00
C1721  C     0.75980   0.92286   0.61972   0.00000  Uiso   1.00
C1722  C     0.74020   0.92286   0.38028   0.00000  Uiso   1.00
C1723  C     0.74020   0.57714   0.61972   0.00000  Uiso   1.00
C1724  C     0.88256   0.67243   0.41808   0.00000  Uiso   1.00
C1725  C     0.80992   0.93977   0.50005   0.00000  Uiso   1.00
C1726  C     0.86866   0.71887   0.42739   0.00000  Uiso   1.00
C1727  C     0.88604   0.74927   0.39178   0.00000  Uiso   1.00
C1728  C     0.57372   0.87270   0.57647   0.00000  Uiso   1.00
C1729  C     0.58056   0.91482   0.60218   0.00000  Uiso   1.00
C1730  C     0.54499   0.92521   0.63440   0.00000  Uiso   1.00
C1731  C     0.61744   0.82757   0.41808   0.00000  Uiso   1.00
C1732  C     0.63134   0.78113   0.42739   0.00000  Uiso   1.00
C1733  C     0.61396   0.75074   0.39177   0.00000  Uiso   1.00
C1734  C     0.92628   0.62730   0.57647   0.00000  Uiso   1.00
C1735  C     0.91944   0.58518   0.60217   0.00000  Uiso   1.00
C1736  C     0.69008   0.56023   0.50005   0.00000  Uiso   1.00
C1737  C     0.95502   0.57478   0.63439   0.00000  Uiso   1.00
C1738  C     0.61744   0.67243   0.58192   0.00000  Uiso   1.00
C1739  C     0.63134   0.71887   0.57261   0.00000  Uiso   1.00
C1740  C     0.61396   0.74927   0.60822   0.00000  Uiso   1.00
C1741  C     0.92628   0.87270   0.42353   0.00000  Uiso   1.00
C1742  C     0.91944   0.91482   0.39782   0.00000  Uiso   1.00
C1743  C     0.95501   0.92521   0.36560   0.00000  Uiso   1.00
C1744  C     0.88256   0.82757   0.58192   0.00000  Uiso   1.00
C1745  C     0.86866   0.78113   0.57261   0.00000  Uiso   1.00
C1746  C     0.88604   0.75074   0.60823   0.00000  Uiso   1.00
C1747  C     0.69008   0.93977   0.49995   0.00000  Uiso   1.00
C1748  C     0.57372   0.62730   0.42353   0.00000  Uiso   1.00
C1749  C     0.58056   0.58518   0.39783   0.00000  Uiso   1.00
C1750  C     0.54498   0.57478   0.36561   0.00000  Uiso   1.00
C1751  C     0.63256   0.92243   0.41808   0.00000  Uiso   1.00
C1752  C     0.61866   0.96887   0.42739   0.00000  Uiso   1.00
C1753  C     0.63604   0.99927   0.39178   0.00000  Uiso   1.00
C1754  C     0.82372   0.62270   0.57647   0.00000  Uiso   1.00
C1755  C     0.83056   0.66482   0.60218   0.00000  Uiso   1.00
C1756  C     0.79499   0.67521   0.63440   0.00000  Uiso   1.00
C1757  C     0.86744   0.57757   0.41808   0.00000  Uiso   1.00
C1758  C     0.80992   0.56023   0.49995   0.00000  Uiso   1.00
C1759  C     0.88134   0.53113   0.42739   0.00000  Uiso   1.00
C1760  C     0.86396   0.50074   0.39177   0.00000  Uiso   1.00
C1761  C     0.67628   0.87730   0.57647   0.00000  Uiso   1.00
C1762  C     0.66944   0.83518   0.60217   0.00000  Uiso   1.00
C1763  C     0.70502   0.82478   0.63439   0.00000  Uiso   1.00
C1764  C     0.86744   0.92243   0.58192   0.00000  Uiso   1.00
C1765  C     0.88134   0.96887   0.57261   0.00000  Uiso   1.00
C1766  C     0.86396   0.99927   0.60822   0.00000  Uiso   1.00
C1767  C     0.67628   0.62270   0.42353   0.00000  Uiso   1.00
C1768  C     0.66944   0.66482   0.39782   0.00000  Uiso   1.00
C1769  C     0.50152   0.78762   0.35715   0.00000  Uiso   1.00
C1770  C     0.70501   0.67521   0.36560   0.00000  Uiso   1.00
C1771  C     0.63256   0.57757   0.58192   0.00000  Uiso   1.00
C1772  C     0.61866   0.53113   0.57261   0.00000  Uiso   1.00
C1773  C     0.63604   0.50074   0.60823   0.00000  Uiso   1.00
C1774  C     0.82372   0.87730   0.42353   0.00000  Uiso   1.00
C1775  C     0.83056   0.83518   0.39783   0.00000  Uiso   1.00
C1776  C     0.79498   0.82478   0.36561   0.00000  Uiso   1.00
H1777  H     0.89749   0.77899   0.40776   0.00000  Uiso   1.00
H1778  H     0.51604   0.93318   0.61558   0.00000  Uiso   1.00
H1779  H     0.66260   0.51423   0.62754   0.00000  Uiso   1.00
H1780  H     0.61073   0.99250   0.63167   0.00000  Uiso   1.00
H1781  H     0.58385   0.52953   0.57240   0.00000  Uiso   1.00
H1782  H     0.62877   0.51953   0.53923   0.00000  Uiso   1.00
H1783  H     0.66257   0.57889   0.59932   0.00000  Uiso   1.00
H1784  H     0.60953   0.59100   0.60614   0.00000  Uiso   1.00
H1785  H     0.78953   0.85241   0.34295   0.00000  Uiso   1.00
H1786  H     0.80321   0.79650   0.34467   0.00000  Uiso   1.00
H1787  H     0.76603   0.81681   0.38443   0.00000  Uiso   1.00
H1788  H     0.85958   0.83757   0.37768   0.00000  Uiso   1.00
H1789  H     0.60958   0.91243   0.62232   0.00000  Uiso   1.00
H1790  H     0.83270   0.80861   0.42258   0.00000  Uiso   1.00
H1791  H     0.79328   0.87366   0.44084   0.00000  Uiso   1.00
H1792  H     0.82235   0.90463   0.39976   0.00000  Uiso   1.00
H1793  H     0.58271   0.94139   0.57742   0.00000  Uiso   1.00
H1794  H     0.54328   0.87634   0.55917   0.00000  Uiso   1.00
H1795  H     0.57235   0.84537   0.60024   0.00000  Uiso   1.00
H1796  H     0.60251   0.72102   0.40774   0.00000  Uiso   1.00
H1797  H     0.58740   0.76423   0.37246   0.00000  Uiso   1.00
H1798  H     0.63927   0.74250   0.36833   0.00000  Uiso   1.00
H1799  H     0.66615   0.77953   0.42760   0.00000  Uiso   1.00
H1800  H     0.62123   0.76953   0.46077   0.00000  Uiso   1.00
H1801  H     0.91260   0.73578   0.37248   0.00000  Uiso   1.00
H1802  H     0.58743   0.82889   0.40068   0.00000  Uiso   1.00
H1803  H     0.64047   0.84100   0.39386   0.00000  Uiso   1.00
H1804  H     0.96047   0.60241   0.65705   0.00000  Uiso   1.00
H1805  H     0.94678   0.54650   0.65533   0.00000  Uiso   1.00
H1806  H     0.98397   0.56681   0.61557   0.00000  Uiso   1.00
H1807  H     0.89042   0.58757   0.62232   0.00000  Uiso   1.00
H1808  H     0.91729   0.55861   0.57742   0.00000  Uiso   1.00
H1809  H     0.95672   0.62366   0.55916   0.00000  Uiso   1.00
H1810  H     0.92765   0.65463   0.60024   0.00000  Uiso   1.00
H1811  H     0.60251   0.77899   0.59225   0.00000  Uiso   1.00
H1812  H     0.86074   0.75750   0.36833   0.00000  Uiso   1.00
H1813  H     0.58740   0.73578   0.62752   0.00000  Uiso   1.00
H1814  H     0.63926   0.75750   0.63167   0.00000  Uiso   1.00
H1815  H     0.66615   0.72047   0.57240   0.00000  Uiso   1.00
H1816  H     0.62124   0.73047   0.53923   0.00000  Uiso   1.00
H1817  H     0.58743   0.67111   0.59932   0.00000  Uiso   1.00
H1818  H     0.64047   0.65900   0.60614   0.00000  Uiso   1.00
H1819  H     0.96047   0.89759   0.34295   0.00000  Uiso   1.00
H1820  H     0.94678   0.95349   0.34467   0.00000  Uiso   1.00
H1821  H     0.98396   0.93319   0.38442   0.00000  Uiso   1.00
H1822  H     0.89042   0.91243   0.37768   0.00000  Uiso   1.00
H1823  H     0.83385   0.72047   0.42760   0.00000  Uiso   1.00
H1824  H     0.91729   0.94139   0.42258   0.00000  Uiso   1.00
H1825  H     0.95672   0.87634   0.44083   0.00000  Uiso   1.00
H1826  H     0.92765   0.84537   0.39976   0.00000  Uiso   1.00
H1827  H     0.89749   0.72102   0.59226   0.00000  Uiso   1.00
H1828  H     0.91259   0.76423   0.62754   0.00000  Uiso   1.00
H1829  H     0.86073   0.74250   0.63167   0.00000  Uiso   1.00
H1830  H     0.83385   0.77953   0.57240   0.00000  Uiso   1.00
H1831  H     0.87877   0.76953   0.53923   0.00000  Uiso   1.00
H1832  H     0.91257   0.82889   0.59932   0.00000  Uiso   1.00
H1833  H     0.85953   0.84100   0.60614   0.00000  Uiso   1.00
H1834  H     0.87876   0.73047   0.46077   0.00000  Uiso   1.00
H1835  H     0.53953   0.60241   0.34295   0.00000  Uiso   1.00
H1836  H     0.55322   0.54650   0.34467   0.00000  Uiso   1.00
H1837  H     0.51603   0.56681   0.38443   0.00000  Uiso   1.00
H1838  H     0.60958   0.58757   0.37768   0.00000  Uiso   1.00
H1839  H     0.58271   0.55861   0.42258   0.00000  Uiso   1.00
H1840  H     0.54328   0.62366   0.44084   0.00000  Uiso   1.00
H1841  H     0.57235   0.65463   0.39976   0.00000  Uiso   1.00
H1842  H     0.64749   0.52899   0.40775   0.00000  Uiso   1.00
H1843  H     0.66260   0.98578   0.37248   0.00000  Uiso   1.00
H1844  H     0.61073   0.50750   0.36833   0.00000  Uiso   1.00
H1845  H     0.91257   0.67111   0.40068   0.00000  Uiso   1.00
H1846  H     0.58385   0.97047   0.42760   0.00000  Uiso   1.00
H1847  H     0.62876   0.98047   0.46077   0.00000  Uiso   1.00
H1848  H     0.66257   0.92111   0.40068   0.00000  Uiso   1.00
H1849  H     0.60953   0.90900   0.39386   0.00000  Uiso   1.00
H1850  H     0.78953   0.64759   0.65705   0.00000  Uiso   1.00
H1851  H     0.80322   0.70349   0.65533   0.00000  Uiso   1.00
H1852  H     0.76604   0.68319   0.61558   0.00000  Uiso   1.00
H1853  H     0.85958   0.66243   0.62232   0.00000  Uiso   1.00
H1854  H     0.83271   0.69139   0.57742   0.00000  Uiso   1.00
H1855  H     0.79328   0.62634   0.55917   0.00000  Uiso   1.00
H1856  H     0.85953   0.65900   0.39386   0.00000  Uiso   1.00
H1857  H     0.82235   0.59537   0.60024   0.00000  Uiso   1.00
H1858  H     0.85251   0.97102   0.40774   0.00000  Uiso   1.00
H1859  H     0.83740   0.51423   0.37246   0.00000  Uiso   1.00
H1860  H     0.88927   0.99250   0.36833   0.00000  Uiso   1.00
H1861  H     0.91615   0.52953   0.42760   0.00000  Uiso   1.00
H1862  H     0.87123   0.51953   0.46077   0.00000  Uiso   1.00
H1863  H     0.83743   0.57889   0.40068   0.00000  Uiso   1.00
H1864  H     0.89047   0.59100   0.39386   0.00000  Uiso   1.00
H1865  H     0.71047   0.85241   0.65705   0.00000  Uiso   1.00
H1866  H     0.69678   0.79650   0.65533   0.00000  Uiso   1.00
H1867  H     0.53953   0.89759   0.65705   0.00000  Uiso   1.00
H1868  H     0.73397   0.81681   0.61557   0.00000  Uiso   1.00
H1869  H     0.64042   0.83757   0.62232   0.00000  Uiso   1.00
H1870  H     0.66729   0.80861   0.57742   0.00000  Uiso   1.00
H1871  H     0.70672   0.87366   0.55916   0.00000  Uiso   1.00
H1872  H     0.67765   0.90463   0.60024   0.00000  Uiso   1.00
H1873  H     0.85251   0.52899   0.59224   0.00000  Uiso   1.00
H1874  H     0.83740   0.98578   0.62752   0.00000  Uiso   1.00
H1875  H     0.88926   0.50750   0.63167   0.00000  Uiso   1.00
H1876  H     0.91615   0.97047   0.57240   0.00000  Uiso   1.00
H1877  H     0.87124   0.98047   0.53923   0.00000  Uiso   1.00
H1878  H     0.55322   0.95349   0.65533   0.00000  Uiso   1.00
H1879  H     0.83743   0.92111   0.59932   0.00000  Uiso   1.00
H1880  H     0.89047   0.90900   0.60614   0.00000  Uiso   1.00
H1881  H     0.71047   0.64759   0.34295   0.00000  Uiso   1.00
H1882  H     0.69678   0.70349   0.34467   0.00000  Uiso   1.00
H1883  H     0.73396   0.68319   0.38442   0.00000  Uiso   1.00
H1884  H     0.64042   0.66243   0.37768   0.00000  Uiso   1.00
H1885  H     0.66729   0.69139   0.42258   0.00000  Uiso   1.00
H1886  H     0.70672   0.62634   0.44083   0.00000  Uiso   1.00
H1887  H     0.67765   0.59537   0.39976   0.00000  Uiso   1.00
H1888  H     0.64749   0.97102   0.59226   0.00000  Uiso   1.00
N1889  N     0.50000   0.75000   0.61907   0.00000  Uiso   1.00
N1890  N     0.76790   0.89107   0.60152   0.00000  Uiso   1.00
N1891  N     0.73210   0.89107   0.39848   0.00000  Uiso   1.00
N1892  N     0.73210   0.60893   0.60152   0.00000  Uiso   1.00
N1893  N     0.50000   0.75000   0.38093   0.00000  Uiso   1.00
N1894  N     0.75000   0.50000   0.61907   0.00000  Uiso   1.00
N1895  N     0.75000   0.50000   0.38093   0.00000  Uiso   1.00
N1896  N     0.51790   0.85893   0.39848   0.00000  Uiso   1.00
N1897  N     0.51790   0.64107   0.60152   0.00000  Uiso   1.00
N1898  N     0.98210   0.64107   0.39848   0.00000  Uiso   1.00
N1899  N     0.98210   0.85893   0.60152   0.00000  Uiso   1.00
N1900  N     0.76790   0.60893   0.39848   0.00000  Uiso   1.00
O1901  O     0.54580   0.70419   0.53821   0.00000  Uiso   1.00
O1902  O     0.70419   0.54581   0.46179   0.00000  Uiso   1.00
O1903  O     0.70419   0.54581   0.53821   0.00000  Uiso   1.00
O1904  O     0.79580   0.95419   0.46179   0.00000  Uiso   1.00
O1905  O     0.70419   0.95419   0.46179   0.00000  Uiso   1.00
O1906  O     0.79580   0.54581   0.53821   0.00000  Uiso   1.00
O1907  O     0.79580   0.54581   0.46179   0.00000  Uiso   1.00
O1908  O     0.70419   0.95419   0.53821   0.00000  Uiso   1.00
O1909  O     0.95419   0.79581   0.46179   0.00000  Uiso   1.00
O1910  O     0.95419   0.79581   0.53821   0.00000  Uiso   1.00
O1911  O     0.54580   0.70419   0.46179   0.00000  Uiso   1.00
O1912  O     0.95419   0.70419   0.46179   0.00000  Uiso   1.00
O1913  O     0.54580   0.79581   0.53821   0.00000  Uiso   1.00
O1914  O     0.54580   0.79581   0.46179   0.00000  Uiso   1.00
O1915  O     0.95419   0.70419   0.53821   0.00000  Uiso   1.00
O1916  O     0.79580   0.95419   0.53821   0.00000  Uiso   1.00
Zn1917 Zn    0.50000   0.75000   0.55104   0.00000  Uiso   1.00
Zn1918 Zn    0.50000   0.75000   0.44896   0.00000  Uiso   1.00
Zn1919 Zn    0.75000   0.50000   0.55104   0.00000  Uiso   1.00
Zn1920 Zn    0.75000   0.50000   0.44896   0.00000  Uiso   1.00
C1921  C     0.05992   0.18977   0.83339   0.00000  Uiso   1.00
C1922  C     0.00152   0.21237   0.97618   0.00000  Uiso   1.00
C1923  C     0.49848   0.21238   0.69048   0.00000  Uiso   1.00
C1924  C     0.49848   0.28762   0.97618   0.00000  Uiso   1.00
C1925  C     0.25152   0.03762   0.69048   0.00000  Uiso   1.00
C1926  C     0.25152   0.46238   0.97618   0.00000  Uiso   1.00
C1927  C     0.24848   0.46238   0.69049   0.00000  Uiso   1.00
C1928  C     0.24848   0.03762   0.97618   0.00000  Uiso   1.00
C1929  C     0.38529   0.14487   0.79323   0.00000  Uiso   1.00
C1930  C     0.10563   0.36422   0.87315   0.00000  Uiso   1.00
C1931  C     0.11471   0.35513   0.79323   0.00000  Uiso   1.00
C1932  C     0.44008   0.31023   0.83339   0.00000  Uiso   1.00
C1933  C     0.39438   0.13578   0.87315   0.00000  Uiso   1.00
C1934  C     0.11471   0.14487   0.87344   0.00000  Uiso   1.00
C1935  C     0.39437   0.36422   0.79352   0.00000  Uiso   1.00
C1936  C     0.38529   0.35513   0.87344   0.00000  Uiso   1.00
C1937  C     0.10562   0.13578   0.79352   0.00000  Uiso   1.00
C1938  C     0.13529   0.39487   0.79323   0.00000  Uiso   1.00
C1939  C     0.35563   0.11422   0.87315   0.00000  Uiso   1.00
C1940  C     0.36471   0.10513   0.79323   0.00000  Uiso   1.00
C1941  C     0.14438   0.38578   0.87315   0.00000  Uiso   1.00
C1942  C     0.36471   0.39487   0.87344   0.00000  Uiso   1.00
C1943  C     0.44008   0.18977   0.83328   0.00000  Uiso   1.00
C1944  C     0.14437   0.11422   0.79352   0.00000  Uiso   1.00
C1945  C     0.13529   0.10513   0.87344   0.00000  Uiso   1.00
C1946  C     0.35562   0.38578   0.79352   0.00000  Uiso   1.00
C1947  C     0.09371   0.34304   0.83314   0.00000  Uiso   1.00
C1948  C     0.40629   0.15696   0.83314   0.00000  Uiso   1.00
C1949  C     0.40629   0.34304   0.83353   0.00000  Uiso   1.00
C1950  C     0.09371   0.15696   0.83353   0.00000  Uiso   1.00
C1951  C     0.34371   0.09304   0.83314   0.00000  Uiso   1.00
C1952  C     0.15629   0.40696   0.83314   0.00000  Uiso   1.00
C1953  C     0.15629   0.09304   0.83353   0.00000  Uiso   1.00
C1954  C     0.05992   0.31023   0.83328   0.00000  Uiso   1.00
C1955  C     0.34371   0.40696   0.83353   0.00000  Uiso   1.00
C1956  C     0.00980   0.32714   0.71361   0.00000  Uiso   1.00
C1957  C     0.00980   0.17286   0.95305   0.00000  Uiso   1.00
C1958  C     0.49020   0.17286   0.71361   0.00000  Uiso   1.00
C1959  C     0.49020   0.32714   0.95305   0.00000  Uiso   1.00
C1960  C     0.25980   0.07714   0.71361   0.00000  Uiso   1.00
C1961  C     0.25980   0.42286   0.95305   0.00000  Uiso   1.00
C1962  C     0.24020   0.42286   0.71361   0.00000  Uiso   1.00
C1963  C     0.24020   0.07714   0.95305   0.00000  Uiso   1.00
C1964  C     0.38256   0.17243   0.75142   0.00000  Uiso   1.00
C1965  C     0.30992   0.43977   0.83339   0.00000  Uiso   1.00
C1966  C     0.36866   0.21887   0.76073   0.00000  Uiso   1.00
C1967  C     0.38604   0.24927   0.72511   0.00000  Uiso   1.00
C1968  C     0.07372   0.37270   0.90980   0.00000  Uiso   1.00
C1969  C     0.08056   0.41482   0.93551   0.00000  Uiso   1.00
C1970  C     0.04499   0.42521   0.96773   0.00000  Uiso   1.00
C1971  C     0.11744   0.32757   0.75141   0.00000  Uiso   1.00
C1972  C     0.13134   0.28113   0.76072   0.00000  Uiso   1.00
C1973  C     0.11396   0.25074   0.72511   0.00000  Uiso   1.00
C1974  C     0.42628   0.12730   0.90980   0.00000  Uiso   1.00
C1975  C     0.41944   0.08518   0.93551   0.00000  Uiso   1.00
C1976  C     0.19008   0.06023   0.83339   0.00000  Uiso   1.00
C1977  C     0.45502   0.07478   0.96773   0.00000  Uiso   1.00
C1978  C     0.11744   0.17243   0.91525   0.00000  Uiso   1.00
C1979  C     0.13134   0.21887   0.90594   0.00000  Uiso   1.00
C1980  C     0.11396   0.24927   0.94155   0.00000  Uiso   1.00
C1981  C     0.42628   0.37270   0.75686   0.00000  Uiso   1.00
C1982  C     0.41944   0.41482   0.73116   0.00000  Uiso   1.00
C1983  C     0.45501   0.42521   0.69894   0.00000  Uiso   1.00
C1984  C     0.38256   0.32757   0.91525   0.00000  Uiso   1.00
C1985  C     0.36866   0.28113   0.90594   0.00000  Uiso   1.00
C1986  C     0.38604   0.25074   0.94156   0.00000  Uiso   1.00
C1987  C     0.19008   0.43977   0.83328   0.00000  Uiso   1.00
C1988  C     0.07372   0.12730   0.75686   0.00000  Uiso   1.00
C1989  C     0.08056   0.08518   0.73116   0.00000  Uiso   1.00
C1990  C     0.04498   0.07478   0.69894   0.00000  Uiso   1.00
C1991  C     0.13256   0.42243   0.75142   0.00000  Uiso   1.00
C1992  C     0.11866   0.46887   0.76073   0.00000  Uiso   1.00
C1993  C     0.13604   0.49927   0.72511   0.00000  Uiso   1.00
C1994  C     0.32372   0.12270   0.90980   0.00000  Uiso   1.00
C1995  C     0.33056   0.16482   0.93551   0.00000  Uiso   1.00
C1996  C     0.29499   0.17521   0.96773   0.00000  Uiso   1.00
C1997  C     0.36744   0.07757   0.75141   0.00000  Uiso   1.00
C1998  C     0.30992   0.06023   0.83328   0.00000  Uiso   1.00
C1999  C     0.38134   0.03113   0.76072   0.00000  Uiso   1.00
C2000  C     0.36396   0.00074   0.72510   0.00000  Uiso   1.00
C2001  C     0.17628   0.37730   0.90980   0.00000  Uiso   1.00
C2002  C     0.16944   0.33518   0.93551   0.00000  Uiso   1.00
C2003  C     0.20502   0.32478   0.96773   0.00000  Uiso   1.00
C2004  C     0.36744   0.42243   0.91525   0.00000  Uiso   1.00
C2005  C     0.38134   0.46887   0.90594   0.00000  Uiso   1.00
C2006  C     0.36396   0.49927   0.94155   0.00000  Uiso   1.00
C2007  C     0.17628   0.12270   0.75686   0.00000  Uiso   1.00
C2008  C     0.16944   0.16482   0.73116   0.00000  Uiso   1.00
C2009  C     0.00152   0.28762   0.69049   0.00000  Uiso   1.00
C2010  C     0.20501   0.17521   0.69894   0.00000  Uiso   1.00
C2011  C     0.13256   0.07757   0.91525   0.00000  Uiso   1.00
C2012  C     0.11866   0.03113   0.90594   0.00000  Uiso   1.00
C2013  C     0.13604   0.00074   0.94156   0.00000  Uiso   1.00
C2014  C     0.32372   0.37730   0.75686   0.00000  Uiso   1.00
C2015  C     0.33056   0.33518   0.73116   0.00000  Uiso   1.00
C2016  C     0.29498   0.32478   0.69894   0.00000  Uiso   1.00
H2017  H     0.39749   0.27899   0.74109   0.00000  Uiso   1.00
H2018  H     0.01604   0.43318   0.94891   0.00000  Uiso   1.00
H2019  H     0.16260   0.01423   0.96087   0.00000  Uiso   1.00
H2020  H     0.11073   0.49250   0.96501   0.00000  Uiso   1.00
H2021  H     0.08385   0.02953   0.90574   0.00000  Uiso   1.00
H2022  H     0.12877   0.01953   0.87257   0.00000  Uiso   1.00
H2023  H     0.16257   0.07889   0.93265   0.00000  Uiso   1.00
H2024  H     0.10953   0.09100   0.93947   0.00000  Uiso   1.00
H2025  H     0.28953   0.35241   0.67628   0.00000  Uiso   1.00
H2026  H     0.30321   0.29650   0.67801   0.00000  Uiso   1.00
H2027  H     0.26603   0.31681   0.71776   0.00000  Uiso   1.00
H2028  H     0.35958   0.33757   0.71101   0.00000  Uiso   1.00
H2029  H     0.10958   0.41243   0.95566   0.00000  Uiso   1.00
H2030  H     0.33270   0.30861   0.75592   0.00000  Uiso   1.00
H2031  H     0.29328   0.37366   0.77417   0.00000  Uiso   1.00
H2032  H     0.32235   0.40463   0.73310   0.00000  Uiso   1.00
H2033  H     0.08271   0.44139   0.91076   0.00000  Uiso   1.00
H2034  H     0.04328   0.37634   0.89250   0.00000  Uiso   1.00
H2035  H     0.07235   0.34537   0.93357   0.00000  Uiso   1.00
H2036  H     0.10251   0.22102   0.74108   0.00000  Uiso   1.00
H2037  H     0.08740   0.26423   0.70580   0.00000  Uiso   1.00
H2038  H     0.13927   0.24250   0.70166   0.00000  Uiso   1.00
H2039  H     0.16615   0.27953   0.76093   0.00000  Uiso   1.00
H2040  H     0.12123   0.26953   0.79410   0.00000  Uiso   1.00
H2041  H     0.41260   0.23578   0.70581   0.00000  Uiso   1.00
H2042  H     0.08743   0.32889   0.73402   0.00000  Uiso   1.00
H2043  H     0.14047   0.34100   0.72719   0.00000  Uiso   1.00
H2044  H     0.46047   0.10241   0.99038   0.00000  Uiso   1.00
H2045  H     0.44678   0.04650   0.98866   0.00000  Uiso   1.00
H2046  H     0.48397   0.06681   0.94891   0.00000  Uiso   1.00
H2047  H     0.39042   0.08757   0.95565   0.00000  Uiso   1.00
H2048  H     0.41729   0.05861   0.91075   0.00000  Uiso   1.00
H2049  H     0.45672   0.12366   0.89250   0.00000  Uiso   1.00
H2050  H     0.42765   0.15463   0.93357   0.00000  Uiso   1.00
H2051  H     0.10251   0.27899   0.92558   0.00000  Uiso   1.00
H2052  H     0.36074   0.25750   0.70166   0.00000  Uiso   1.00
H2053  H     0.08740   0.23578   0.96086   0.00000  Uiso   1.00
H2054  H     0.13926   0.25750   0.96500   0.00000  Uiso   1.00
H2055  H     0.16615   0.22047   0.90573   0.00000  Uiso   1.00
H2056  H     0.12124   0.23047   0.87256   0.00000  Uiso   1.00
H2057  H     0.08743   0.17111   0.93265   0.00000  Uiso   1.00
H2058  H     0.14047   0.15900   0.93947   0.00000  Uiso   1.00
H2059  H     0.46047   0.39759   0.67628   0.00000  Uiso   1.00
H2060  H     0.44678   0.45349   0.67800   0.00000  Uiso   1.00
H2061  H     0.48396   0.43319   0.71776   0.00000  Uiso   1.00
H2062  H     0.39042   0.41243   0.71101   0.00000  Uiso   1.00
H2063  H     0.33385   0.22047   0.76093   0.00000  Uiso   1.00
H2064  H     0.41729   0.44139   0.75591   0.00000  Uiso   1.00
H2065  H     0.45672   0.37634   0.77417   0.00000  Uiso   1.00
H2066  H     0.42765   0.34537   0.73310   0.00000  Uiso   1.00
H2067  H     0.39749   0.22102   0.92559   0.00000  Uiso   1.00
H2068  H     0.41259   0.26423   0.96087   0.00000  Uiso   1.00
H2069  H     0.36073   0.24250   0.96501   0.00000  Uiso   1.00
H2070  H     0.33385   0.27953   0.90574   0.00000  Uiso   1.00
H2071  H     0.37877   0.26953   0.87257   0.00000  Uiso   1.00
H2072  H     0.41257   0.32889   0.93265   0.00000  Uiso   1.00
H2073  H     0.35953   0.34100   0.93947   0.00000  Uiso   1.00
H2074  H     0.37876   0.23047   0.79411   0.00000  Uiso   1.00
H2075  H     0.03953   0.10241   0.67628   0.00000  Uiso   1.00
H2076  H     0.05322   0.04650   0.67801   0.00000  Uiso   1.00
H2077  H     0.01603   0.06681   0.71776   0.00000  Uiso   1.00
H2078  H     0.10958   0.08757   0.71101   0.00000  Uiso   1.00
H2079  H     0.08271   0.05861   0.75591   0.00000  Uiso   1.00
H2080  H     0.04328   0.12366   0.77417   0.00000  Uiso   1.00
H2081  H     0.07235   0.15463   0.73310   0.00000  Uiso   1.00
H2082  H     0.14749   0.02899   0.74109   0.00000  Uiso   1.00
H2083  H     0.16260   0.48578   0.70581   0.00000  Uiso   1.00
H2084  H     0.11073   0.00750   0.70166   0.00000  Uiso   1.00
H2085  H     0.41257   0.17111   0.73402   0.00000  Uiso   1.00
H2086  H     0.08385   0.47047   0.76093   0.00000  Uiso   1.00
H2087  H     0.12876   0.48047   0.79411   0.00000  Uiso   1.00
H2088  H     0.16257   0.42111   0.73402   0.00000  Uiso   1.00
H2089  H     0.10953   0.40900   0.72719   0.00000  Uiso   1.00
H2090  H     0.28953   0.14759   0.99038   0.00000  Uiso   1.00
H2091  H     0.30322   0.20349   0.98866   0.00000  Uiso   1.00
H2092  H     0.26604   0.18319   0.94891   0.00000  Uiso   1.00
H2093  H     0.35958   0.16243   0.95566   0.00000  Uiso   1.00
H2094  H     0.33271   0.19139   0.91076   0.00000  Uiso   1.00
H2095  H     0.29328   0.12634   0.89250   0.00000  Uiso   1.00
H2096  H     0.35953   0.15900   0.72719   0.00000  Uiso   1.00
H2097  H     0.32235   0.09537   0.93357   0.00000  Uiso   1.00
H2098  H     0.35251   0.47102   0.74108   0.00000  Uiso   1.00
H2099  H     0.33740   0.01423   0.70580   0.00000  Uiso   1.00
H2100  H     0.38927   0.49250   0.70166   0.00000  Uiso   1.00
H2101  H     0.41615   0.02953   0.76093   0.00000  Uiso   1.00
H2102  H     0.37123   0.01953   0.79410   0.00000  Uiso   1.00
H2103  H     0.33743   0.07889   0.73402   0.00000  Uiso   1.00
H2104  H     0.39047   0.09100   0.72719   0.00000  Uiso   1.00
H2105  H     0.21047   0.35241   0.99038   0.00000  Uiso   1.00
H2106  H     0.19678   0.29650   0.98866   0.00000  Uiso   1.00
H2107  H     0.03953   0.39759   0.99038   0.00000  Uiso   1.00
H2108  H     0.23397   0.31681   0.94891   0.00000  Uiso   1.00
H2109  H     0.14042   0.33757   0.95565   0.00000  Uiso   1.00
H2110  H     0.16729   0.30861   0.91075   0.00000  Uiso   1.00
H2111  H     0.20672   0.37366   0.89250   0.00000  Uiso   1.00
H2112  H     0.17765   0.40463   0.93357   0.00000  Uiso   1.00
H2113  H     0.35251   0.02899   0.92558   0.00000  Uiso   1.00
H2114  H     0.33740   0.48578   0.96086   0.00000  Uiso   1.00
H2115  H     0.38926   0.00750   0.96500   0.00000  Uiso   1.00
H2116  H     0.41615   0.47047   0.90573   0.00000  Uiso   1.00
H2117  H     0.37124   0.48047   0.87256   0.00000  Uiso   1.00
H2118  H     0.05322   0.45349   0.98866   0.00000  Uiso   1.00
H2119  H     0.33743   0.42111   0.93265   0.00000  Uiso   1.00
H2120  H     0.39047   0.40900   0.93947   0.00000  Uiso   1.00
H2121  H     0.21047   0.14759   0.67628   0.00000  Uiso   1.00
H2122  H     0.19678   0.20349   0.67800   0.00000  Uiso   1.00
H2123  H     0.23396   0.18319   0.71776   0.00000  Uiso   1.00
H2124  H     0.14042   0.16243   0.71101   0.00000  Uiso   1.00
H2125  H     0.16729   0.19139   0.75591   0.00000  Uiso   1.00
H2126  H     0.20672   0.12634   0.77417   0.00000  Uiso   1.00
H2127  H     0.17765   0.09537   0.73310   0.00000  Uiso   1.00
H2128  H     0.14749   0.47102   0.92559   0.00000  Uiso   1.00
N2129  N     0.00000   0.25000   0.95240   0.00000  Uiso   1.00
N2130  N     0.26790   0.39107   0.93486   0.00000  Uiso   1.00
N2131  N     0.23210   0.39107   0.73181   0.00000  Uiso   1.00
N2132  N     0.23210   0.10893   0.93486   0.00000  Uiso   1.00
N2133  N    -0.00000   0.25000   0.71427   0.00000  Uiso   1.00
N2134  N     0.25000   0.00000   0.95240   0.00000  Uiso   1.00
N2135  N     0.25000   0.00000   0.71427   0.00000  Uiso   1.00
N2136  N     0.01790   0.35893   0.73181   0.00000  Uiso   1.00
N2137  N     0.01790   0.14107   0.93486   0.00000  Uiso   1.00
N2138  N     0.48210   0.14107   0.73181   0.00000  Uiso   1.00
N2139  N     0.48210   0.35893   0.93486   0.00000  Uiso   1.00
N2140  N     0.26790   0.10893   0.73181   0.00000  Uiso   1.00
O2141  O     0.04580   0.20419   0.87154   0.00000  Uiso   1.00
O2142  O     0.20419   0.04581   0.79513   0.00000  Uiso   1.00
O2143  O     0.20419   0.04581   0.87154   0.00000  Uiso   1.00
O2144  O     0.29580   0.45419   0.79513   0.00000  Uiso   1.00
O2145  O     0.20419   0.45419   0.79513   0.00000  Uiso   1.00
O2146  O     0.29580   0.04581   0.87154   0.00000  Uiso   1.00
O2147  O     0.29580   0.04581   0.79513   0.00000  Uiso   1.00
O2148  O     0.20419   0.45419   0.87154   0.00000  Uiso   1.00
O2149  O     0.45419   0.29581   0.79513   0.00000  Uiso   1.00
O2150  O     0.45419   0.29581   0.87154   0.00000  Uiso   1.00
O2151  O     0.04580   0.20419   0.79513   0.00000  Uiso   1.00
O2152  O     0.45419   0.20419   0.79513   0.00000  Uiso   1.00
O2153  O     0.04580   0.29581   0.87154   0.00000  Uiso   1.00
O2154  O     0.04580   0.29581   0.79513   0.00000  Uiso   1.00
O2155  O     0.45419   0.20419   0.87154   0.00000  Uiso   1.00
O2156  O     0.29580   0.45419   0.87154   0.00000  Uiso   1.00
Zn2157 Zn   -0.00000   0.25000   0.88437   0.00000  Uiso   1.00
Zn2158 Zn    0.00000   0.25000   0.78229   0.00000  Uiso   1.00
Zn2159 Zn    0.25000   0.00000   0.88437   0.00000  Uiso   1.00
Zn2160 Zn    0.25000   0.00000   0.78229   0.00000  Uiso   1.00
C2161  C     0.55992   0.18977   0.83339   0.00000  Uiso   1.00
C2162  C     0.50152   0.21237   0.97618   0.00000  Uiso   1.00
C2163  C     0.99848   0.21238   0.69048   0.00000  Uiso   1.00
C2164  C     0.99848   0.28762   0.97618   0.00000  Uiso   1.00
C2165  C     0.75152   0.03762   0.69048   0.00000  Uiso   1.00
C2166  C     0.75152   0.46238   0.97618   0.00000  Uiso   1.00
C2167  C     0.74848   0.46238   0.69049   0.00000  Uiso   1.00
C2168  C     0.74848   0.03762   0.97618   0.00000  Uiso   1.00
C2169  C     0.88529   0.14487   0.79323   0.00000  Uiso   1.00
C2170  C     0.60563   0.36422   0.87315   0.00000  Uiso   1.00
C2171  C     0.61471   0.35513   0.79323   0.00000  Uiso   1.00
C2172  C     0.94008   0.31023   0.83339   0.00000  Uiso   1.00
C2173  C     0.89438   0.13578   0.87315   0.00000  Uiso   1.00
C2174  C     0.61471   0.14487   0.87344   0.00000  Uiso   1.00
C2175  C     0.89437   0.36422   0.79352   0.00000  Uiso   1.00
C2176  C     0.88529   0.35513   0.87344   0.00000  Uiso   1.00
C2177  C     0.60562   0.13578   0.79352   0.00000  Uiso   1.00
C2178  C     0.63529   0.39487   0.79323   0.00000  Uiso   1.00
C2179  C     0.85563   0.11422   0.87315   0.00000  Uiso   1.00
C2180  C     0.86471   0.10513   0.79323   0.00000  Uiso   1.00
C2181  C     0.64438   0.38578   0.87315   0.00000  Uiso   1.00
C2182  C     0.86471   0.39487   0.87344   0.00000  Uiso   1.00
C2183  C     0.94008   0.18977   0.83328   0.00000  Uiso   1.00
C2184  C     0.64437   0.11422   0.79352   0.00000  Uiso   1.00
C2185  C     0.63529   0.10513   0.87344   0.00000  Uiso   1.00
C2186  C     0.85562   0.38578   0.79352   0.00000  Uiso   1.00
C2187  C     0.59371   0.34304   0.83314   0.00000  Uiso   1.00
C2188  C     0.90629   0.15696   0.83314   0.00000  Uiso   1.00
C2189  C     0.90629   0.34304   0.83353   0.00000  Uiso   1.00
C2190  C     0.59371   0.15696   0.83353   0.00000  Uiso   1.00
C2191  C     0.84371   0.09304   0.83314   0.00000  Uiso   1.00
C2192  C     0.65629   0.40696   0.83314   0.00000  Uiso   1.00
C2193  C     0.65629   0.09304   0.83353   0.00000  Uiso   1.00
C2194  C     0.55992   0.31023   0.83328   0.00000  Uiso   1.00
C2195  C     0.84371   0.40696   0.83353   0.00000  Uiso   1.00
C2196  C     0.50980   0.32714   0.71361   0.00000  Uiso   1.00
C2197  C     0.50980   0.17286   0.95305   0.00000  Uiso   1.00
C2198  C     0.99020   0.17286   0.71361   0.00000  Uiso   1.00
C2199  C     0.99020   0.32714   0.95305   0.00000  Uiso   1.00
C2200  C     0.75980   0.07714   0.71361   0.00000  Uiso   1.00
C2201  C     0.75980   0.42286   0.95305   0.00000  Uiso   1.00
C2202  C     0.74020   0.42286   0.71361   0.00000  Uiso   1.00
C2203  C     0.74020   0.07714   0.95305   0.00000  Uiso   1.00
C2204  C     0.88256   0.17243   0.75142   0.00000  Uiso   1.00
C2205  C     0.80992   0.43977   0.83339   0.00000  Uiso   1.00
C2206  C     0.86866   0.21887   0.76073   0.00000  Uiso   1.00
C2207  C     0.88604   0.24927   0.72511   0.00000  Uiso   1.00
C2208  C     0.57372   0.37270   0.90980   0.00000  Uiso   1.00
C2209  C     0.58056   0.41482   0.93551   0.00000  Uiso   1.00
C2210  C     0.54499   0.42521   0.96773   0.00000  Uiso   1.00
C2211  C     0.61744   0.32757   0.75141   0.00000  Uiso   1.00
C2212  C     0.63134   0.28113   0.76072   0.00000  Uiso   1.00
C2213  C     0.61396   0.25074   0.72511   0.00000  Uiso   1.00
C2214  C     0.92628   0.12730   0.90980   0.00000  Uiso   1.00
C2215  C     0.91944   0.08518   0.93551   0.00000  Uiso   1.00
C2216  C     0.69008   0.06023   0.83339   0.00000  Uiso   1.00
C2217  C     0.95502   0.07478   0.96773   0.00000  Uiso   1.00
C2218  C     0.61744   0.17243   0.91525   0.00000  Uiso   1.00
C2219  C     0.63134   0.21887   0.90594   0.00000  Uiso   1.00
C2220  C     0.61396   0.24927   0.94155   0.00000  Uiso   1.00
C2221  C     0.92628   0.37270   0.75686   0.00000  Uiso   1.00
C2222  C     0.91944   0.41482   0.73116   0.00000  Uiso   1.00
C2223  C     0.95501   0.42521   0.69894   0.00000  Uiso   1.00
C2224  C     0.88256   0.32757   0.91525   0.00000  Uiso   1.00
C2225  C     0.86866   0.28113   0.90594   0.00000  Uiso   1.00
C2226  C     0.88604   0.25074   0.94156   0.00000  Uiso   1.00
C2227  C     0.69008   0.43977   0.83328   0.00000  Uiso   1.00
C2228  C     0.57372   0.12730   0.75686   0.00000  Uiso   1.00
C2229  C     0.58056   0.08518   0.73116   0.00000  Uiso   1.00
C2230  C     0.54498   0.07478   0.69894   0.00000  Uiso   1.00
C2231  C     0.63256   0.42243   0.75142   0.00000  Uiso   1.00
C2232  C     0.61866   0.46887   0.76073   0.00000  Uiso   1.00
C2233  C     0.63604   0.49927   0.72511   0.00000  Uiso   1.00
C2234  C     0.82372   0.12270   0.90980   0.00000  Uiso   1.00
C2235  C     0.83056   0.16482   0.93551   0.00000  Uiso   1.00
C2236  C     0.79499   0.17521   0.96773   0.00000  Uiso   1.00
C2237  C     0.86744   0.07757   0.75141   0.00000  Uiso   1.00
C2238  C     0.80992   0.06023   0.83328   0.00000  Uiso   1.00
C2239  C     0.88134   0.03113   0.76072   0.00000  Uiso   1.00
C2240  C     0.86396   0.00074   0.72510   0.00000  Uiso   1.00
C2241  C     0.67628   0.37730   0.90980   0.00000  Uiso   1.00
C2242  C     0.66944   0.33518   0.93551   0.00000  Uiso   1.00
C2243  C     0.70502   0.32478   0.96773   0.00000  Uiso   1.00
C2244  C     0.86744   0.42243   0.91525   0.00000  Uiso   1.00
C2245  C     0.88134   0.46887   0.90594   0.00000  Uiso   1.00
C2246  C     0.86396   0.49927   0.94155   0.00000  Uiso   1.00
C2247  C     0.67628   0.12270   0.75686   0.00000  Uiso   1.00
C2248  C     0.66944   0.16482   0.73116   0.00000  Uiso   1.00
C2249  C     0.50152   0.28762   0.69049   0.00000  Uiso   1.00
C2250  C     0.70501   0.17521   0.69894   0.00000  Uiso   1.00
C2251  C     0.63256   0.07757   0.91525   0.00000  Uiso   1.00
C2252  C     0.61866   0.03113   0.90594   0.00000  Uiso   1.00
C2253  C     0.63604   0.00074   0.94156   0.00000  Uiso   1.00
C2254  C     0.82372   0.37730   0.75686   0.00000  Uiso   1.00
C2255  C     0.83056   0.33518   0.73116   0.00000  Uiso   1.00
C2256  C     0.79498   0.32478   0.69894   0.00000  Uiso   1.00
H2257  H     0.89749   0.27899   0.74109   0.00000  Uiso   1.00
H2258  H     0.51604   0.43318   0.94891   0.00000  Uiso   1.00
H2259  H     0.66260   0.01423   0.96087   0.00000  Uiso   1.00
H2260  H     0.61073   0.49250   0.96501   0.00000  Uiso   1.00
H2261  H     0.58385   0.02953   0.90574   0.00000  Uiso   1.00
H2262  H     0.62877   0.01953   0.87257   0.00000  Uiso   1.00
H2263  H     0.66257   0.07889   0.93265   0.00000  Uiso   1.00
H2264  H     0.60953   0.09100   0.93947   0.00000  Uiso   1.00
H2265  H     0.78953   0.35241   0.67628   0.00000  Uiso   1.00
H2266  H     0.80321   0.29650   0.67801   0.00000  Uiso   1.00
H2267  H     0.76603   0.31681   0.71776   0.00000  Uiso   1.00
H2268  H     0.85958   0.33757   0.71101   0.00000  Uiso   1.00
H2269  H     0.60958   0.41243   0.95566   0.00000  Uiso   1.00
H2270  H     0.83270   0.30861   0.75592   0.00000  Uiso   1.00
H2271  H     0.79328   0.37366   0.77417   0.00000  Uiso   1.00
H2272  H     0.82235   0.40463   0.73310   0.00000  Uiso   1.00
H2273  H     0.58271   0.44139   0.91076   0.00000  Uiso   1.00
H2274  H     0.54328   0.37634   0.89250   0.00000  Uiso   1.00
H2275  H     0.57235   0.34537   0.93357   0.00000  Uiso   1.00
H2276  H     0.60251   0.22102   0.74108   0.00000  Uiso   1.00
H2277  H     0.58740   0.26423   0.70580   0.00000  Uiso   1.00
H2278  H     0.63927   0.24250   0.70166   0.00000  Uiso   1.00
H2279  H     0.66615   0.27953   0.76093   0.00000  Uiso   1.00
H2280  H     0.62123   0.26953   0.79410   0.00000  Uiso   1.00
H2281  H     0.91260   0.23578   0.70581   0.00000  Uiso   1.00
H2282  H     0.58743   0.32889   0.73402   0.00000  Uiso   1.00
H2283  H     0.64047   0.34100   0.72719   0.00000  Uiso   1.00
H2284  H     0.96047   0.10241   0.99038   0.00000  Uiso   1.00
H2285  H     0.94678   0.04650   0.98866   0.00000  Uiso   1.00
H2286  H     0.98397   0.06681   0.94891   0.00000  Uiso   1.00
H2287  H     0.89042   0.08757   0.95565   0.00000  Uiso   1.00
H2288  H     0.91729   0.05861   0.91075   0.00000  Uiso   1.00
H2289  H     0.95672   0.12366   0.89250   0.00000  Uiso   1.00
H2290  H     0.92765   0.15463   0.93357   0.00000  Uiso   1.00
H2291  H     0.60251   0.27899   0.92558   0.00000  Uiso   1.00
H2292  H     0.86074   0.25750   0.70166   0.00000  Uiso   1.00
H2293  H     0.58740   0.23578   0.96086   0.00000  Uiso   1.00
H2294  H     0.63926   0.25750   0.96500   0.00000  Uiso   1.00
H2295  H     0.66615   0.22047   0.90573   0.00000  Uiso   1.00
H2296  H     0.62124   0.23047   0.87256   0.00000  Uiso   1.00
H2297  H     0.58743   0.17111   0.93265   0.00000  Uiso   1.00
H2298  H     0.64047   0.15900   0.93947   0.00000  Uiso   1.00
H2299  H     0.96047   0.39759   0.67628   0.00000  Uiso   1.00
H2300  H     0.94678   0.45349   0.67800   0.00000  Uiso   1.00
H2301  H     0.98396   0.43319   0.71776   0.00000  Uiso   1.00
H2302  H     0.89042   0.41243   0.71101   0.00000  Uiso   1.00
H2303  H     0.83385   0.22047   0.76093   0.00000  Uiso   1.00
H2304  H     0.91729   0.44139   0.75591   0.00000  Uiso   1.00
H2305  H     0.95672   0.37634   0.77417   0.00000  Uiso   1.00
H2306  H     0.92765   0.34537   0.73310   0.00000  Uiso   1.00
H2307  H     0.89749   0.22102   0.92559   0.00000  Uiso   1.00
H2308  H     0.91259   0.26423   0.96087   0.00000  Uiso   1.00
H2309  H     0.86073   0.24250   0.96501   0.00000  Uiso   1.00
H2310  H     0.83385   0.27953   0.90574   0.00000  Uiso   1.00
H2311  H     0.87877   0.26953   0.87257   0.00000  Uiso   1.00
H2312  H     0.91257   0.32889   0.93265   0.00000  Uiso   1.00
H2313  H     0.85953   0.34100   0.93947   0.00000  Uiso   1.00
H2314  H     0.87876   0.23047   0.79411   0.00000  Uiso   1.00
H2315  H     0.53953   0.10241   0.67628   0.00000  Uiso   1.00
H2316  H     0.55322   0.04650   0.67801   0.00000  Uiso   1.00
H2317  H     0.51603   0.06681   0.71776   0.00000  Uiso   1.00
H2318  H     0.60958   0.08757   0.71101   0.00000  Uiso   1.00
H2319  H     0.58271   0.05861   0.75591   0.00000  Uiso   1.00
H2320  H     0.54328   0.12366   0.77417   0.00000  Uiso   1.00
H2321  H     0.57235   0.15463   0.73310   0.00000  Uiso   1.00
H2322  H     0.64749   0.02899   0.74109   0.00000  Uiso   1.00
H2323  H     0.66260   0.48578   0.70581   0.00000  Uiso   1.00
H2324  H     0.61073   0.00750   0.70166   0.00000  Uiso   1.00
H2325  H     0.91257   0.17111   0.73402   0.00000  Uiso   1.00
H2326  H     0.58385   0.47047   0.76093   0.00000  Uiso   1.00
H2327  H     0.62876   0.48047   0.79411   0.00000  Uiso   1.00
H2328  H     0.66257   0.42111   0.73402   0.00000  Uiso   1.00
H2329  H     0.60953   0.40900   0.72719   0.00000  Uiso   1.00
H2330  H     0.78953   0.14759   0.99038   0.00000  Uiso   1.00
H2331  H     0.80322   0.20349   0.98866   0.00000  Uiso   1.00
H2332  H     0.76604   0.18319   0.94891   0.00000  Uiso   1.00
H2333  H     0.85958   0.16243   0.95566   0.00000  Uiso   1.00
H2334  H     0.83271   0.19139   0.91076   0.00000  Uiso   1.00
H2335  H     0.79328   0.12634   0.89250   0.00000  Uiso   1.00
H2336  H     0.85953   0.15900   0.72719   0.00000  Uiso   1.00
H2337  H     0.82235   0.09537   0.93357   0.00000  Uiso   1.00
H2338  H     0.85251   0.47102   0.74108   0.00000  Uiso   1.00
H2339  H     0.83740   0.01423   0.70580   0.00000  Uiso   1.00
H2340  H     0.88927   0.49250   0.70166   0.00000  Uiso   1.00
H2341  H     0.91615   0.02953   0.76093   0.00000  Uiso   1.00
H2342  H     0.87123   0.01953   0.79410   0.00000  Uiso   1.00
H2343  H     0.83743   0.07889   0.73402   0.00000  Uiso   1.00
H2344  H     0.89047   0.09100   0.72719   0.00000  Uiso   1.00
H2345  H     0.71047   0.35241   0.99038   0.00000  Uiso   1.00
H2346  H     0.69678   0.29650   0.98866   0.00000  Uiso   1.00
H2347  H     0.53953   0.39759   0.99038   0.00000  Uiso   1.00
H2348  H     0.73397   0.31681   0.94891   0.00000  Uiso   1.00
H2349  H     0.64042   0.33757   0.95565   0.00000  Uiso   1.00
H2350  H     0.66729   0.30861   0.91075   0.00000  Uiso   1.00
H2351  H     0.70672   0.37366   0.89250   0.00000  Uiso   1.00
H2352  H     0.67765   0.40463   0.93357   0.00000  Uiso   1.00
H2353  H     0.85251   0.02899   0.92558   0.00000  Uiso   1.00
H2354  H     0.83740   0.48578   0.96086   0.00000  Uiso   1.00
H2355  H     0.88926   0.00750   0.96500   0.00000  Uiso   1.00
H2356  H     0.91615   0.47047   0.90573   0.00000  Uiso   1.00
H2357  H     0.87124   0.48047   0.87256   0.00000  Uiso   1.00
H2358  H     0.55322   0.45349   0.98866   0.00000  Uiso   1.00
H2359  H     0.83743   0.42111   0.93265   0.00000  Uiso   1.00
H2360  H     0.89047   0.40900   0.93947   0.00000  Uiso   1.00
H2361  H     0.71047   0.14759   0.67628   0.00000  Uiso   1.00
H2362  H     0.69678   0.20349   0.67800   0.00000  Uiso   1.00
H2363  H     0.73396   0.18319   0.71776   0.00000  Uiso   1.00
H2364  H     0.64042   0.16243   0.71101   0.00000  Uiso   1.00
H2365  H     0.66729   0.19139   0.75591   0.00000  Uiso   1.00
H2366  H     0.70672   0.12634   0.77417   0.00000  Uiso   1.00
H2367  H     0.67765   0.09537   0.73310   0.00000  Uiso   1.00
H2368  H     0.64749   0.47102   0.92559   0.00000  Uiso   1.00
N2369  N     0.50000   0.25000   0.95240   0.00000  Uiso   1.00
N2370  N     0.76790   0.39107   0.93486   0.00000  Uiso   1.00
N2371  N     0.73210   0.39107   0.73181   0.00000  Uiso   1.00
N2372  N     0.73210   0.10893   0.93486   0.00000  Uiso   1.00
N2373  N     0.50000   0.25000   0.71427   0.00000  Uiso   1.00
N2374  N     0.75000   0.00000   0.95240   0.00000  Uiso   1.00
N2375  N     0.75000   0.00000   0.71427   0.00000  Uiso   1.00
N2376  N     0.51790   0.35893   0.73181   0.00000  Uiso   1.00
N2377  N     0.51790   0.14107   0.93486   0.00000  Uiso   1.00
N2378  N     0.98210   0.14107   0.73181   0.00000  Uiso   1.00
N2379  N     0.98210   0.35893   0.93486   0.00000  Uiso   1.00
N2380  N     0.76790   0.10893   0.73181   0.00000  Uiso   1.00
O2381  O     0.54580   0.20419   0.87154   0.00000  Uiso   1.00
O2382  O     0.70419   0.04581   0.79513   0.00000  Uiso   1.00
O2383  O     0.70419   0.04581   0.87154   0.00000  Uiso   1.00
O2384  O     0.79580   0.45419   0.79513   0.00000  Uiso   1.00
O2385  O     0.70419   0.45419   0.79513   0.00000  Uiso   1.00
O2386  O     0.79580   0.04581   0.87154   0.00000  Uiso   1.00
O2387  O     0.79580   0.04581   0.79513   0.00000  Uiso   1.00
O2388  O     0.70419   0.45419   0.87154   0.00000  Uiso   1.00
O2389  O     0.95419   0.29581   0.79513   0.00000  Uiso   1.00
O2390  O     0.95419   0.29581   0.87154   0.00000  Uiso   1.00
O2391  O     0.54580   0.20419   0.79513   0.00000  Uiso   1.00
O2392  O     0.95419   0.20419   0.79513   0.00000  Uiso   1.00
O2393  O     0.54580   0.29581   0.87154   0.00000  Uiso   1.00
O2394  O     0.54580   0.29581   0.79513   0.00000  Uiso   1.00
O2395  O     0.95419   0.20419   0.87154   0.00000  Uiso   1.00
O2396  O     0.79580   0.45419   0.87154   0.00000  Uiso   1.00
Zn2397 Zn    0.50000   0.25000   0.88437   0.00000  Uiso   1.00
Zn2398 Zn    0.50000   0.25000   0.78229   0.00000  Uiso   1.00
Zn2399 Zn    0.75000   0.00000   0.88437   0.00000  Uiso   1.00
Zn2400 Zn    0.75000   0.00000   0.78229   0.00000  Uiso   1.00
C2401  C     0.05992   0.68977   0.83339   0.00000  Uiso   1.00
C2402  C     0.00152   0.71237   0.97618   0.00000  Uiso   1.00
C2403  C     0.49848   0.71238   0.69048   0.00000  Uiso   1.00
C2404  C     0.49848   0.78762   0.97618   0.00000  Uiso   1.00
C2405  C     0.25152   0.53762   0.69048   0.00000  Uiso   1.00
C2406  C     0.25152   0.96238   0.97618   0.00000  Uiso   1.00
C2407  C     0.24848   0.96238   0.69049   0.00000  Uiso   1.00
C2408  C     0.24848   0.53762   0.97618   0.00000  Uiso   1.00
C2409  C     0.38529   0.64487   0.79323   0.00000  Uiso   1.00
C2410  C     0.10563   0.86422   0.87315   0.00000  Uiso   1.00
C2411  C     0.11471   0.85513   0.79323   0.00000  Uiso   1.00
C2412  C     0.44008   0.81023   0.83339   0.00000  Uiso   1.00
C2413  C     0.39438   0.63578   0.87315   0.00000  Uiso   1.00
C2414  C     0.11471   0.64487   0.87344   0.00000  Uiso   1.00
C2415  C     0.39437   0.86422   0.79352   0.00000  Uiso   1.00
C2416  C     0.38529   0.85513   0.87344   0.00000  Uiso   1.00
C2417  C     0.10562   0.63578   0.79352   0.00000  Uiso   1.00
C2418  C     0.13529   0.89487   0.79323   0.00000  Uiso   1.00
C2419  C     0.35563   0.61422   0.87315   0.00000  Uiso   1.00
C2420  C     0.36471   0.60513   0.79323   0.00000  Uiso   1.00
C2421  C     0.14438   0.88578   0.87315   0.00000  Uiso   1.00
C2422  C     0.36471   0.89487   0.87344   0.00000  Uiso   1.00
C2423  C     0.44008   0.68977   0.83328   0.00000  Uiso   1.00
C2424  C     0.14437   0.61422   0.79352   0.00000  Uiso   1.00
C2425  C     0.13529   0.60513   0.87344   0.00000  Uiso   1.00
C2426  C     0.35562   0.88578   0.79352   0.00000  Uiso   1.00
C2427  C     0.09371   0.84304   0.83314   0.00000  Uiso   1.00
C2428  C     0.40629   0.65696   0.83314   0.00000  Uiso   1.00
C2429  C     0.40629   0.84304   0.83353   0.00000  Uiso   1.00
C2430  C     0.09371   0.65696   0.83353   0.00000  Uiso   1.00
C2431  C     0.34371   0.59304   0.83314   0.00000  Uiso   1.00
C2432  C     0.15629   0.90696   0.83314   0.00000  Uiso   1.00
C2433  C     0.15629   0.59304   0.83353   0.00000  Uiso   1.00
C2434  C     0.05992   0.81023   0.83328   0.00000  Uiso   1.00
C2435  C     0.34371   0.90696   0.83353   0.00000  Uiso   1.00
C2436  C     0.00980   0.82714   0.71361   0.00000  Uiso   1.00
C2437  C     0.00980   0.67286   0.95305   0.00000  Uiso   1.00
C2438  C     0.49020   0.67286   0.71361   0.00000  Uiso   1.00
C2439  C     0.49020   0.82714   0.95305   0.00000  Uiso   1.00
C2440  C     0.25980   0.57714   0.71361   0.00000  Uiso   1.00
C2441  C     0.25980   0.92286   0.95305   0.00000  Uiso   1.00
C2442  C     0.24020   0.92286   0.71361   0.00000  Uiso   1.00
C2443  C     0.24020   0.57714   0.95305   0.00000  Uiso   1.00
C2444  C     0.38256   0.67243   0.75142   0.00000  Uiso   1.00
C2445  C     0.30992   0.93977   0.83339   0.00000  Uiso   1.00
C2446  C     0.36866   0.71887   0.76073   0.00000  Uiso   1.00
C2447  C     0.38604   0.74927   0.72511   0.00000  Uiso   1.00
C2448  C     0.07372   0.87270   0.90980   0.00000  Uiso   1.00
C2449  C     0.08056   0.91482   0.93551   0.00000  Uiso   1.00
C2450  C     0.04499   0.92521   0.96773   0.00000  Uiso   1.00
C2451  C     0.11744   0.82757   0.75141   0.00000  Uiso   1.00
C2452  C     0.13134   0.78113   0.76072   0.00000  Uiso   1.00
C2453  C     0.11396   0.75074   0.72511   0.00000  Uiso   1.00
C2454  C     0.42628   0.62730   0.90980   0.00000  Uiso   1.00
C2455  C     0.41944   0.58518   0.93551   0.00000  Uiso   1.00
C2456  C     0.19008   0.56023   0.83339   0.00000  Uiso   1.00
C2457  C     0.45502   0.57478   0.96773   0.00000  Uiso   1.00
C2458  C     0.11744   0.67243   0.91525   0.00000  Uiso   1.00
C2459  C     0.13134   0.71887   0.90594   0.00000  Uiso   1.00
C2460  C     0.11396   0.74927   0.94155   0.00000  Uiso   1.00
C2461  C     0.42628   0.87270   0.75686   0.00000  Uiso   1.00
C2462  C     0.41944   0.91482   0.73116   0.00000  Uiso   1.00
C2463  C     0.45501   0.92521   0.69894   0.00000  Uiso   1.00
C2464  C     0.38256   0.82757   0.91525   0.00000  Uiso   1.00
C2465  C     0.36866   0.78113   0.90594   0.00000  Uiso   1.00
C2466  C     0.38604   0.75074   0.94156   0.00000  Uiso   1.00
C2467  C     0.19008   0.93977   0.83328   0.00000  Uiso   1.00
C2468  C     0.07372   0.62730   0.75686   0.00000  Uiso   1.00
C2469  C     0.08056   0.58518   0.73116   0.00000  Uiso   1.00
C2470  C     0.04498   0.57478   0.69894   0.00000  Uiso   1.00
C2471  C     0.13256   0.92243   0.75142   0.00000  Uiso   1.00
C2472  C     0.11866   0.96887   0.76073   0.00000  Uiso   1.00
C2473  C     0.13604   0.99927   0.72511   0.00000  Uiso   1.00
C2474  C     0.32372   0.62270   0.90980   0.00000  Uiso   1.00
C2475  C     0.33056   0.66482   0.93551   0.00000  Uiso   1.00
C2476  C     0.29499   0.67521   0.96773   0.00000  Uiso   1.00
C2477  C     0.36744   0.57757   0.75141   0.00000  Uiso   1.00
C2478  C     0.30992   0.56023   0.83328   0.00000  Uiso   1.00
C2479  C     0.38134   0.53113   0.76072   0.00000  Uiso   1.00
C2480  C     0.36396   0.50074   0.72510   0.00000  Uiso   1.00
C2481  C     0.17628   0.87730   0.90980   0.00000  Uiso   1.00
C2482  C     0.16944   0.83518   0.93551   0.00000  Uiso   1.00
C2483  C     0.20502   0.82478   0.96773   0.00000  Uiso   1.00
C2484  C     0.36744   0.92243   0.91525   0.00000  Uiso   1.00
C2485  C     0.38134   0.96887   0.90594   0.00000  Uiso   1.00
C2486  C     0.36396   0.99927   0.94155   0.00000  Uiso   1.00
C2487  C     0.17628   0.62270   0.75686   0.00000  Uiso   1.00
C2488  C     0.16944   0.66482   0.73116   0.00000  Uiso   1.00
C2489  C     0.00152   0.78762   0.69049   0.00000  Uiso   1.00
C2490  C     0.20501   0.67521   0.69894   0.00000  Uiso   1.00
C2491  C     0.13256   0.57757   0.91525   0.00000  Uiso   1.00
C2492  C     0.11866   0.53113   0.90594   0.00000  Uiso   1.00
C2493  C     0.13604   0.50074   0.94156   0.00000  Uiso   1.00
C2494  C     0.32372   0.87730   0.75686   0.00000  Uiso   1.00
C2495  C     0.33056   0.83518   0.73116   0.00000  Uiso   1.00
C2496  C     0.29498   0.82478   0.69894   0.00000  Uiso   1.00
H2497  H     0.39749   0.77899   0.74109   0.00000  Uiso   1.00
H2498  H     0.01604   0.93318   0.94891   0.00000  Uiso   1.00
H2499  H     0.16260   0.51423   0.96087   0.00000  Uiso   1.00
H2500  H     0.11073   0.99250   0.96501   0.00000  Uiso   1.00
H2501  H     0.08385   0.52953   0.90574   0.00000  Uiso   1.00
H2502  H     0.12877   0.51953   0.87257   0.00000  Uiso   1.00
H2503  H     0.16257   0.57889   0.93265   0.00000  Uiso   1.00
H2504  H     0.10953   0.59100   0.93947   0.00000  Uiso   1.00
H2505  H     0.28953   0.85241   0.67628   0.00000  Uiso   1.00
H2506  H     0.30321   0.79650   0.67801   0.00000  Uiso   1.00
H2507  H     0.26603   0.81681   0.71776   0.00000  Uiso   1.00
H2508  H     0.35958   0.83757   0.71101   0.00000  Uiso   1.00
H2509  H     0.10958   0.91243   0.95566   0.00000  Uiso   1.00
H2510  H     0.33270   0.80861   0.75592   0.00000  Uiso   1.00
H2511  H     0.29328   0.87366   0.77417   0.00000  Uiso   1.00
H2512  H     0.32235   0.90463   0.73310   0.00000  Uiso   1.00
H2513  H     0.08271   0.94139   0.91076   0.00000  Uiso   1.00
H2514  H     0.04328   0.87634   0.89250   0.00000  Uiso   1.00
H2515  H     0.07235   0.84537   0.93357   0.00000  Uiso   1.00
H2516  H     0.10251   0.72102   0.74108   0.00000  Uiso   1.00
H2517  H     0.08740   0.76423   0.70580   0.00000  Uiso   1.00
H2518  H     0.13927   0.74250   0.70166   0.00000  Uiso   1.00
H2519  H     0.16615   0.77953   0.76093   0.00000  Uiso   1.00
H2520  H     0.12123   0.76953   0.79410   0.00000  Uiso   1.00
H2521  H     0.41260   0.73578   0.70581   0.00000  Uiso   1.00
H2522  H     0.08743   0.82889   0.73402   0.00000  Uiso   1.00
H2523  H     0.14047   0.84100   0.72719   0.00000  Uiso   1.00
H2524  H     0.46047   0.60241   0.99038   0.00000  Uiso   1.00
H2525  H     0.44678   0.54650   0.98866   0.00000  Uiso   1.00
H2526  H     0.48397   0.56681   0.94891   0.00000  Uiso   1.00
H2527  H     0.39042   0.58757   0.95565   0.00000  Uiso   1.00
H2528  H     0.41729   0.55861   0.91075   0.00000  Uiso   1.00
H2529  H     0.45672   0.62366   0.89250   0.00000  Uiso   1.00
H2530  H     0.42765   0.65463   0.93357   0.00000  Uiso   1.00
H2531  H     0.10251   0.77899   0.92558   0.00000  Uiso   1.00
H2532  H     0.36074   0.75750   0.70166   0.00000  Uiso   1.00
H2533  H     0.08740   0.73578   0.96086   0.00000  Uiso   1.00
H2534  H     0.13926   0.75750   0.96500   0.00000  Uiso   1.00
H2535  H     0.16615   0.72047   0.90573   0.00000  Uiso   1.00
H2536  H     0.12124   0.73047   0.87256   0.00000  Uiso   1.00
H2537  H     0.08743   0.67111   0.93265   0.00000  Uiso   1.00
H2538  H     0.14047   0.65900   0.93947   0.00000  Uiso   1.00
H2539  H     0.46047   0.89759   0.67628   0.00000  Uiso   1.00
H2540  H     0.44678   0.95349   0.67800   0.00000  Uiso   1.00
H2541  H     0.48396   0.93319   0.71776   0.00000  Uiso   1.00
H2542  H     0.39042   0.91243   0.71101   0.00000  Uiso   1.00
H2543  H     0.33385   0.72047   0.76093   0.00000  Uiso   1.00
H2544  H     0.41729   0.94139   0.75591   0.00000  Uiso   1.00
H2545  H     0.45672   0.87634   0.77417   0.00000  Uiso   1.00
H2546  H     0.42765   0.84537   0.73310   0.00000  Uiso   1.00
H2547  H     0.39749   0.72102   0.92559   0.00000  Uiso   1.00
H2548  H     0.41259   0.76423   0.96087   0.00000  Uiso   1.00
H2549  H     0.36073   0.74250   0.96501   0.00000  Uiso   1.00
H2550  H     0.33385   0.77953   0.90574   0.00000  Uiso   1.00
H2551  H     0.37877   0.76953   0.87257   0.00000  Uiso   1.00
H2552  H     0.41257   0.82889   0.93265   0.00000  Uiso   1.00
H2553  H     0.35953   0.84100   0.93947   0.00000  Uiso   1.00
H2554  H     0.37876   0.73047   0.79411   0.00000  Uiso   1.00
H2555  H     0.03953   0.60241   0.67628   0.00000  Uiso   1.00
H2556  H     0.05322   0.54650   0.67801   0.00000  Uiso   1.00
H2557  H     0.01603   0.56681   0.71776   0.00000  Uiso   1.00
H2558  H     0.10958   0.58757   0.71101   0.00000  Uiso   1.00
H2559  H     0.08271   0.55861   0.75591   0.00000  Uiso   1.00
H2560  H     0.04328   0.62366   0.77417   0.00000  Uiso   1.00
H2561  H     0.07235   0.65463   0.73310   0.00000  Uiso   1.00
H2562  H     0.14749   0.52899   0.74109   0.00000  Uiso   1.00
H2563  H     0.16260   0.98578   0.70581   0.00000  Uiso   1.00
H2564  H     0.11073   0.50750   0.70166   0.00000  Uiso   1.00
H2565  H     0.41257   0.67111   0.73402   0.00000  Uiso   1.00
H2566  H     0.08385   0.97047   0.76093   0.00000  Uiso   1.00
H2567  H     0.12876   0.98047   0.79411   0.00000  Uiso   1.00
H2568  H     0.16257   0.92111   0.73402   0.00000  Uiso   1.00
H2569  H     0.10953   0.90900   0.72719   0.00000  Uiso   1.00
H2570  H     0.28953   0.64759   0.99038   0.00000  Uiso   1.00
H2571  H     0.30322   0.70349   0.98866   0.00000  Uiso   1.00
H2572  H     0.26604   0.68319   0.94891   0.00000  Uiso   1.00
H2573  H     0.35958   0.66243   0.95566   0.00000  Uiso   1.00
H2574  H     0.33271   0.69139   0.91076   0.00000  Uiso   1.00
H2575  H     0.29328   0.62634   0.89250   0.00000  Uiso   1.00
H2576  H     0.35953   0.65900   0.72719   0.00000  Uiso   1.00
H2577  H     0.32235   0.59537   0.93357   0.00000  Uiso   1.00
H2578  H     0.35251   0.97102   0.74108   0.00000  Uiso   1.00
H2579  H     0.33740   0.51423   0.70580   0.00000  Uiso   1.00
H2580  H     0.38927   0.99250   0.70166   0.00000  Uiso   1.00
H2581  H     0.41615   0.52953   0.76093   0.00000  Uiso   1.00
H2582  H     0.37123   0.51953   0.79410   0.00000  Uiso   1.00
H2583  H     0.33743   0.57889   0.73402   0.00000  Uiso   1.00
H2584  H     0.39047   0.59100   0.72719   0.00000  Uiso   1.00
H2585  H     0.21047   0.85241   0.99038   0.00000  Uiso   1.00
H2586  H     0.19678   0.79650   0.98866   0.00000  Uiso   1.00
H2587  H     0.03953   0.89759   0.99038   0.00000  Uiso   1.00
H2588  H     0.23397   0.81681   0.94891   0.00000  Uiso   1.00
H2589  H     0.14042   0.83757   0.95565   0.00000  Uiso   1.00
H2590  H     0.16729   0.80861   0.91075   0.00000  Uiso   1.00
H2591  H     0.20672   0.87366   0.89250   0.00000  Uiso   1.00
H2592  H     0.17765   0.90463   0.93357   0.00000  Uiso   1.00
H2593  H     0.35251   0.52899   0.92558   0.00000  Uiso   1.00
H2594  H     0.33740   0.98578   0.96086   0.00000  Uiso   1.00
H2595  H     0.38926   0.50750   0.96500   0.00000  Uiso   1.00
H2596  H     0.41615   0.97047   0.90573   0.00000  Uiso   1.00
H2597  H     0.37124   0.98047   0.87256   0.00000  Uiso   1.00
H2598  H     0.05322   0.95349   0.98866   0.00000  Uiso   1.00
H2599  H     0.33743   0.92111   0.93265   0.00000  Uiso   1.00
H2600  H     0.39047   0.90900   0.93947   0.00000  Uiso   1.00
H2601  H     0.21047   0.64759   0.67628   0.00000  Uiso   1.00
H2602  H     0.19678   0.70349   0.67800   0.00000  Uiso   1.00
H2603  H     0.23396   0.68319   0.71776   0.00000  Uiso   1.00
H2604  H     0.14042   0.66243   0.71101   0.00000  Uiso   1.00
H2605  H     0.16729   0.69139   0.75591   0.00000  Uiso   1.00
H2606  H     0.20672   0.62634   0.77417   0.00000  Uiso   1.00
H2607  H     0.17765   0.59537   0.73310   0.00000  Uiso   1.00
H2608  H     0.14749   0.97102   0.92559   0.00000  Uiso   1.00
N2609  N     0.00000   0.75000   0.95240   0.00000  Uiso   1.00
N2610  N     0.26790   0.89107   0.93486   0.00000  Uiso   1.00
N2611  N     0.23210   0.89107   0.73181   0.00000  Uiso   1.00
N2612  N     0.23210   0.60893   0.93486   0.00000  Uiso   1.00
N2613  N    -0.00000   0.75000   0.71427   0.00000  Uiso   1.00
N2614  N     0.25000   0.50000   0.95240   0.00000  Uiso   1.00
N2615  N     0.25000   0.50000   0.71427   0.00000  Uiso   1.00
N2616  N     0.01790   0.85893   0.73181   0.00000  Uiso   1.00
N2617  N     0.01790   0.64107   0.93486   0.00000  Uiso   1.00
N2618  N     0.48210   0.64107   0.73181   0.00000  Uiso   1.00
N2619  N     0.48210   0.85893   0.93486   0.00000  Uiso   1.00
N2620  N     0.26790   0.60893   0.73181   0.00000  Uiso   1.00
O2621  O     0.04580   0.70419   0.87154   0.00000  Uiso   1.00
O2622  O     0.20419   0.54581   0.79513   0.00000  Uiso   1.00
O2623  O     0.20419   0.54581   0.87154   0.00000  Uiso   1.00
O2624  O     0.29580   0.95419   0.79513   0.00000  Uiso   1.00
O2625  O     0.20419   0.95419   0.79513   0.00000  Uiso   1.00
O2626  O     0.29580   0.54581   0.87154   0.00000  Uiso   1.00
O2627  O     0.29580   0.54581   0.79513   0.00000  Uiso   1.00
O2628  O     0.20419   0.95419   0.87154   0.00000  Uiso   1.00
O2629  O     0.45419   0.79581   0.79513   0.00000  Uiso   1.00
O2630  O     0.45419   0.79581   0.87154   0.00000  Uiso   1.00
O2631  O     0.04580   0.70419   0.79513   0.00000  Uiso   1.00
O2632  O     0.45419   0.70419   0.79513   0.00000  Uiso   1.00
O2633  O     0.04580   0.79581   0.87154   0.00000  Uiso   1.00
O2634  O     0.04580   0.79581   0.79513   0.00000  Uiso   1.00
O2635  O     0.45419   0.70419   0.87154   0.00000  Uiso   1.00
O2636  O     0.29580   0.95419   0.87154   0.00000  Uiso   1.00
Zn2637 Zn   -0.00000   0.75000   0.88437   0.00000  Uiso   1.00
Zn2638 Zn    0.00000   0.75000   0.78229   0.00000  Uiso   1.00
Zn2639 Zn    0.25000   0.50000   0.88437   0.00000  Uiso   1.00
Zn2640 Zn    0.25000   0.50000   0.78229   0.00000  Uiso   1.00
C2641  C     0.55992   0.68977   0.83339   0.00000  Uiso   1.00
C2642  C     0.50152   0.71237   0.97618   0.00000  Uiso   1.00
C2643  C     0.99848   0.71238   0.69048   0.00000  Uiso   1.00
C2644  C     0.99848   0.78762   0.97618   0.00000  Uiso   1.00
C2645  C     0.75152   0.53762   0.69048   0.00000  Uiso   1.00
C2646  C     0.75152   0.96238   0.97618   0.00000  Uiso   1.00
C2647  C     0.74848   0.96238   0.69049   0.00000  Uiso   1.00
C2648  C     0.74848   0.53762   0.97618   0.00000  Uiso   1.00
C2649  C     0.88529   0.64487   0.79323   0.00000  Uiso   1.00
C2650  C     0.60563   0.86422   0.87315   0.00000  Uiso   1.00
C2651  C     0.61471   0.85513   0.79323   0.00000  Uiso   1.00
C2652  C     0.94008   0.81023   0.83339   0.00000  Uiso   1.00
C2653  C     0.89438   0.63578   0.87315   0.00000  Uiso   1.00
C2654  C     0.61471   0.64487   0.87344   0.00000  Uiso   1.00
C2655  C     0.89437   0.86422   0.79352   0.00000  Uiso   1.00
C2656  C     0.88529   0.85513   0.87344   0.00000  Uiso   1.00
C2657  C     0.60562   0.63578   0.79352   0.00000  Uiso   1.00
C2658  C     0.63529   0.89487   0.79323   0.00000  Uiso   1.00
C2659  C     0.85563   0.61422   0.87315   0.00000  Uiso   1.00
C2660  C     0.86471   0.60513   0.79323   0.00000  Uiso   1.00
C2661  C     0.64438   0.88578   0.87315   0.00000  Uiso   1.00
C2662  C     0.86471   0.89487   0.87344   0.00000  Uiso   1.00
C2663  C     0.94008   0.68977   0.83328   0.00000  Uiso   1.00
C2664  C     0.64437   0.61422   0.79352   0.00000  Uiso   1.00
C2665  C     0.63529   0.60513   0.87344   0.00000  Uiso   1.00
C2666  C     0.85562   0.88578   0.79352   0.00000  Uiso   1.00
C2667  C     0.59371   0.84304   0.83314   0.00000  Uiso   1.00
C2668  C     0.90629   0.65696   0.83314   0.00000  Uiso   1.00
C2669  C     0.90629   0.84304   0.83353   0.00000  Uiso   1.00
C2670  C     0.59371   0.65696   0.83353   0.00000  Uiso   1.00
C2671  C     0.84371   0.59304   0.83314   0.00000  Uiso   1.00
C2672  C     0.65629   0.90696   0.83314   0.00000  Uiso   1.00
C2673  C     0.65629   0.59304   0.83353   0.00000  Uiso   1.00
C2674  C     0.55992   0.81023   0.83328   0.00000  Uiso   1.00
C2675  C     0.84371   0.90696   0.83353   0.00000  Uiso   1.00
C2676  C     0.50980   0.82714   0.71361   0.00000  Uiso   1.00
C2677  C     0.50980   0.67286   0.95305   0.00000  Uiso   1.00
C2678  C     0.99020   0.67286   0.71361   0.00000  Uiso   1.00
C2679  C     0.99020   0.82714   0.95305   0.00000  Uiso   1.00
C2680  C     0.75980   0.57714   0.71361   0.00000  Uiso   1.00
C2681  C     0.75980   0.92286   0.95305   0.00000  Uiso   1.00
C2682  C     0.74020   0.92286   0.71361   0.00000  Uiso   1.00
C2683  C     0.74020   0.57714   0.95305   0.00000  Uiso   1.00
C2684  C     0.88256   0.67243   0.75142   0.00000  Uiso   1.00
C2685  C     0.80992   0.93977   0.83339   0.00000  Uiso   1.00
C2686  C     0.86866   0.71887   0.76073   0.00000  Uiso   1.00
C2687  C     0.88604   0.74927   0.72511   0.00000  Uiso   1.00
C2688  C     0.57372   0.87270   0.90980   0.00000  Uiso   1.00
C2689  C     0.58056   0.91482   0.93551   0.00000  Uiso   1.00
C2690  C     0.54499   0.92521   0.96773   0.00000  Uiso   1.00
C2691  C     0.61744   0.82757   0.75141   0.00000  Uiso   1.00
C2692  C     0.63134   0.78113   0.76072   0.00000  Uiso   1.00
C2693  C     0.61396   0.75074   0.72511   0.00000  Uiso   1.00
C2694  C     0.92628   0.62730   0.90980   0.00000  Uiso   1.00
C2695  C     0.91944   0.58518   0.93551   0.00000  Uiso   1.00
C2696  C     0.69008   0.56023   0.83339   0.00000  Uiso   1.00
C2697  C     0.95502   0.57478   0.96773   0.00000  Uiso   1.00
C2698  C     0.61744   0.67243   0.91525   0.00000  Uiso   1.00
C2699  C     0.63134   0.71887   0.90594   0.00000  Uiso   1.00
C2700  C     0.61396   0.74927   0.94155   0.00000  Uiso   1.00
C2701  C     0.92628   0.87270   0.75686   0.00000  Uiso   1.00
C2702  C     0.91944   0.91482   0.73116   0.00000  Uiso   1.00
C2703  C     0.95501   0.92521   0.69894   0.00000  Uiso   1.00
C2704  C     0.88256   0.82757   0.91525   0.00000  Uiso   1.00
C2705  C     0.86866   0.78113   0.90594   0.00000  Uiso   1.00
C2706  C     0.88604   0.75074   0.94156   0.00000  Uiso   1.00
C2707  C     0.69008   0.93977   0.83328   0.00000  Uiso   1.00
C2708  C     0.57372   0.62730   0.75686   0.00000  Uiso   1.00
C2709  C     0.58056   0.58518   0.73116   0.00000  Uiso   1.00
C2710  C     0.54498   0.57478   0.69894   0.00000  Uiso   1.00
C2711  C     0.63256   0.92243   0.75142   0.00000  Uiso   1.00
C2712  C     0.61866   0.96887   0.76073   0.00000  Uiso   1.00
C2713  C     0.63604   0.99927   0.72511   0.00000  Uiso   1.00
C2714  C     0.82372   0.62270   0.90980   0.00000  Uiso   1.00
C2715  C     0.83056   0.66482   0.93551   0.00000  Uiso   1.00
C2716  C     0.79499   0.67521   0.96773   0.00000  Uiso   1.00
C2717  C     0.86744   0.57757   0.75141   0.00000  Uiso   1.00
C2718  C     0.80992   0.56023   0.83328   0.00000  Uiso   1.00
C2719  C     0.88134   0.53113   0.76072   0.00000  Uiso   1.00
C2720  C     0.86396   0.50074   0.72510   0.00000  Uiso   1.00
C2721  C     0.67628   0.87730   0.90980   0.00000  Uiso   1.00
C2722  C     0.66944   0.83518   0.93551   0.00000  Uiso   1.00
C2723  C     0.70502   0.82478   0.96773   0.00000  Uiso   1.00
C2724  C     0.86744   0.92243   0.91525   0.00000  Uiso   1.00
C2725  C     0.88134   0.96887   0.90594   0.00000  Uiso   1.00
C2726  C     0.86396   0.99927   0.94155   0.00000  Uiso   1.00
C2727  C     0.67628   0.62270   0.75686   0.00000  Uiso   1.00
C2728  C     0.66944   0.66482   0.73116   0.00000  Uiso   1.00
C2729  C     0.50152   0.78762   0.69049   0.00000  Uiso   1.00
C2730  C     0.70501   0.67521   0.69894   0.00000  Uiso   1.00
C2731  C     0.63256   0.57757   0.91525   0.00000  Uiso   1.00
C2732  C     0.61866   0.53113   0.90594   0.00000  Uiso   1.00
C2733  C     0.63604   0.50074   0.94156   0.00000  Uiso   1.00
C2734  C     0.82372   0.87730   0.75686   0.00000  Uiso   1.00
C2735  C     0.83056   0.83518   0.73116   0.00000  Uiso   1.00
C2736  C     0.79498   0.82478   0.69894   0.00000  Uiso   1.00
H2737  H     0.89749   0.77899   0.74109   0.00000  Uiso   1.00
H2738  H     0.51604   0.93318   0.94891   0.00000  Uiso   1.00
H2739  H     0.66260   0.51423   0.96087   0.00000  Uiso   1.00
H2740  H     0.61073   0.99250   0.96501   0.00000  Uiso   1.00
H2741  H     0.58385   0.52953   0.90574   0.00000  Uiso   1.00
H2742  H     0.62877   0.51953   0.87257   0.00000  Uiso   1.00
H2743  H     0.66257   0.57889   0.93265   0.00000  Uiso   1.00
H2744  H     0.60953   0.59100   0.93947   0.00000  Uiso   1.00
H2745  H     0.78953   0.85241   0.67628   0.00000  Uiso   1.00
H2746  H     0.80321   0.79650   0.67801   0.00000  Uiso   1.00
H2747  H     0.76603   0.81681   0.71776   0.00000  Uiso   1.00
H2748  H     0.85958   0.83757   0.71101   0.00000  Uiso   1.00
H2749  H     0.60958   0.91243   0.95566   0.00000  Uiso   1.00
H2750  H     0.83270   0.80861   0.75592   0.00000  Uiso   1.00
H2751  H     0.79328   0.87366   0.77417   0.00000  Uiso   1.00
H2752  H     0.82235   0.90463   0.73310   0.00000  Uiso   1.00
H2753  H     0.58271   0.94139   0.91076   0.00000  Uiso   1.00
H2754  H     0.54328   0.87634   0.89250   0.00000  Uiso   1.00
H2755  H     0.57235   0.84537   0.93357   0.00000  Uiso   1.00
H2756  H     0.60251   0.72102   0.74108   0.00000  Uiso   1.00
H2757  H     0.58740   0.76423   0.70580   0.00000  Uiso   1.00
H2758  H     0.63927   0.74250   0.70166   0.00000  Uiso   1.00
H2759  H     0.66615   0.77953   0.76093   0.00000  Uiso   1.00
H2760  H     0.62123   0.76953   0.79410   0.00000  Uiso   1.00
H2761  H     0.91260   0.73578   0.70581   0.00000  Uiso   1.00
H2762  H     0.58743   0.82889   0.73402   0.00000  Uiso   1.00
H2763  H     0.64047   0.84100   0.72719   0.00000  Uiso   1.00
H2764  H     0.96047   0.60241   0.99038   0.00000  Uiso   1.00
H2765  H     0.94678   0.54650   0.98866   0.00000  Uiso   1.00
H2766  H     0.98397   0.56681   0.94891   0.00000  Uiso   1.00
H2767  H     0.89042   0.58757   0.95565   0.00000  Uiso   1.00
H2768  H     0.91729   0.55861   0.91075   0.00000  Uiso   1.00
H2769  H     0.95672   0.62366   0.89250   0.00000  Uiso   1.00
H2770  H     0.92765   0.65463   0.93357   0.00000  Uiso   1.00
H2771  H     0.60251   0.77899   0.92558   0.00000  Uiso   1.00
H2772  H     0.86074   0.75750   0.70166   0.00000  Uiso   1.00
H2773  H     0.58740   0.73578   0.96086   0.00000  Uiso   1.00
H2774  H     0.63926   0.75750   0.96500   0.00000  Uiso   1.00
H2775  H     0.66615   0.72047   0.90573   0.00000  Uiso   1.00
H2776  H     0.62124   0.73047   0.87256   0.00000  Uiso   1.00
H2777  H     0.58743   0.67111   0.93265   0.00000  Uiso   1.00
H2778  H     0.64047   0.65900   0.93947   0.00000  Uiso   1.00
H2779  H     0.96047   0.89759   0.67628   0.00000  Uiso   1.00
H2780  H     0.94678   0.95349   0.67800   0.00000  Uiso   1.00
H2781  H     0.98396   0.93319   0.71776   0.00000  Uiso   1.00
H2782  H     0.89042   0.91243   0.71101   0.00000  Uiso   1.00
H2783  H     0.83385   0.72047   0.76093   0.00000  Uiso   1.00
H2784  H     0.91729   0.94139   0.75591   0.00000  Uiso   1.00
H2785  H     0.95672   0.87634   0.77417   0.00000  Uiso   1.00
H2786  H     0.92765   0.84537   0.73310   0.00000  Uiso   1.00
H2787  H     0.89749   0.72102   0.92559   0.00000  Uiso   1.00
H2788  H     0.91259   0.76423   0.96087   0.00000  Uiso   1.00
H2789  H     0.86073   0.74250   0.96501   0.00000  Uiso   1.00
H2790  H     0.83385   0.77953   0.90574   0.00000  Uiso   1.00
H2791  H     0.87877   0.76953   0.87257   0.00000  Uiso   1.00
H2792  H     0.91257   0.82889   0.93265   0.00000  Uiso   1.00
H2793  H     0.85953   0.84100   0.93947   0.00000  Uiso   1.00
H2794  H     0.87876   0.73047   0.79411   0.00000  Uiso   1.00
H2795  H     0.53953   0.60241   0.67628   0.00000  Uiso   1.00
H2796  H     0.55322   0.54650   0.67801   0.00000  Uiso   1.00
H2797  H     0.51603   0.56681   0.71776   0.00000  Uiso   1.00
H2798  H     0.60958   0.58757   0.71101   0.00000  Uiso   1.00
H2799  H     0.58271   0.55861   0.75591   0.00000  Uiso   1.00
H2800  H     0.54328   0.62366   0.77417   0.00000  Uiso   1.00
H2801  H     0.57235   0.65463   0.73310   0.00000  Uiso   1.00
H2802  H     0.64749   0.52899   0.74109   0.00000  Uiso   1.00
H2803  H     0.66260   0.98578   0.70581   0.00000  Uiso   1.00
H2804  H     0.61073   0.50750   0.70166   0.00000  Uiso   1.00
H2805  H     0.91257   0.67111   0.73402   0.00000  Uiso   1.00
H2806  H     0.58385   0.97047   0.76093   0.00000  Uiso   1.00
H2807  H     0.62876   0.98047   0.79411   0.00000  Uiso   1.00
H2808  H     0.66257   0.92111   0.73402   0.00000  Uiso   1.00
H2809  H     0.60953   0.90900   0.72719   0.00000  Uiso   1.00
H2810  H     0.78953   0.64759   0.99038   0.00000  Uiso   1.00
H2811  H     0.80322   0.70349   0.98866   0.00000  Uiso   1.00
H2812  H     0.76604   0.68319   0.94891   0.00000  Uiso   1.00
H2813  H     0.85958   0.66243   0.95566   0.00000  Uiso   1.00
H2814  H     0.83271   0.69139   0.91076   0.00000  Uiso   1.00
H2815  H     0.79328   0.62634   0.89250   0.00000  Uiso   1.00
H2816  H     0.85953   0.65900   0.72719   0.00000  Uiso   1.00
H2817  H     0.82235   0.59537   0.93357   0.00000  Uiso   1.00
H2818  H     0.85251   0.97102   0.74108   0.00000  Uiso   1.00
H2819  H     0.83740   0.51423   0.70580   0.00000  Uiso   1.00
H2820  H     0.88927   0.99250   0.70166   0.00000  Uiso   1.00
H2821  H     0.91615   0.52953   0.76093   0.00000  Uiso   1.00
H2822  H     0.87123   0.51953   0.79410   0.00000  Uiso   1.00
H2823  H     0.83743   0.57889   0.73402   0.00000  Uiso   1.00
H2824  H     0.89047   0.59100   0.72719   0.00000  Uiso   1.00
H2825  H     0.71047   0.85241   0.99038   0.00000  Uiso   1.00
H2826  H     0.69678   0.79650   0.98866   0.00000  Uiso   1.00
H2827  H     0.53953   0.89759   0.99038   0.00000  Uiso   1.00
H2828  H     0.73397   0.81681   0.94891   0.00000  Uiso   1.00
H2829  H     0.64042   0.83757   0.95565   0.00000  Uiso   1.00
H2830  H     0.66729   0.80861   0.91075   0.00000  Uiso   1.00
H2831  H     0.70672   0.87366   0.89250   0.00000  Uiso   1.00
H2832  H     0.67765   0.90463   0.93357   0.00000  Uiso   1.00
H2833  H     0.85251   0.52899   0.92558   0.00000  Uiso   1.00
H2834  H     0.83740   0.98578   0.96086   0.00000  Uiso   1.00
H2835  H     0.88926   0.50750   0.96500   0.00000  Uiso   1.00
H2836  H     0.91615   0.97047   0.90573   0.00000  Uiso   1.00
H2837  H     0.87124   0.98047   0.87256   0.00000  Uiso   1.00
H2838  H     0.55322   0.95349   0.98866   0.00000  Uiso   1.00
H2839  H     0.83743   0.92111   0.93265   0.00000  Uiso   1.00
H2840  H     0.89047   0.90900   0.93947   0.00000  Uiso   1.00
H2841  H     0.71047   0.64759   0.67628   0.00000  Uiso   1.00
H2842  H     0.69678   0.70349   0.67800   0.00000  Uiso   1.00
H2843  H     0.73396   0.68319   0.71776   0.00000  Uiso   1.00
H2844  H     0.64042   0.66243   0.71101   0.00000  Uiso   1.00
H2845  H     0.66729   0.69139   0.75591   0.00000  Uiso   1.00
H2846  H     0.70672   0.62634   0.77417   0.00000  Uiso   1.00
H2847  H     0.67765   0.59537   0.73310   0.00000  Uiso   1.00
H2848  H     0.64749   0.97102   0.92559   0.00000  Uiso   1.00
N2849  N     0.50000   0.75000   0.95240   0.00000  Uiso   1.00
N2850  N     0.76790   0.89107   0.93486   0.00000  Uiso   1.00
N2851  N     0.73210   0.89107   0.73181   0.00000  Uiso   1.00
N2852  N     0.73210   0.60893   0.93486   0.00000  Uiso   1.00
N2853  N     0.50000   0.75000   0.71427   0.00000  Uiso   1.00
N2854  N     0.75000   0.50000   0.95240   0.00000  Uiso   1.00
N2855  N     0.75000   0.50000   0.71427   0.00000  Uiso   1.00
N2856  N     0.51790   0.85893   0.73181   0.00000  Uiso   1.00
N2857  N     0.51790   0.64107   0.93486   0.00000  Uiso   1.00
N2858  N     0.98210   0.64107   0.73181   0.00000  Uiso   1.00
N2859  N     0.98210   0.85893   0.93486   0.00000  Uiso   1.00
N2860  N     0.76790   0.60893   0.73181   0.00000  Uiso   1.00
O2861  O     0.54580   0.70419   0.87154   0.00000  Uiso   1.00
O2862  O     0.70419   0.54581   0.79513   0.00000  Uiso   1.00
O2863  O     0.70419   0.54581   0.87154   0.00000  Uiso   1.00
O2864  O     0.79580   0.95419   0.79513   0.00000  Uiso   1.00
O2865  O     0.70419   0.95419   0.79513   0.00000  Uiso   1.00
O2866  O     0.79580   0.54581   0.87154   0.00000  Uiso   1.00
O2867  O     0.79580   0.54581   0.79513   0.00000  Uiso   1.00
O2868  O     0.70419   0.95419   0.87154   0.00000  Uiso   1.00
O2869  O     0.95419   0.79581   0.79513   0.00000  Uiso   1.00
O2870  O     0.95419   0.79581   0.87154   0.00000  Uiso   1.00
O2871  O     0.54580   0.70419   0.79513   0.00000  Uiso   1.00
O2872  O     0.95419   0.70419   0.79513   0.00000  Uiso   1.00
O2873  O     0.54580   0.79581   0.87154   0.00000  Uiso   1.00
O2874  O     0.54580   0.79581   0.79513   0.00000  Uiso   1.00
O2875  O     0.95419   0.70419   0.87154   0.00000  Uiso   1.00
O2876  O     0.79580   0.95419   0.87154   0.00000  Uiso   1.00
Zn2877 Zn    0.50000   0.75000   0.88437   0.00000  Uiso   1.00
Zn2878 Zn    0.50000   0.75000   0.78229   0.00000  Uiso   1.00
Zn2879 Zn    0.75000   0.50000   0.88437   0.00000  Uiso   1.00
Zn2880 Zn    0.75000   0.50000   0.78229   0.00000  Uiso   1.00
loop_
_geom_bond_atom_site_label_1
_geom_bond_atom_site_label_2
_geom_bond_distance
_geom_bond_site_symmetry_2
_ccdc_geom_bond_type
C1     O221    1.305   .     A
C1     O231    1.307   .     A
C1     C30     1.484   .     S
C2     N209    1.368   .     A
C2     C37     1.432   .     S
C2     C1203   1.426   1_455 S
C3     C38     1.432   .     S
C3     N453    1.368   .     A
C3     C2162   1.426   1_554 S
C4     C39     1.432   .     S
C4     C1289   1.426   .     S
C4     N449    1.368   .     S
C5     N215    1.368   .     A
C5     C40     1.432   .     S
C5     C1928   1.426   1_554 S
C6     C41     1.432   .     S
C6     C967    1.426   .     S
C6     N694    1.368   .     S
C7     C42     1.432   .     S
C7     C1926   1.426   1_554 S
C7     N695    1.368   .     S
C8     N214    1.368   .     A
C8     C43     1.432   .     S
C8     C965    1.426   .     S
C9     C20     1.398   .     A
C9     C44     1.516   .     S
C9     C28     1.418   .     A
C10    C27     1.416   .     A
C10    C21     1.407   .     A
C10    C48     1.518   .     S
C11    C18     1.398   .     A
C11    C27     1.418   .     A
C11    C51     1.516   .     S
C12    C29     1.484   .     S
C12    O229    1.307   .     A
C12    O230    1.305   .     A
C13    C19     1.407   .     A
C13    C28     1.416   .     A
C13    C54     1.518   .     S
C14    C58     1.516   .     S
C14    C30     1.418   .     A
C14    C25     1.398   .     A
C15    C29     1.416   .     A
C15    C61     1.518   .     S
C15    C26     1.407   .     A
C16    C29     1.418   .     A
C16    C22     1.398   .     A
C16    C64     1.516   .     S
C17    C30     1.416   .     A
C17    C24     1.407   .     A
C17    C68     1.518   .     S
C18    C32     1.418   .     A
C18    C71     1.516   .     S
C19    C31     1.416   .     A
C19    C74     1.518   .     S
C20    C77     1.516   .     S
C20    C31     1.418   .     A
C21    C32     1.416   .     A
C21    C81     1.518   .     S
C22    C35     1.418   .     A
C22    C84     1.516   .     S
C23    O232    1.305   .     A
C23    O235    1.307   .     A
C23    C28     1.484   .     S
C24    C33     1.416   .     A
C24    C87     1.518   .     S
C25    C91     1.516   .     S
C25    C33     1.418   .     A
C26    C94     1.518   .     S
C26    C35     1.416   .     A
C27    C34     1.484   .     S
C31    C78     1.484   .     S
C32    C67     1.484   .     S
C33    C56     1.484   .     S
C34    O234    1.305   .     A
C34    O233    1.307   .     A
C35    C45     1.484   .     S
C36    C89     1.432   .     S
C36    N216    1.156   .     T
C37    N217    1.156   .     T
C38    N218    1.156   .     T
C39    N219    1.156   .     T
C40    N220    1.156   .     T
C41    N210    1.156   .     T
C42    N211    1.156   .     T
C43    N212    1.156   .     T
C44    C46     1.533   .     S
C44    H176    1.113   .     S
C44    H165    1.091   .     S
C45    O236    1.305   .     A
C45    O224    1.307   .     A
C46    H154    1.108   .     S
C46    C47     1.526   .     S
C46    H143    1.113   .     S
C47    H121    1.108   .     S
C47    H97     1.101   .     S
C47    H132    1.099   .     S
C48    H115    1.107   .     S
C48    C49     1.532   .     S
C48    H114    1.106   .     S
C49    H113    1.110   .     S
C49    H109    1.107   .     S
C49    C50     1.523   .     S
C50    H198    1.109   .     S
C50    H187    1.106   .     S
C50    H98     1.110   .     S
C51    H123    1.113   .     S
C51    C52     1.533   .     S
C51    H122    1.091   .     S
C52    H120    1.108   .     S
C52    C53     1.526   .     S
C52    H119    1.113   .     S
C53    H117    1.108   .     S
C53    H116    1.101   .     S
C53    H118    1.099   .     S
C54    C55     1.532   .     S
C54    H130    1.107   .     S
C54    H129    1.106   .     S
C55    H127    1.107   .     S
C55    C57     1.523   .     S
C55    H128    1.110   .     S
C56    O223    1.305   .     A
C56    O222    1.307   .     A
C57    H125    1.109   .     S
C57    H126    1.110   .     S
C57    H124    1.106   .     S
C58    H138    1.113   .     S
C58    H137    1.091   .     S
C58    C59     1.533   .     S
C59    H136    1.108   .     S
C59    C60     1.526   .     S
C59    H135    1.113   .     S
C60    H131    1.101   .     S
C60    H134    1.099   .     S
C60    H133    1.108   .     S
C61    C62     1.532   .     S
C61    H145    1.107   .     S
C61    H146    1.107   .     S
C62    H142    1.107   .     S
C62    H144    1.110   .     S
C62    C63     1.523   .     S
C63    H140    1.109   .     S
C63    H141    1.110   .     S
C63    H139    1.106   .     S
C64    H152    1.091   .     S
C64    H153    1.113   .     S
C64    C65     1.533   .     S
C65    H150    1.113   .     S
C65    H151    1.108   .     S
C65    C66     1.526   .     S
C66    H149    1.099   .     S
C66    H148    1.108   .     S
C66    H147    1.101   .     S
C67    O225    1.305   .     A
C67    O228    1.307   .     A
C68    H161    1.107   .     S
C68    C69     1.532   .     S
C68    H160    1.107   .     S
C69    C70     1.523   .     S
C69    H158    1.107   .     S
C69    H159    1.110   .     S
C70    H156    1.109   .     S
C70    H155    1.106   .     S
C70    H157    1.110   .     S
C71    H169    1.113   .     S
C71    H168    1.091   .     S
C71    C72     1.533   .     S
C72    H166    1.113   .     S
C72    H167    1.108   .     S
C72    C73     1.526   .     S
C73    H163    1.108   .     S
C73    H642    1.101   .     S
C73    H644    1.099   .     S
C74    C75     1.532   .     S
C74    H175    1.107   .     S
C74    H177    1.107   .     S
C75    H173    1.107   .     S
C75    C76     1.523   .     S
C75    H174    1.110   .     S
C76    H172    1.110   .     S
C76    H171    1.109   .     S
C76    H170    1.106   .     S
C77    H184    1.113   .     S
C77    H183    1.091   .     S
C77    C79     1.533   .     S
C78    O226    1.307   .     A
C78    O227    1.305   .     A
C79    H182    1.108   .     S
C79    C80     1.526   .     S
C79    H181    1.113   .     S
C80    H179    1.108   .     S
C80    H658    1.101   1_545 S
C80    H660    1.099   1_545 S
C81    C82     1.532   .     S
C81    H192    1.107   .     S
C81    H191    1.107   .     S
C82    C83     1.523   .     S
C82    H189    1.107   .     S
C82    H190    1.110   .     S
C83    H186    1.109   .     S
C83    H188    1.110   .     S
C83    H185    1.106   .     S
C84    H200    1.113   .     S
C84    H199    1.091   .     S
C84    C85     1.533   .     S
C85    C86     1.526   .     S
C85    H197    1.108   .     S
C85    H196    1.113   .     S
C86    H194    1.108   .     S
C86    H673    1.101   .     S
C86    H675    1.099   .     S
C87    C88     1.532   .     S
C87    H206    1.107   .     S
C87    H207    1.107   .     S
C88    H204    1.107   .     S
C88    H205    1.110   .     S
C88    C90     1.523   .     S
C89    C2164   1.426   1_454 S
C89    N213    1.368   .     S
C90    H201    1.106   .     S
C90    H203    1.110   .     S
C90    H202    1.109   .     S
C91    H104    1.113   .     S
C91    C92     1.533   .     S
C91    H103    1.091   .     S
C92    H102    1.108   .     S
C92    C93     1.526   .     S
C92    H101    1.113   .     S
C93    H99     1.108   .     S
C93    H580    1.099   1_545 S
C93    H688    1.101   1_545 S
C94    H112    1.107   .     S
C94    H111    1.106   .     S
C94    C95     1.532   .     S
C95    C96     1.523   .     S
C95    H110    1.110   .     S
C95    H108    1.107   .     S
C96    H105    1.106   .     S
C96    H107    1.110   .     S
C96    H106    1.109   .     S
H100   C573    1.099   .     S
H162   C553    1.101   1_545 S
H164   C553    1.099   1_545 S
H178   C560    1.101   .     S
H180   C560    1.099   .     S
H193   C566    1.101   1_545 S
H195   C566    1.099   1_545 S
H208   C573    1.101   .     S
N209   C244    1.368   1_455 S
N209   Zn237   2.032   .     S
N213   C243    1.368   1_455 A
N213   Zn238   2.032   .     S
N214   Zn239   2.032   .     S
N214   C486    1.368   1_545 S
N215   Zn240   2.032   .     S
N215   C487    1.368   1_545 S
O221   Zn237   2.075   .     S
O222   Zn240   2.075   .     S
O223   Zn239   2.075   .     S
O224   Zn720   2.075   .     S
O225   Zn720   2.075   .     S
O226   Zn239   2.075   .     S
O227   Zn240   2.075   .     S
O228   Zn719   2.075   .     S
O229   Zn478   2.075   .     S
O230   Zn477   2.075   .     S
O231   Zn238   2.075   .     S
O232   Zn478   2.075   .     S
O233   Zn237   2.075   .     S
O234   Zn238   2.075   .     S
O235   Zn477   2.075   .     S
O236   Zn719   2.075   .     S
Zn237  O475    2.075   1_455 S
Zn237  O470    2.075   1_455 S
Zn238  O472    2.075   1_455 S
Zn238  O469    2.075   1_455 S
Zn239  O708    2.075   1_545 S
Zn239  O716    2.075   1_545 S
Zn240  O705    2.075   1_545 S
Zn240  O704    2.075   1_545 S
C241   O461    1.305   .     A
C241   O471    1.307   .     A
C241   C270    1.484   .     S
C242   N449    1.368   .     A
C242   C277    1.432   .     S
C242   C963    1.426   .     S
C243   C278    1.432   .     S
C243   N213    1.368   1_655 A
C243   C1922   1.426   1_654 S
C244   C279    1.432   .     S
C244   C1049   1.426   1_655 S
C244   N209    1.368   1_655 S
C245   N455    1.368   .     A
C245   C280    1.432   .     S
C245   C2168   1.426   1_554 S
C246   C281    1.432   .     S
C246   C1207   1.426   .     S
C246   N934    1.368   .     S
C247   C282    1.432   .     S
C247   C2166   1.426   1_554 S
C247   N935    1.368   .     S
C248   N454    1.368   .     A
C248   C283    1.432   .     S
C248   C1205   1.426   .     S
C249   C260    1.398   .     A
C249   C284    1.516   .     S
C249   C268    1.418   .     A
C250   C267    1.416   .     A
C250   C261    1.407   .     A
C250   C288    1.518   .     S
C251   C258    1.398   .     A
C251   C267    1.418   .     A
C251   C291    1.516   .     S
C252   C269    1.484   .     S
C252   O469    1.307   .     A
C252   O470    1.305   .     A
C253   C259    1.407   .     A
C253   C268    1.416   .     A
C253   C294    1.518   .     S
C254   C298    1.516   .     S
C254   C270    1.418   .     A
C254   C265    1.398   .     A
C255   C269    1.416   .     A
C255   C301    1.518   .     S
C255   C266    1.407   .     A
C256   C269    1.418   .     A
C256   C262    1.398   .     A
C256   C304    1.516   .     S
C257   C270    1.416   .     A
C257   C264    1.407   .     A
C257   C308    1.518   .     S
C258   C272    1.418   .     A
C258   C311    1.516   .     S
C259   C271    1.416   .     A
C259   C314    1.518   .     S
C260   C317    1.516   .     S
C260   C271    1.418   .     A
C261   C272    1.416   .     A
C261   C321    1.518   .     S
C262   C275    1.418   .     A
C262   C324    1.516   .     S
C263   O472    1.305   .     A
C263   O475    1.307   .     A
C263   C268    1.484   .     S
C264   C273    1.416   .     A
C264   C327    1.518   .     S
C265   C331    1.516   .     S
C265   C273    1.418   .     A
C266   C334    1.518   .     S
C266   C275    1.416   .     A
C267   C274    1.484   .     S
C271   C318    1.484   .     S
C272   C307    1.484   .     S
C273   C296    1.484   .     S
C274   O474    1.305   .     A
C274   O473    1.307   .     A
C275   C285    1.484   .     S
C276   C329    1.432   .     S
C276   N456    1.156   .     T
C277   N457    1.156   .     T
C278   N458    1.156   .     T
C279   N459    1.156   .     T
C280   N460    1.156   .     T
C281   N450    1.156   .     T
C282   N451    1.156   .     T
C283   N452    1.156   .     T
C284   C286    1.533   .     S
C284   H416    1.113   .     S
C284   H405    1.091   .     S
C285   O476    1.305   .     A
C285   O464    1.307   .     A
C286   H394    1.108   .     S
C286   C287    1.526   .     S
C286   H383    1.113   .     S
C287   H361    1.108   .     S
C287   H337    1.101   .     S
C287   H372    1.099   .     S
C288   H355    1.107   .     S
C288   C289    1.532   .     S
C288   H354    1.106   .     S
C289   H353    1.110   .     S
C289   H349    1.107   .     S
C289   C290    1.523   .     S
C290   H438    1.109   .     S
C290   H427    1.106   .     S
C290   H338    1.110   .     S
C291   H363    1.113   .     S
C291   C292    1.533   .     S
C291   H362    1.091   .     S
C292   H360    1.108   .     S
C292   C293    1.526   .     S
C292   H359    1.113   .     S
C293   H357    1.108   .     S
C293   H356    1.101   .     S
C293   H358    1.099   .     S
C294   C295    1.532   .     S
C294   H370    1.107   .     S
C294   H369    1.106   .     S
C295   H367    1.107   .     S
C295   C297    1.523   .     S
C295   H368    1.110   .     S
C296   O463    1.305   .     A
C296   O462    1.307   .     A
C297   H365    1.109   .     S
C297   H366    1.110   .     S
C297   H364    1.106   .     S
C298   H378    1.113   .     S
C298   H377    1.091   .     S
C298   C299    1.533   .     S
C299   H376    1.108   .     S
C299   C300    1.526   .     S
C299   H375    1.113   .     S
C300   H371    1.101   .     S
C300   H374    1.099   .     S
C300   H373    1.108   .     S
C301   C302    1.532   .     S
C301   H385    1.107   .     S
C301   H386    1.107   .     S
C302   H382    1.107   .     S
C302   H384    1.110   .     S
C302   C303    1.523   .     S
C303   H380    1.109   .     S
C303   H381    1.110   .     S
C303   H379    1.106   .     S
C304   H392    1.091   .     S
C304   H393    1.113   .     S
C304   C305    1.533   .     S
C305   H390    1.113   .     S
C305   H391    1.108   .     S
C305   C306    1.526   .     S
C306   H389    1.099   .     S
C306   H388    1.108   .     S
C306   H387    1.101   .     S
C307   O465    1.305   .     A
C307   O468    1.307   .     A
C308   H401    1.107   .     S
C308   C309    1.532   .     S
C308   H400    1.107   .     S
C309   C310    1.523   .     S
C309   H398    1.107   .     S
C309   H399    1.110   .     S
C310   H396    1.109   .     S
C310   H395    1.106   .     S
C310   H397    1.110   .     S
C311   H409    1.113   .     S
C311   H408    1.091   .     S
C311   C312    1.533   .     S
C312   H406    1.113   .     S
C312   H407    1.108   .     S
C312   C313    1.526   .     S
C313   H403    1.108   .     S
C313   H882    1.101   .     S
C313   H884    1.099   .     S
C314   C315    1.532   .     S
C314   H415    1.107   .     S
C314   H417    1.107   .     S
C315   H413    1.107   .     S
C315   C316    1.523   .     S
C315   H414    1.110   .     S
C316   H412    1.110   .     S
C316   H411    1.109   .     S
C316   H410    1.106   .     S
C317   H424    1.113   .     S
C317   H423    1.091   .     S
C317   C319    1.533   .     S
C318   O466    1.307   .     A
C318   O467    1.305   .     A
C319   H422    1.108   .     S
C319   C320    1.526   .     S
C319   H421    1.113   .     S
C320   H419    1.108   .     S
C320   H898    1.101   1_545 S
C320   H900    1.099   1_545 S
C321   C322    1.532   .     S
C321   H432    1.107   .     S
C321   H431    1.107   .     S
C322   C323    1.523   .     S
C322   H429    1.107   .     S
C322   H430    1.110   .     S
C323   H426    1.109   .     S
C323   H428    1.110   .     S
C323   H425    1.106   .     S
C324   H440    1.113   .     S
C324   H439    1.091   .     S
C324   C325    1.533   .     S
C325   C326    1.526   .     S
C325   H437    1.108   .     S
C325   H436    1.113   .     S
C326   H434    1.108   .     S
C326   H913    1.101   .     S
C326   H915    1.099   .     S
C327   C328    1.532   .     S
C327   H446    1.107   .     S
C327   H447    1.107   .     S
C328   H444    1.107   .     S
C328   H445    1.110   .     S
C328   C330    1.523   .     S
C329   C1924   1.426   1_554 S
C329   N453    1.368   .     S
C330   H441    1.106   .     S
C330   H443    1.110   .     S
C330   H442    1.109   .     S
C331   H344    1.113   .     S
C331   C332    1.533   .     S
C331   H343    1.091   .     S
C332   H342    1.108   .     S
C332   C333    1.526   .     S
C332   H341    1.113   .     S
C333   H339    1.108   .     S
C333   H820    1.099   1_545 S
C333   H928    1.101   1_545 S
C334   H352    1.107   .     S
C334   H351    1.106   .     S
C334   C335    1.532   .     S
C335   C336    1.523   .     S
C335   H350    1.110   .     S
C335   H348    1.107   .     S
C336   H345    1.106   .     S
C336   H347    1.110   .     S
C336   H346    1.109   .     S
H340   C813    1.099   .     S
H402   C793    1.101   1_545 S
H404   C793    1.099   1_545 S
H418   C800    1.101   .     S
H420   C800    1.099   .     S
H433   C806    1.101   1_545 S
H435   C806    1.099   1_545 S
H448   C813    1.101   .     S
N449   Zn477   2.032   .     S
N453   Zn478   2.032   .     S
N454   Zn479   2.032   .     S
N454   C726    1.368   1_545 S
N455   Zn480   2.032   .     S
N455   C727    1.368   1_545 S
O461   Zn477   2.075   .     S
O462   Zn480   2.075   .     S
O463   Zn479   2.075   .     S
O464   Zn960   2.075   .     S
O465   Zn960   2.075   .     S
O466   Zn479   2.075   .     S
O467   Zn480   2.075   .     S
O468   Zn959   2.075   .     S
O469   Zn238   2.075   1_655 S
O470   Zn237   2.075   1_655 S
O471   Zn478   2.075   .     S
O472   Zn238   2.075   1_655 S
O473   Zn477   2.075   .     S
O474   Zn478   2.075   .     S
O475   Zn237   2.075   1_655 S
O476   Zn959   2.075   .     S
Zn479  O948    2.075   1_545 S
Zn479  O956    2.075   1_545 S
Zn480  O945    2.075   1_545 S
Zn480  O944    2.075   1_545 S
C481   O701    1.305   .     A
C481   O711    1.307   .     A
C481   C510    1.484   .     S
C482   N689    1.368   .     A
C482   C517    1.432   .     S
C482   C1683   1.426   1_455 S
C483   C518    1.432   .     S
C483   N933    1.368   .     A
C483   C2642   1.426   1_554 S
C484   C519    1.432   .     S
C484   C1769   1.426   .     S
C484   N929    1.368   .     S
C485   N695    1.368   .     A
C485   C520    1.432   .     S
C485   C2408   1.426   1_554 S
C486   C521    1.432   .     S
C486   C1447   1.426   .     S
C486   N214    1.368   1_565 S
C487   C522    1.432   .     S
C487   C2406   1.426   1_554 S
C487   N215    1.368   1_565 S
C488   N694    1.368   .     A
C488   C523    1.432   .     S
C488   C1445   1.426   .     S
C489   C500    1.398   .     A
C489   C524    1.516   .     S
C489   C508    1.418   .     A
C490   C507    1.416   .     A
C490   C501    1.407   .     A
C490   C528    1.518   .     S
C491   C498    1.398   .     A
C491   C507    1.418   .     A
C491   C531    1.516   .     S
C492   C509    1.484   .     S
C492   O709    1.307   .     A
C492   O710    1.305   .     A
C493   C499    1.407   .     A
C493   C508    1.416   .     A
C493   C534    1.518   .     S
C494   C538    1.516   .     S
C494   C510    1.418   .     A
C494   C505    1.398   .     A
C495   C509    1.416   .     A
C495   C541    1.518   .     S
C495   C506    1.407   .     A
C496   C509    1.418   .     A
C496   C502    1.398   .     A
C496   C544    1.516   .     S
C497   C510    1.416   .     A
C497   C504    1.407   .     A
C497   C548    1.518   .     S
C498   C512    1.418   .     A
C498   C551    1.516   .     S
C499   C511    1.416   .     A
C499   C554    1.518   .     S
C500   C557    1.516   .     S
C500   C511    1.418   .     A
C501   C512    1.416   .     A
C501   C561    1.518   .     S
C502   C515    1.418   .     A
C502   C564    1.516   .     S
C503   O712    1.305   .     A
C503   O715    1.307   .     A
C503   C508    1.484   .     S
C504   C513    1.416   .     A
C504   C567    1.518   .     S
C505   C571    1.516   .     S
C505   C513    1.418   .     A
C506   C574    1.518   .     S
C506   C515    1.416   .     A
C507   C514    1.484   .     S
C511   C558    1.484   .     S
C512   C547    1.484   .     S
C513   C536    1.484   .     S
C514   O714    1.305   .     A
C514   O713    1.307   .     A
C515   C525    1.484   .     S
C516   C569    1.432   .     S
C516   N696    1.156   .     T
C517   N697    1.156   .     T
C518   N698    1.156   .     T
C519   N699    1.156   .     T
C520   N700    1.156   .     T
C521   N690    1.156   .     T
C522   N691    1.156   .     T
C523   N692    1.156   .     T
C524   C526    1.533   .     S
C524   H656    1.113   .     S
C524   H645    1.091   .     S
C525   O716    1.305   .     A
C525   O704    1.307   .     A
C526   H634    1.108   .     S
C526   C527    1.526   .     S
C526   H623    1.113   .     S
C527   H601    1.108   .     S
C527   H577    1.101   .     S
C527   H612    1.099   .     S
C528   H595    1.107   .     S
C528   C529    1.532   .     S
C528   H594    1.106   .     S
C529   H593    1.110   .     S
C529   H589    1.107   .     S
C529   C530    1.523   .     S
C530   H678    1.109   .     S
C530   H667    1.106   .     S
C530   H578    1.110   .     S
C531   H603    1.113   .     S
C531   C532    1.533   .     S
C531   H602    1.091   .     S
C532   H600    1.108   .     S
C532   C533    1.526   .     S
C532   H599    1.113   .     S
C533   H597    1.108   .     S
C533   H596    1.101   .     S
C533   H598    1.099   .     S
C534   C535    1.532   .     S
C534   H610    1.107   .     S
C534   H609    1.106   .     S
C535   H607    1.107   .     S
C535   C537    1.523   .     S
C535   H608    1.110   .     S
C536   O703    1.305   .     A
C536   O702    1.307   .     A
C537   H605    1.109   .     S
C537   H606    1.110   .     S
C537   H604    1.106   .     S
C538   H618    1.113   .     S
C538   H617    1.091   .     S
C538   C539    1.533   .     S
C539   H616    1.108   .     S
C539   C540    1.526   .     S
C539   H615    1.113   .     S
C540   H611    1.101   .     S
C540   H614    1.099   .     S
C540   H613    1.108   .     S
C541   C542    1.532   .     S
C541   H625    1.107   .     S
C541   H626    1.107   .     S
C542   H622    1.107   .     S
C542   H624    1.110   .     S
C542   C543    1.523   .     S
C543   H620    1.109   .     S
C543   H621    1.110   .     S
C543   H619    1.106   .     S
C544   H632    1.091   .     S
C544   H633    1.113   .     S
C544   C545    1.533   .     S
C545   H630    1.113   .     S
C545   H631    1.108   .     S
C545   C546    1.526   .     S
C546   H629    1.099   .     S
C546   H628    1.108   .     S
C546   H627    1.101   .     S
C547   O705    1.305   .     A
C547   O708    1.307   .     A
C548   H641    1.107   .     S
C548   C549    1.532   .     S
C548   H640    1.107   .     S
C549   C550    1.523   .     S
C549   H638    1.107   .     S
C549   H639    1.110   .     S
C550   H636    1.109   .     S
C550   H635    1.106   .     S
C550   H637    1.110   .     S
C551   H649    1.113   .     S
C551   H648    1.091   .     S
C551   C552    1.533   .     S
C552   H646    1.113   .     S
C552   H647    1.108   .     S
C552   C553    1.526   .     S
C553   H643    1.108   .     S
C553   H162    1.101   1_565 S
C553   H164    1.099   1_565 S
C554   C555    1.532   .     S
C554   H655    1.107   .     S
C554   H657    1.107   .     S
C555   H653    1.107   .     S
C555   C556    1.523   .     S
C555   H654    1.110   .     S
C556   H652    1.110   .     S
C556   H651    1.109   .     S
C556   H650    1.106   .     S
C557   H664    1.113   .     S
C557   H663    1.091   .     S
C557   C559    1.533   .     S
C558   O706    1.307   .     A
C558   O707    1.305   .     A
C559   H662    1.108   .     S
C559   C560    1.526   .     S
C559   H661    1.113   .     S
C560   H659    1.108   .     S
C561   C562    1.532   .     S
C561   H672    1.107   .     S
C561   H671    1.107   .     S
C562   C563    1.523   .     S
C562   H669    1.107   .     S
C562   H670    1.110   .     S
C563   H666    1.109   .     S
C563   H668    1.110   .     S
C563   H665    1.106   .     S
C564   H680    1.113   .     S
C564   H679    1.091   .     S
C564   C565    1.533   .     S
C565   C566    1.526   .     S
C565   H677    1.108   .     S
C565   H676    1.113   .     S
C566   H674    1.108   .     S
C566   H193    1.101   1_565 S
C566   H195    1.099   1_565 S
C567   C568    1.532   .     S
C567   H686    1.107   .     S
C567   H687    1.107   .     S
C568   H684    1.107   .     S
C568   H685    1.110   .     S
C568   C570    1.523   .     S
C569   C2644   1.426   1_454 S
C569   N693    1.368   .     S
C570   H681    1.106   .     S
C570   H683    1.110   .     S
C570   H682    1.109   .     S
C571   H584    1.113   .     S
C571   C572    1.533   .     S
C571   H583    1.091   .     S
C572   H582    1.108   .     S
C572   C573    1.526   .     S
C572   H581    1.113   .     S
C573   H579    1.108   .     S
C574   H592    1.107   .     S
C574   H591    1.106   .     S
C574   C575    1.532   .     S
C575   C576    1.523   .     S
C575   H590    1.110   .     S
C575   H588    1.107   .     S
C576   H585    1.106   .     S
C576   H587    1.110   .     S
C576   H586    1.109   .     S
H580   C93     1.099   1_565 S
H658   C80     1.101   1_565 S
H660   C80     1.099   1_565 S
H688   C93     1.101   1_565 S
N689   C724    1.368   1_455 S
N689   Zn717   2.032   .     S
N693   C723    1.368   1_455 A
N693   Zn718   2.032   .     S
N694   Zn719   2.032   .     S
N695   Zn720   2.032   .     S
O701   Zn717   2.075   .     S
O702   Zn720   2.075   .     S
O703   Zn719   2.075   .     S
O704   Zn240   2.075   1_565 S
O705   Zn240   2.075   1_565 S
O706   Zn719   2.075   .     S
O707   Zn720   2.075   .     S
O708   Zn239   2.075   1_565 S
O709   Zn958   2.075   .     S
O710   Zn957   2.075   .     S
O711   Zn718   2.075   .     S
O712   Zn958   2.075   .     S
O713   Zn717   2.075   .     S
O714   Zn718   2.075   .     S
O715   Zn957   2.075   .     S
O716   Zn239   2.075   1_565 S
Zn717  O955    2.075   1_455 S
Zn717  O950    2.075   1_455 S
Zn718  O952    2.075   1_455 S
Zn718  O949    2.075   1_455 S
C721   O941    1.305   .     A
C721   O951    1.307   .     A
C721   C750    1.484   .     S
C722   N929    1.368   .     A
C722   C757    1.432   .     S
C722   C1443   1.426   .     S
C723   C758    1.432   .     S
C723   N693    1.368   1_655 A
C723   C2402   1.426   1_654 S
C724   C759    1.432   .     S
C724   C1529   1.426   1_655 S
C724   N689    1.368   1_655 S
C725   N935    1.368   .     A
C725   C760    1.432   .     S
C725   C2648   1.426   1_554 S
C726   C761    1.432   .     S
C726   C1687   1.426   .     S
C726   N454    1.368   1_565 S
C727   C762    1.432   .     S
C727   C2646   1.426   1_554 S
C727   N455    1.368   1_565 S
C728   N934    1.368   .     A
C728   C763    1.432   .     S
C728   C1685   1.426   .     S
C729   C740    1.398   .     A
C729   C764    1.516   .     S
C729   C748    1.418   .     A
C730   C747    1.416   .     A
C730   C741    1.407   .     A
C730   C768    1.518   .     S
C731   C738    1.398   .     A
C731   C747    1.418   .     A
C731   C771    1.516   .     S
C732   C749    1.484   .     S
C732   O949    1.307   .     A
C732   O950    1.305   .     A
C733   C739    1.407   .     A
C733   C748    1.416   .     A
C733   C774    1.518   .     S
C734   C778    1.516   .     S
C734   C750    1.418   .     A
C734   C745    1.398   .     A
C735   C749    1.416   .     A
C735   C781    1.518   .     S
C735   C746    1.407   .     A
C736   C749    1.418   .     A
C736   C742    1.398   .     A
C736   C784    1.516   .     S
C737   C750    1.416   .     A
C737   C744    1.407   .     A
C737   C788    1.518   .     S
C738   C752    1.418   .     A
C738   C791    1.516   .     S
C739   C751    1.416   .     A
C739   C794    1.518   .     S
C740   C797    1.516   .     S
C740   C751    1.418   .     A
C741   C752    1.416   .     A
C741   C801    1.518   .     S
C742   C755    1.418   .     A
C742   C804    1.516   .     S
C743   O952    1.305   .     A
C743   O955    1.307   .     A
C743   C748    1.484   .     S
C744   C753    1.416   .     A
C744   C807    1.518   .     S
C745   C811    1.516   .     S
C745   C753    1.418   .     A
C746   C814    1.518   .     S
C746   C755    1.416   .     A
C747   C754    1.484   .     S
C751   C798    1.484   .     S
C752   C787    1.484   .     S
C753   C776    1.484   .     S
C754   O954    1.305   .     A
C754   O953    1.307   .     A
C755   C765    1.484   .     S
C756   C809    1.432   .     S
C756   N936    1.156   .     T
C757   N937    1.156   .     T
C758   N938    1.156   .     T
C759   N939    1.156   .     T
C760   N940    1.156   .     T
C761   N930    1.156   .     T
C762   N931    1.156   .     T
C763   N932    1.156   .     T
C764   C766    1.533   .     S
C764   H896    1.113   .     S
C764   H885    1.091   .     S
C765   O956    1.305   .     A
C765   O944    1.307   .     A
C766   H874    1.108   .     S
C766   C767    1.526   .     S
C766   H863    1.113   .     S
C767   H841    1.108   .     S
C767   H817    1.101   .     S
C767   H852    1.099   .     S
C768   H835    1.107   .     S
C768   C769    1.532   .     S
C768   H834    1.106   .     S
C769   H833    1.110   .     S
C769   H829    1.107   .     S
C769   C770    1.523   .     S
C770   H918    1.109   .     S
C770   H907    1.106   .     S
C770   H818    1.110   .     S
C771   H843    1.113   .     S
C771   C772    1.533   .     S
C771   H842    1.091   .     S
C772   H840    1.108   .     S
C772   C773    1.526   .     S
C772   H839    1.113   .     S
C773   H837    1.108   .     S
C773   H836    1.101   .     S
C773   H838    1.099   .     S
C774   C775    1.532   .     S
C774   H850    1.107   .     S
C774   H849    1.106   .     S
C775   H847    1.107   .     S
C775   C777    1.523   .     S
C775   H848    1.110   .     S
C776   O943    1.305   .     A
C776   O942    1.307   .     A
C777   H845    1.109   .     S
C777   H846    1.110   .     S
C777   H844    1.106   .     S
C778   H858    1.113   .     S
C778   H857    1.091   .     S
C778   C779    1.533   .     S
C779   H856    1.108   .     S
C779   C780    1.526   .     S
C779   H855    1.113   .     S
C780   H851    1.101   .     S
C780   H854    1.099   .     S
C780   H853    1.108   .     S
C781   C782    1.532   .     S
C781   H865    1.107   .     S
C781   H866    1.107   .     S
C782   H862    1.107   .     S
C782   H864    1.110   .     S
C782   C783    1.523   .     S
C783   H860    1.109   .     S
C783   H861    1.110   .     S
C783   H859    1.106   .     S
C784   H872    1.091   .     S
C784   H873    1.113   .     S
C784   C785    1.533   .     S
C785   H870    1.113   .     S
C785   H871    1.108   .     S
C785   C786    1.526   .     S
C786   H869    1.099   .     S
C786   H868    1.108   .     S
C786   H867    1.101   .     S
C787   O945    1.305   .     A
C787   O948    1.307   .     A
C788   H881    1.107   .     S
C788   C789    1.532   .     S
C788   H880    1.107   .     S
C789   C790    1.523   .     S
C789   H878    1.107   .     S
C789   H879    1.110   .     S
C790   H876    1.109   .     S
C790   H875    1.106   .     S
C790   H877    1.110   .     S
C791   H889    1.113   .     S
C791   H888    1.091   .     S
C791   C792    1.533   .     S
C792   H886    1.113   .     S
C792   H887    1.108   .     S
C792   C793    1.526   .     S
C793   H883    1.108   .     S
C793   H402    1.101   1_565 S
C793   H404    1.099   1_565 S
C794   C795    1.532   .     S
C794   H895    1.107   .     S
C794   H897    1.107   .     S
C795   H893    1.107   .     S
C795   C796    1.523   .     S
C795   H894    1.110   .     S
C796   H892    1.110   .     S
C796   H891    1.109   .     S
C796   H890    1.106   .     S
C797   H904    1.113   .     S
C797   H903    1.091   .     S
C797   C799    1.533   .     S
C798   O946    1.307   .     A
C798   O947    1.305   .     A
C799   H902    1.108   .     S
C799   C800    1.526   .     S
C799   H901    1.113   .     S
C800   H899    1.108   .     S
C801   C802    1.532   .     S
C801   H912    1.107   .     S
C801   H911    1.107   .     S
C802   C803    1.523   .     S
C802   H909    1.107   .     S
C802   H910    1.110   .     S
C803   H906    1.109   .     S
C803   H908    1.110   .     S
C803   H905    1.106   .     S
C804   H920    1.113   .     S
C804   H919    1.091   .     S
C804   C805    1.533   .     S
C805   C806    1.526   .     S
C805   H917    1.108   .     S
C805   H916    1.113   .     S
C806   H914    1.108   .     S
C806   H433    1.101   1_565 S
C806   H435    1.099   1_565 S
C807   C808    1.532   .     S
C807   H926    1.107   .     S
C807   H927    1.107   .     S
C808   H924    1.107   .     S
C808   H925    1.110   .     S
C808   C810    1.523   .     S
C809   C2404   1.426   1_554 S
C809   N933    1.368   .     S
C810   H921    1.106   .     S
C810   H923    1.110   .     S
C810   H922    1.109   .     S
C811   H824    1.113   .     S
C811   C812    1.533   .     S
C811   H823    1.091   .     S
C812   H822    1.108   .     S
C812   C813    1.526   .     S
C812   H821    1.113   .     S
C813   H819    1.108   .     S
C814   H832    1.107   .     S
C814   H831    1.106   .     S
C814   C815    1.532   .     S
C815   C816    1.523   .     S
C815   H830    1.110   .     S
C815   H828    1.107   .     S
C816   H825    1.106   .     S
C816   H827    1.110   .     S
C816   H826    1.109   .     S
H820   C333    1.099   1_565 S
H898   C320    1.101   1_565 S
H900   C320    1.099   1_565 S
H928   C333    1.101   1_565 S
N929   Zn957   2.032   .     S
N933   Zn958   2.032   .     S
N934   Zn959   2.032   .     S
N935   Zn960   2.032   .     S
O941   Zn957   2.075   .     S
O942   Zn960   2.075   .     S
O943   Zn959   2.075   .     S
O944   Zn480   2.075   1_565 S
O945   Zn480   2.075   1_565 S
O946   Zn959   2.075   .     S
O947   Zn960   2.075   .     S
O948   Zn479   2.075   1_565 S
O949   Zn718   2.075   1_655 S
O950   Zn717   2.075   1_655 S
O951   Zn958   2.075   .     S
O952   Zn718   2.075   1_655 S
O953   Zn957   2.075   .     S
O954   Zn958   2.075   .     S
O955   Zn717   2.075   1_655 S
O956   Zn479   2.075   1_565 S
C961   O1181   1.305   .     A
C961   O1191   1.307   .     A
C961   C990    1.484   .     S
C962   N1169   1.368   .     A
C962   C997    1.432   .     S
C962   C2163   1.426   1_455 S
C963   C998    1.432   .     S
C963   N1413   1.368   .     A
C964   C999    1.432   .     S
C964   C2249   1.426   .     S
C964   N1409   1.368   .     S
C965   N1175   1.368   .     A
C965   C1000   1.432   .     S
C966   C1001   1.432   .     S
C966   C1927   1.426   .     S
C966   N1654   1.368   .     S
C967   C1002   1.432   .     S
C967   N1655   1.368   .     S
C968   N1174   1.368   .     A
C968   C1003   1.432   .     S
C968   C1925   1.426   .     S
C969   C980    1.398   .     A
C969   C1004   1.516   .     S
C969   C988    1.418   .     A
C970   C987    1.416   .     A
C970   C981    1.407   .     A
C970   C1008   1.518   .     S
C971   C978    1.398   .     A
C971   C987    1.418   .     A
C971   C1011   1.516   .     S
C972   C989    1.484   .     S
C972   O1189   1.307   .     A
C972   O1190   1.305   .     A
C973   C979    1.407   .     A
C973   C988    1.416   .     A
C973   C1014   1.518   .     S
C974   C1018   1.516   .     S
C974   C990    1.418   .     A
C974   C985    1.398   .     A
C975   C989    1.416   .     A
C975   C1021   1.518   .     S
C975   C986    1.407   .     A
C976   C989    1.418   .     A
C976   C982    1.398   .     A
C976   C1024   1.516   .     S
C977   C990    1.416   .     A
C977   C984    1.407   .     A
C977   C1028   1.518   .     S
C978   C992    1.418   .     A
C978   C1031   1.516   .     S
C979   C991    1.416   .     A
C979   C1034   1.518   .     S
C980   C1037   1.516   .     S
C980   C991    1.418   .     A
C981   C992    1.416   .     A
C981   C1041   1.518   .     S
C982   C995    1.418   .     A
C982   C1044   1.516   .     S
C983   O1192   1.305   .     A
C983   O1195   1.307   .     A
C983   C988    1.484   .     S
C984   C993    1.416   .     A
C984   C1047   1.518   .     S
C985   C1051   1.516   .     S
C985   C993    1.418   .     A
C986   C1054   1.518   .     S
C986   C995    1.416   .     A
C987   C994    1.484   .     S
C991   C1038   1.484   .     S
C992   C1027   1.484   .     S
C993   C1016   1.484   .     S
C994   O1194   1.305   .     A
C994   O1193   1.307   .     A
C995   C1005   1.484   .     S
C996   C1049   1.432   .     S
C996   N1176   1.156   .     T
C997   N1177   1.156   .     T
C998   N1178   1.156   .     T
C999   N1179   1.156   .     T
C1000  N1180   1.156   .     T
C1001  N1170   1.156   .     T
C1002  N1171   1.156   .     T
C1003  N1172   1.156   .     T
C1004  C1006   1.533   .     S
C1004  H1136   1.113   .     S
C1004  H1125   1.091   .     S
C1005  O1196   1.305   .     A
C1005  O1184   1.307   .     A
C1006  H1114   1.108   .     S
C1006  C1007   1.526   .     S
C1006  H1103   1.113   .     S
C1007  H1081   1.108   .     S
C1007  H1057   1.101   .     S
C1007  H1092   1.099   .     S
C1008  H1075   1.107   .     S
C1008  C1009   1.532   .     S
C1008  H1074   1.106   .     S
C1009  H1073   1.110   .     S
C1009  H1069   1.107   .     S
C1009  C1010   1.523   .     S
C1010  H1158   1.109   .     S
C1010  H1147   1.106   .     S
C1010  H1058   1.110   .     S
C1011  H1083   1.113   .     S
C1011  C1012   1.533   .     S
C1011  H1082   1.091   .     S
C1012  H1080   1.108   .     S
C1012  C1013   1.526   .     S
C1012  H1079   1.113   .     S
C1013  H1077   1.108   .     S
C1013  H1076   1.101   .     S
C1013  H1078   1.099   .     S
C1014  C1015   1.532   .     S
C1014  H1090   1.107   .     S
C1014  H1089   1.106   .     S
C1015  H1087   1.107   .     S
C1015  C1017   1.523   .     S
C1015  H1088   1.110   .     S
C1016  O1183   1.305   .     A
C1016  O1182   1.307   .     A
C1017  H1085   1.109   .     S
C1017  H1086   1.110   .     S
C1017  H1084   1.106   .     S
C1018  H1098   1.113   .     S
C1018  H1097   1.091   .     S
C1018  C1019   1.533   .     S
C1019  H1096   1.108   .     S
C1019  C1020   1.526   .     S
C1019  H1095   1.113   .     S
C1020  H1091   1.101   .     S
C1020  H1094   1.099   .     S
C1020  H1093   1.108   .     S
C1021  C1022   1.532   .     S
C1021  H1105   1.107   .     S
C1021  H1106   1.107   .     S
C1022  H1102   1.107   .     S
C1022  H1104   1.110   .     S
C1022  C1023   1.523   .     S
C1023  H1100   1.109   .     S
C1023  H1101   1.110   .     S
C1023  H1099   1.106   .     S
C1024  H1112   1.091   .     S
C1024  H1113   1.113   .     S
C1024  C1025   1.533   .     S
C1025  H1110   1.113   .     S
C1025  H1111   1.108   .     S
C1025  C1026   1.526   .     S
C1026  H1109   1.099   .     S
C1026  H1108   1.108   .     S
C1026  H1107   1.101   .     S
C1027  O1185   1.305   .     A
C1027  O1188   1.307   .     A
C1028  H1121   1.107   .     S
C1028  C1029   1.532   .     S
C1028  H1120   1.107   .     S
C1029  C1030   1.523   .     S
C1029  H1118   1.107   .     S
C1029  H1119   1.110   .     S
C1030  H1116   1.109   .     S
C1030  H1115   1.106   .     S
C1030  H1117   1.110   .     S
C1031  H1129   1.113   .     S
C1031  H1128   1.091   .     S
C1031  C1032   1.533   .     S
C1032  H1126   1.113   .     S
C1032  H1127   1.108   .     S
C1032  C1033   1.526   .     S
C1033  H1123   1.108   .     S
C1033  H1602   1.101   .     S
C1033  H1604   1.099   .     S
C1034  C1035   1.532   .     S
C1034  H1135   1.107   .     S
C1034  H1137   1.107   .     S
C1035  H1133   1.107   .     S
C1035  C1036   1.523   .     S
C1035  H1134   1.110   .     S
C1036  H1132   1.110   .     S
C1036  H1131   1.109   .     S
C1036  H1130   1.106   .     S
C1037  H1144   1.113   .     S
C1037  H1143   1.091   .     S
C1037  C1039   1.533   .     S
C1038  O1186   1.307   .     A
C1038  O1187   1.305   .     A
C1039  H1142   1.108   .     S
C1039  C1040   1.526   .     S
C1039  H1141   1.113   .     S
C1040  H1139   1.108   .     S
C1040  H1618   1.101   1_545 S
C1040  H1620   1.099   1_545 S
C1041  C1042   1.532   .     S
C1041  H1152   1.107   .     S
C1041  H1151   1.107   .     S
C1042  C1043   1.523   .     S
C1042  H1149   1.107   .     S
C1042  H1150   1.110   .     S
C1043  H1146   1.109   .     S
C1043  H1148   1.110   .     S
C1043  H1145   1.106   .     S
C1044  H1160   1.113   .     S
C1044  H1159   1.091   .     S
C1044  C1045   1.533   .     S
C1045  C1046   1.526   .     S
C1045  H1157   1.108   .     S
C1045  H1156   1.113   .     S
C1046  H1154   1.108   .     S
C1046  H1633   1.101   .     S
C1046  H1635   1.099   .     S
C1047  C1048   1.532   .     S
C1047  H1166   1.107   .     S
C1047  H1167   1.107   .     S
C1048  H1164   1.107   .     S
C1048  H1165   1.110   .     S
C1048  C1050   1.523   .     S
C1049  C244    1.426   1_455 S
C1049  N1173   1.368   .     S
C1050  H1161   1.106   .     S
C1050  H1163   1.110   .     S
C1050  H1162   1.109   .     S
C1051  H1064   1.113   .     S
C1051  C1052   1.533   .     S
C1051  H1063   1.091   .     S
C1052  H1062   1.108   .     S
C1052  C1053   1.526   .     S
C1052  H1061   1.113   .     S
C1053  H1059   1.108   .     S
C1053  H1540   1.099   1_545 S
C1053  H1648   1.101   1_545 S
C1054  H1072   1.107   .     S
C1054  H1071   1.106   .     S
C1054  C1055   1.532   .     S
C1055  C1056   1.523   .     S
C1055  H1070   1.110   .     S
C1055  H1068   1.107   .     S
C1056  H1065   1.106   .     S
C1056  H1067   1.110   .     S
C1056  H1066   1.109   .     S
H1060  C1533   1.099   .     S
H1122  C1513   1.101   1_545 S
H1124  C1513   1.099   1_545 S
H1138  C1520   1.101   .     S
H1140  C1520   1.099   .     S
H1153  C1526   1.101   1_545 S
H1155  C1526   1.099   1_545 S
H1168  C1533   1.101   .     S
N1169  C1204   1.368   1_455 S
N1169  Zn1197  2.032   .     S
N1173  C1203   1.368   1_455 A
N1173  Zn1198  2.032   .     S
N1174  Zn1199  2.032   .     S
N1174  C1446   1.368   1_545 S
N1175  Zn1200  2.032   .     S
N1175  C1447   1.368   1_545 S
O1181  Zn1197  2.075   .     S
O1182  Zn1200  2.075   .     S
O1183  Zn1199  2.075   .     S
O1184  Zn1680  2.075   .     S
O1185  Zn1680  2.075   .     S
O1186  Zn1199  2.075   .     S
O1187  Zn1200  2.075   .     S
O1188  Zn1679  2.075   .     S
O1189  Zn1438  2.075   .     S
O1190  Zn1437  2.075   .     S
O1191  Zn1198  2.075   .     S
O1192  Zn1438  2.075   .     S
O1193  Zn1197  2.075   .     S
O1194  Zn1198  2.075   .     S
O1195  Zn1437  2.075   .     S
O1196  Zn1679  2.075   .     S
Zn1197 O1435   2.075   1_455 S
Zn1197 O1430   2.075   1_455 S
Zn1198 O1432   2.075   1_455 S
Zn1198 O1429   2.075   1_455 S
Zn1199 O1668   2.075   1_545 S
Zn1199 O1676   2.075   1_545 S
Zn1200 O1665   2.075   1_545 S
Zn1200 O1664   2.075   1_545 S
C1201  O1421   1.305   .     A
C1201  O1431   1.307   .     A
C1201  C1230   1.484   .     S
C1202  N1409   1.368   .     A
C1202  C1237   1.432   .     S
C1202  C1923   1.426   .     S
C1203  C1238   1.432   .     S
C1203  N1173   1.368   1_655 A
C1203  C2      1.426   1_655 S
C1204  C1239   1.432   .     S
C1204  C2009   1.426   1_655 S
C1204  N1169   1.368   1_655 S
C1205  N1415   1.368   .     A
C1205  C1240   1.432   .     S
C1206  C1241   1.432   .     S
C1206  C2167   1.426   .     S
C1206  N1894   1.368   .     S
C1207  C1242   1.432   .     S
C1207  N1895   1.368   .     S
C1208  N1414   1.368   .     A
C1208  C1243   1.432   .     S
C1208  C2165   1.426   .     S
C1209  C1220   1.398   .     A
C1209  C1244   1.516   .     S
C1209  C1228   1.418   .     A
C1210  C1227   1.416   .     A
C1210  C1221   1.407   .     A
C1210  C1248   1.518   .     S
C1211  C1218   1.398   .     A
C1211  C1227   1.418   .     A
C1211  C1251   1.516   .     S
C1212  C1229   1.484   .     S
C1212  O1429   1.307   .     A
C1212  O1430   1.305   .     A
C1213  C1219   1.407   .     A
C1213  C1228   1.416   .     A
C1213  C1254   1.518   .     S
C1214  C1258   1.516   .     S
C1214  C1230   1.418   .     A
C1214  C1225   1.398   .     A
C1215  C1229   1.416   .     A
C1215  C1261   1.518   .     S
C1215  C1226   1.407   .     A
C1216  C1229   1.418   .     A
C1216  C1222   1.398   .     A
C1216  C1264   1.516   .     S
C1217  C1230   1.416   .     A
C1217  C1224   1.407   .     A
C1217  C1268   1.518   .     S
C1218  C1232   1.418   .     A
C1218  C1271   1.516   .     S
C1219  C1231   1.416   .     A
C1219  C1274   1.518   .     S
C1220  C1277   1.516   .     S
C1220  C1231   1.418   .     A
C1221  C1232   1.416   .     A
C1221  C1281   1.518   .     S
C1222  C1235   1.418   .     A
C1222  C1284   1.516   .     S
C1223  O1432   1.305   .     A
C1223  O1435   1.307   .     A
C1223  C1228   1.484   .     S
C1224  C1233   1.416   .     A
C1224  C1287   1.518   .     S
C1225  C1291   1.516   .     S
C1225  C1233   1.418   .     A
C1226  C1294   1.518   .     S
C1226  C1235   1.416   .     A
C1227  C1234   1.484   .     S
C1231  C1278   1.484   .     S
C1232  C1267   1.484   .     S
C1233  C1256   1.484   .     S
C1234  O1434   1.305   .     A
C1234  O1433   1.307   .     A
C1235  C1245   1.484   .     S
C1236  C1289   1.432   .     S
C1236  N1416   1.156   .     T
C1237  N1417   1.156   .     T
C1238  N1418   1.156   .     T
C1239  N1419   1.156   .     T
C1240  N1420   1.156   .     T
C1241  N1410   1.156   .     T
C1242  N1411   1.156   .     T
C1243  N1412   1.156   .     T
C1244  C1246   1.533   .     S
C1244  H1376   1.113   .     S
C1244  H1365   1.091   .     S
C1245  O1436   1.305   .     A
C1245  O1424   1.307   .     A
C1246  H1354   1.108   .     S
C1246  C1247   1.526   .     S
C1246  H1343   1.113   .     S
C1247  H1321   1.108   .     S
C1247  H1297   1.101   .     S
C1247  H1332   1.099   .     S
C1248  H1315   1.107   .     S
C1248  C1249   1.532   .     S
C1248  H1314   1.106   .     S
C1249  H1313   1.110   .     S
C1249  H1309   1.107   .     S
C1249  C1250   1.523   .     S
C1250  H1398   1.109   .     S
C1250  H1387   1.106   .     S
C1250  H1298   1.110   .     S
C1251  H1323   1.113   .     S
C1251  C1252   1.533   .     S
C1251  H1322   1.091   .     S
C1252  H1320   1.108   .     S
C1252  C1253   1.526   .     S
C1252  H1319   1.113   .     S
C1253  H1317   1.108   .     S
C1253  H1316   1.101   .     S
C1253  H1318   1.099   .     S
C1254  C1255   1.532   .     S
C1254  H1330   1.107   .     S
C1254  H1329   1.106   .     S
C1255  H1327   1.107   .     S
C1255  C1257   1.523   .     S
C1255  H1328   1.110   .     S
C1256  O1423   1.305   .     A
C1256  O1422   1.307   .     A
C1257  H1325   1.109   .     S
C1257  H1326   1.110   .     S
C1257  H1324   1.106   .     S
C1258  H1338   1.113   .     S
C1258  H1337   1.091   .     S
C1258  C1259   1.533   .     S
C1259  H1336   1.108   .     S
C1259  C1260   1.526   .     S
C1259  H1335   1.113   .     S
C1260  H1331   1.101   .     S
C1260  H1334   1.099   .     S
C1260  H1333   1.108   .     S
C1261  C1262   1.532   .     S
C1261  H1345   1.107   .     S
C1261  H1346   1.107   .     S
C1262  H1342   1.107   .     S
C1262  H1344   1.110   .     S
C1262  C1263   1.523   .     S
C1263  H1340   1.109   .     S
C1263  H1341   1.110   .     S
C1263  H1339   1.106   .     S
C1264  H1352   1.091   .     S
C1264  H1353   1.113   .     S
C1264  C1265   1.533   .     S
C1265  H1350   1.113   .     S
C1265  H1351   1.108   .     S
C1265  C1266   1.526   .     S
C1266  H1349   1.099   .     S
C1266  H1348   1.108   .     S
C1266  H1347   1.101   .     S
C1267  O1425   1.305   .     A
C1267  O1428   1.307   .     A
C1268  H1361   1.107   .     S
C1268  C1269   1.532   .     S
C1268  H1360   1.107   .     S
C1269  C1270   1.523   .     S
C1269  H1358   1.107   .     S
C1269  H1359   1.110   .     S
C1270  H1356   1.109   .     S
C1270  H1355   1.106   .     S
C1270  H1357   1.110   .     S
C1271  H1369   1.113   .     S
C1271  H1368   1.091   .     S
C1271  C1272   1.533   .     S
C1272  H1366   1.113   .     S
C1272  H1367   1.108   .     S
C1272  C1273   1.526   .     S
C1273  H1363   1.108   .     S
C1273  H1842   1.101   .     S
C1273  H1844   1.099   .     S
C1274  C1275   1.532   .     S
C1274  H1375   1.107   .     S
C1274  H1377   1.107   .     S
C1275  H1373   1.107   .     S
C1275  C1276   1.523   .     S
C1275  H1374   1.110   .     S
C1276  H1372   1.110   .     S
C1276  H1371   1.109   .     S
C1276  H1370   1.106   .     S
C1277  H1384   1.113   .     S
C1277  H1383   1.091   .     S
C1277  C1279   1.533   .     S
C1278  O1426   1.307   .     A
C1278  O1427   1.305   .     A
C1279  H1382   1.108   .     S
C1279  C1280   1.526   .     S
C1279  H1381   1.113   .     S
C1280  H1379   1.108   .     S
C1280  H1858   1.101   1_545 S
C1280  H1860   1.099   1_545 S
C1281  C1282   1.532   .     S
C1281  H1392   1.107   .     S
C1281  H1391   1.107   .     S
C1282  C1283   1.523   .     S
C1282  H1389   1.107   .     S
C1282  H1390   1.110   .     S
C1283  H1386   1.109   .     S
C1283  H1388   1.110   .     S
C1283  H1385   1.106   .     S
C1284  H1400   1.113   .     S
C1284  H1399   1.091   .     S
C1284  C1285   1.533   .     S
C1285  C1286   1.526   .     S
C1285  H1397   1.108   .     S
C1285  H1396   1.113   .     S
C1286  H1394   1.108   .     S
C1286  H1873   1.101   .     S
C1286  H1875   1.099   .     S
C1287  C1288   1.532   .     S
C1287  H1406   1.107   .     S
C1287  H1407   1.107   .     S
C1288  H1404   1.107   .     S
C1288  H1405   1.110   .     S
C1288  C1290   1.523   .     S
C1289  N1413   1.368   .     S
C1290  H1401   1.106   .     S
C1290  H1403   1.110   .     S
C1290  H1402   1.109   .     S
C1291  H1304   1.113   .     S
C1291  C1292   1.533   .     S
C1291  H1303   1.091   .     S
C1292  H1302   1.108   .     S
C1292  C1293   1.526   .     S
C1292  H1301   1.113   .     S
C1293  H1299   1.108   .     S
C1293  H1780   1.099   1_545 S
C1293  H1888   1.101   1_545 S
C1294  H1312   1.107   .     S
C1294  H1311   1.106   .     S
C1294  C1295   1.532   .     S
C1295  C1296   1.523   .     S
C1295  H1310   1.110   .     S
C1295  H1308   1.107   .     S
C1296  H1305   1.106   .     S
C1296  H1307   1.110   .     S
C1296  H1306   1.109   .     S
H1300  C1773   1.099   .     S
H1362  C1753   1.101   1_545 S
H1364  C1753   1.099   1_545 S
H1378  C1760   1.101   .     S
H1380  C1760   1.099   .     S
H1393  C1766   1.101   1_545 S
H1395  C1766   1.099   1_545 S
H1408  C1773   1.101   .     S
N1409  Zn1437  2.032   .     S
N1413  Zn1438  2.032   .     S
N1414  Zn1439  2.032   .     S
N1414  C1686   1.368   1_545 S
N1415  Zn1440  2.032   .     S
N1415  C1687   1.368   1_545 S
O1421  Zn1437  2.075   .     S
O1422  Zn1440  2.075   .     S
O1423  Zn1439  2.075   .     S
O1424  Zn1920  2.075   .     S
O1425  Zn1920  2.075   .     S
O1426  Zn1439  2.075   .     S
O1427  Zn1440  2.075   .     S
O1428  Zn1919  2.075   .     S
O1429  Zn1198  2.075   1_655 S
O1430  Zn1197  2.075   1_655 S
O1431  Zn1438  2.075   .     S
O1432  Zn1198  2.075   1_655 S
O1433  Zn1437  2.075   .     S
O1434  Zn1438  2.075   .     S
O1435  Zn1197  2.075   1_655 S
O1436  Zn1919  2.075   .     S
Zn1439 O1908   2.075   1_545 S
Zn1439 O1916   2.075   1_545 S
Zn1440 O1905   2.075   1_545 S
Zn1440 O1904   2.075   1_545 S
C1441  O1661   1.305   .     A
C1441  O1671   1.307   .     A
C1441  C1470   1.484   .     S
C1442  N1649   1.368   .     A
C1442  C1477   1.432   .     S
C1442  C2643   1.426   1_455 S
C1443  C1478   1.432   .     S
C1443  N1893   1.368   .     A
C1444  C1479   1.432   .     S
C1444  C2729   1.426   .     S
C1444  N1889   1.368   .     S
C1445  N1655   1.368   .     A
C1445  C1480   1.432   .     S
C1446  C1481   1.432   .     S
C1446  C2407   1.426   .     S
C1446  N1174   1.368   1_565 S
C1447  C1482   1.432   .     S
C1447  N1175   1.368   1_565 S
C1448  N1654   1.368   .     A
C1448  C1483   1.432   .     S
C1448  C2405   1.426   .     S
C1449  C1460   1.398   .     A
C1449  C1484   1.516   .     S
C1449  C1468   1.418   .     A
C1450  C1467   1.416   .     A
C1450  C1461   1.407   .     A
C1450  C1488   1.518   .     S
C1451  C1458   1.398   .     A
C1451  C1467   1.418   .     A
C1451  C1491   1.516   .     S
C1452  C1469   1.484   .     S
C1452  O1669   1.307   .     A
C1452  O1670   1.305   .     A
C1453  C1459   1.407   .     A
C1453  C1468   1.416   .     A
C1453  C1494   1.518   .     S
C1454  C1498   1.516   .     S
C1454  C1470   1.418   .     A
C1454  C1465   1.398   .     A
C1455  C1469   1.416   .     A
C1455  C1501   1.518   .     S
C1455  C1466   1.407   .     A
C1456  C1469   1.418   .     A
C1456  C1462   1.398   .     A
C1456  C1504   1.516   .     S
C1457  C1470   1.416   .     A
C1457  C1464   1.407   .     A
C1457  C1508   1.518   .     S
C1458  C1472   1.418   .     A
C1458  C1511   1.516   .     S
C1459  C1471   1.416   .     A
C1459  C1514   1.518   .     S
C1460  C1517   1.516   .     S
C1460  C1471   1.418   .     A
C1461  C1472   1.416   .     A
C1461  C1521   1.518   .     S
C1462  C1475   1.418   .     A
C1462  C1524   1.516   .     S
C1463  O1672   1.305   .     A
C1463  O1675   1.307   .     A
C1463  C1468   1.484   .     S
C1464  C1473   1.416   .     A
C1464  C1527   1.518   .     S
C1465  C1531   1.516   .     S
C1465  C1473   1.418   .     A
C1466  C1534   1.518   .     S
C1466  C1475   1.416   .     A
C1467  C1474   1.484   .     S
C1471  C1518   1.484   .     S
C1472  C1507   1.484   .     S
C1473  C1496   1.484   .     S
C1474  O1674   1.305   .     A
C1474  O1673   1.307   .     A
C1475  C1485   1.484   .     S
C1476  C1529   1.432   .     S
C1476  N1656   1.156   .     T
C1477  N1657   1.156   .     T
C1478  N1658   1.156   .     T
C1479  N1659   1.156   .     T
C1480  N1660   1.156   .     T
C1481  N1650   1.156   .     T
C1482  N1651   1.156   .     T
C1483  N1652   1.156   .     T
C1484  C1486   1.533   .     S
C1484  H1616   1.113   .     S
C1484  H1605   1.091   .     S
C1485  O1676   1.305   .     A
C1485  O1664   1.307   .     A
C1486  H1594   1.108   .     S
C1486  C1487   1.526   .     S
C1486  H1583   1.113   .     S
C1487  H1561   1.108   .     S
C1487  H1537   1.101   .     S
C1487  H1572   1.099   .     S
C1488  H1555   1.107   .     S
C1488  C1489   1.532   .     S
C1488  H1554   1.106   .     S
C1489  H1553   1.110   .     S
C1489  H1549   1.107   .     S
C1489  C1490   1.523   .     S
C1490  H1638   1.109   .     S
C1490  H1627   1.106   .     S
C1490  H1538   1.110   .     S
C1491  H1563   1.113   .     S
C1491  C1492   1.533   .     S
C1491  H1562   1.091   .     S
C1492  H1560   1.108   .     S
C1492  C1493   1.526   .     S
C1492  H1559   1.113   .     S
C1493  H1557   1.108   .     S
C1493  H1556   1.101   .     S
C1493  H1558   1.099   .     S
C1494  C1495   1.532   .     S
C1494  H1570   1.107   .     S
C1494  H1569   1.106   .     S
C1495  H1567   1.107   .     S
C1495  C1497   1.523   .     S
C1495  H1568   1.110   .     S
C1496  O1663   1.305   .     A
C1496  O1662   1.307   .     A
C1497  H1565   1.109   .     S
C1497  H1566   1.110   .     S
C1497  H1564   1.106   .     S
C1498  H1578   1.113   .     S
C1498  H1577   1.091   .     S
C1498  C1499   1.533   .     S
C1499  H1576   1.108   .     S
C1499  C1500   1.526   .     S
C1499  H1575   1.113   .     S
C1500  H1571   1.101   .     S
C1500  H1574   1.099   .     S
C1500  H1573   1.108   .     S
C1501  C1502   1.532   .     S
C1501  H1585   1.107   .     S
C1501  H1586   1.107   .     S
C1502  H1582   1.107   .     S
C1502  H1584   1.110   .     S
C1502  C1503   1.523   .     S
C1503  H1580   1.109   .     S
C1503  H1581   1.110   .     S
C1503  H1579   1.106   .     S
C1504  H1592   1.091   .     S
C1504  H1593   1.113   .     S
C1504  C1505   1.533   .     S
C1505  H1590   1.113   .     S
C1505  H1591   1.108   .     S
C1505  C1506   1.526   .     S
C1506  H1589   1.099   .     S
C1506  H1588   1.108   .     S
C1506  H1587   1.101   .     S
C1507  O1665   1.305   .     A
C1507  O1668   1.307   .     A
C1508  H1601   1.107   .     S
C1508  C1509   1.532   .     S
C1508  H1600   1.107   .     S
C1509  C1510   1.523   .     S
C1509  H1598   1.107   .     S
C1509  H1599   1.110   .     S
C1510  H1596   1.109   .     S
C1510  H1595   1.106   .     S
C1510  H1597   1.110   .     S
C1511  H1609   1.113   .     S
C1511  H1608   1.091   .     S
C1511  C1512   1.533   .     S
C1512  H1606   1.113   .     S
C1512  H1607   1.108   .     S
C1512  C1513   1.526   .     S
C1513  H1603   1.108   .     S
C1513  H1122   1.101   1_565 S
C1513  H1124   1.099   1_565 S
C1514  C1515   1.532   .     S
C1514  H1615   1.107   .     S
C1514  H1617   1.107   .     S
C1515  H1613   1.107   .     S
C1515  C1516   1.523   .     S
C1515  H1614   1.110   .     S
C1516  H1612   1.110   .     S
C1516  H1611   1.109   .     S
C1516  H1610   1.106   .     S
C1517  H1624   1.113   .     S
C1517  H1623   1.091   .     S
C1517  C1519   1.533   .     S
C1518  O1666   1.307   .     A
C1518  O1667   1.305   .     A
C1519  H1622   1.108   .     S
C1519  C1520   1.526   .     S
C1519  H1621   1.113   .     S
C1520  H1619   1.108   .     S
C1521  C1522   1.532   .     S
C1521  H1632   1.107   .     S
C1521  H1631   1.107   .     S
C1522  C1523   1.523   .     S
C1522  H1629   1.107   .     S
C1522  H1630   1.110   .     S
C1523  H1626   1.109   .     S
C1523  H1628   1.110   .     S
C1523  H1625   1.106   .     S
C1524  H1640   1.113   .     S
C1524  H1639   1.091   .     S
C1524  C1525   1.533   .     S
C1525  C1526   1.526   .     S
C1525  H1637   1.108   .     S
C1525  H1636   1.113   .     S
C1526  H1634   1.108   .     S
C1526  H1153   1.101   1_565 S
C1526  H1155   1.099   1_565 S
C1527  C1528   1.532   .     S
C1527  H1646   1.107   .     S
C1527  H1647   1.107   .     S
C1528  H1644   1.107   .     S
C1528  H1645   1.110   .     S
C1528  C1530   1.523   .     S
C1529  C724    1.426   1_455 S
C1529  N1653   1.368   .     S
C1530  H1641   1.106   .     S
C1530  H1643   1.110   .     S
C1530  H1642   1.109   .     S
C1531  H1544   1.113   .     S
C1531  C1532   1.533   .     S
C1531  H1543   1.091   .     S
C1532  H1542   1.108   .     S
C1532  C1533   1.526   .     S
C1532  H1541   1.113   .     S
C1533  H1539   1.108   .     S
C1534  H1552   1.107   .     S
C1534  H1551   1.106   .     S
C1534  C1535   1.532   .     S
C1535  C1536   1.523   .     S
C1535  H1550   1.110   .     S
C1535  H1548   1.107   .     S
C1536  H1545   1.106   .     S
C1536  H1547   1.110   .     S
C1536  H1546   1.109   .     S
H1540  C1053   1.099   1_565 S
H1618  C1040   1.101   1_565 S
H1620  C1040   1.099   1_565 S
H1648  C1053   1.101   1_565 S
N1649  C1684   1.368   1_455 S
N1649  Zn1677  2.032   .     S
N1653  C1683   1.368   1_455 A
N1653  Zn1678  2.032   .     S
N1654  Zn1679  2.032   .     S
N1655  Zn1680  2.032   .     S
O1661  Zn1677  2.075   .     S
O1662  Zn1680  2.075   .     S
O1663  Zn1679  2.075   .     S
O1664  Zn1200  2.075   1_565 S
O1665  Zn1200  2.075   1_565 S
O1666  Zn1679  2.075   .     S
O1667  Zn1680  2.075   .     S
O1668  Zn1199  2.075   1_565 S
O1669  Zn1918  2.075   .     S
O1670  Zn1917  2.075   .     S
O1671  Zn1678  2.075   .     S
O1672  Zn1918  2.075   .     S
O1673  Zn1677  2.075   .     S
O1674  Zn1678  2.075   .     S
O1675  Zn1917  2.075   .     S
O1676  Zn1199  2.075   1_565 S
Zn1677 O1915   2.075   1_455 S
Zn1677 O1910   2.075   1_455 S
Zn1678 O1912   2.075   1_455 S
Zn1678 O1909   2.075   1_455 S
C1681  O1901   1.305   .     A
C1681  O1911   1.307   .     A
C1681  C1710   1.484   .     S
C1682  N1889   1.368   .     A
C1682  C1717   1.432   .     S
C1682  C2403   1.426   .     S
C1683  C1718   1.432   .     S
C1683  N1653   1.368   1_655 A
C1683  C482    1.426   1_655 S
C1684  C1719   1.432   .     S
C1684  C2489   1.426   1_655 S
C1684  N1649   1.368   1_655 S
C1685  N1895   1.368   .     A
C1685  C1720   1.432   .     S
C1686  C1721   1.432   .     S
C1686  C2647   1.426   .     S
C1686  N1414   1.368   1_565 S
C1687  C1722   1.432   .     S
C1687  N1415   1.368   1_565 S
C1688  N1894   1.368   .     A
C1688  C1723   1.432   .     S
C1688  C2645   1.426   .     S
C1689  C1700   1.398   .     A
C1689  C1724   1.516   .     S
C1689  C1708   1.418   .     A
C1690  C1707   1.416   .     A
C1690  C1701   1.407   .     A
C1690  C1728   1.518   .     S
C1691  C1698   1.398   .     A
C1691  C1707   1.418   .     A
C1691  C1731   1.516   .     S
C1692  C1709   1.484   .     S
C1692  O1909   1.307   .     A
C1692  O1910   1.305   .     A
C1693  C1699   1.407   .     A
C1693  C1708   1.416   .     A
C1693  C1734   1.518   .     S
C1694  C1738   1.516   .     S
C1694  C1710   1.418   .     A
C1694  C1705   1.398   .     A
C1695  C1709   1.416   .     A
C1695  C1741   1.518   .     S
C1695  C1706   1.407   .     A
C1696  C1709   1.418   .     A
C1696  C1702   1.398   .     A
C1696  C1744   1.516   .     S
C1697  C1710   1.416   .     A
C1697  C1704   1.407   .     A
C1697  C1748   1.518   .     S
C1698  C1712   1.418   .     A
C1698  C1751   1.516   .     S
C1699  C1711   1.416   .     A
C1699  C1754   1.518   .     S
C1700  C1757   1.516   .     S
C1700  C1711   1.418   .     A
C1701  C1712   1.416   .     A
C1701  C1761   1.518   .     S
C1702  C1715   1.418   .     A
C1702  C1764   1.516   .     S
C1703  O1912   1.305   .     A
C1703  O1915   1.307   .     A
C1703  C1708   1.484   .     S
C1704  C1713   1.416   .     A
C1704  C1767   1.518   .     S
C1705  C1771   1.516   .     S
C1705  C1713   1.418   .     A
C1706  C1774   1.518   .     S
C1706  C1715   1.416   .     A
C1707  C1714   1.484   .     S
C1711  C1758   1.484   .     S
C1712  C1747   1.484   .     S
C1713  C1736   1.484   .     S
C1714  O1914   1.305   .     A
C1714  O1913   1.307   .     A
C1715  C1725   1.484   .     S
C1716  C1769   1.432   .     S
C1716  N1896   1.156   .     T
C1717  N1897   1.156   .     T
C1718  N1898   1.156   .     T
C1719  N1899   1.156   .     T
C1720  N1900   1.156   .     T
C1721  N1890   1.156   .     T
C1722  N1891   1.156   .     T
C1723  N1892   1.156   .     T
C1724  C1726   1.533   .     S
C1724  H1856   1.113   .     S
C1724  H1845   1.091   .     S
C1725  O1916   1.305   .     A
C1725  O1904   1.307   .     A
C1726  H1834   1.108   .     S
C1726  C1727   1.526   .     S
C1726  H1823   1.113   .     S
C1727  H1801   1.108   .     S
C1727  H1777   1.101   .     S
C1727  H1812   1.099   .     S
C1728  H1795   1.107   .     S
C1728  C1729   1.532   .     S
C1728  H1794   1.106   .     S
C1729  H1793   1.110   .     S
C1729  H1789   1.107   .     S
C1729  C1730   1.523   .     S
C1730  H1878   1.109   .     S
C1730  H1867   1.106   .     S
C1730  H1778   1.110   .     S
C1731  H1803   1.113   .     S
C1731  C1732   1.533   .     S
C1731  H1802   1.091   .     S
C1732  H1800   1.108   .     S
C1732  C1733   1.526   .     S
C1732  H1799   1.113   .     S
C1733  H1797   1.108   .     S
C1733  H1796   1.101   .     S
C1733  H1798   1.099   .     S
C1734  C1735   1.532   .     S
C1734  H1810   1.107   .     S
C1734  H1809   1.106   .     S
C1735  H1807   1.107   .     S
C1735  C1737   1.523   .     S
C1735  H1808   1.110   .     S
C1736  O1903   1.305   .     A
C1736  O1902   1.307   .     A
C1737  H1805   1.109   .     S
C1737  H1806   1.110   .     S
C1737  H1804   1.106   .     S
C1738  H1818   1.113   .     S
C1738  H1817   1.091   .     S
C1738  C1739   1.533   .     S
C1739  H1816   1.108   .     S
C1739  C1740   1.526   .     S
C1739  H1815   1.113   .     S
C1740  H1811   1.101   .     S
C1740  H1814   1.099   .     S
C1740  H1813   1.108   .     S
C1741  C1742   1.532   .     S
C1741  H1825   1.107   .     S
C1741  H1826   1.107   .     S
C1742  H1822   1.107   .     S
C1742  H1824   1.110   .     S
C1742  C1743   1.523   .     S
C1743  H1820   1.109   .     S
C1743  H1821   1.110   .     S
C1743  H1819   1.106   .     S
C1744  H1832   1.091   .     S
C1744  H1833   1.113   .     S
C1744  C1745   1.533   .     S
C1745  H1830   1.113   .     S
C1745  H1831   1.108   .     S
C1745  C1746   1.526   .     S
C1746  H1829   1.099   .     S
C1746  H1828   1.108   .     S
C1746  H1827   1.101   .     S
C1747  O1905   1.305   .     A
C1747  O1908   1.307   .     A
C1748  H1841   1.107   .     S
C1748  C1749   1.532   .     S
C1748  H1840   1.107   .     S
C1749  C1750   1.523   .     S
C1749  H1838   1.107   .     S
C1749  H1839   1.110   .     S
C1750  H1836   1.109   .     S
C1750  H1835   1.106   .     S
C1750  H1837   1.110   .     S
C1751  H1849   1.113   .     S
C1751  H1848   1.091   .     S
C1751  C1752   1.533   .     S
C1752  H1846   1.113   .     S
C1752  H1847   1.108   .     S
C1752  C1753   1.526   .     S
C1753  H1843   1.108   .     S
C1753  H1362   1.101   1_565 S
C1753  H1364   1.099   1_565 S
C1754  C1755   1.532   .     S
C1754  H1855   1.107   .     S
C1754  H1857   1.107   .     S
C1755  H1853   1.107   .     S
C1755  C1756   1.523   .     S
C1755  H1854   1.110   .     S
C1756  H1852   1.110   .     S
C1756  H1851   1.109   .     S
C1756  H1850   1.106   .     S
C1757  H1864   1.113   .     S
C1757  H1863   1.091   .     S
C1757  C1759   1.533   .     S
C1758  O1906   1.307   .     A
C1758  O1907   1.305   .     A
C1759  H1862   1.108   .     S
C1759  C1760   1.526   .     S
C1759  H1861   1.113   .     S
C1760  H1859   1.108   .     S
C1761  C1762   1.532   .     S
C1761  H1872   1.107   .     S
C1761  H1871   1.107   .     S
C1762  C1763   1.523   .     S
C1762  H1869   1.107   .     S
C1762  H1870   1.110   .     S
C1763  H1866   1.109   .     S
C1763  H1868   1.110   .     S
C1763  H1865   1.106   .     S
C1764  H1880   1.113   .     S
C1764  H1879   1.091   .     S
C1764  C1765   1.533   .     S
C1765  C1766   1.526   .     S
C1765  H1877   1.108   .     S
C1765  H1876   1.113   .     S
C1766  H1874   1.108   .     S
C1766  H1393   1.101   1_565 S
C1766  H1395   1.099   1_565 S
C1767  C1768   1.532   .     S
C1767  H1886   1.107   .     S
C1767  H1887   1.107   .     S
C1768  H1884   1.107   .     S
C1768  H1885   1.110   .     S
C1768  C1770   1.523   .     S
C1769  N1893   1.368   .     S
C1770  H1881   1.106   .     S
C1770  H1883   1.110   .     S
C1770  H1882   1.109   .     S
C1771  H1784   1.113   .     S
C1771  C1772   1.533   .     S
C1771  H1783   1.091   .     S
C1772  H1782   1.108   .     S
C1772  C1773   1.526   .     S
C1772  H1781   1.113   .     S
C1773  H1779   1.108   .     S
C1774  H1792   1.107   .     S
C1774  H1791   1.106   .     S
C1774  C1775   1.532   .     S
C1775  C1776   1.523   .     S
C1775  H1790   1.110   .     S
C1775  H1788   1.107   .     S
C1776  H1785   1.106   .     S
C1776  H1787   1.110   .     S
C1776  H1786   1.109   .     S
H1780  C1293   1.099   1_565 S
H1858  C1280   1.101   1_565 S
H1860  C1280   1.099   1_565 S
H1888  C1293   1.101   1_565 S
N1889  Zn1917  2.032   .     S
N1893  Zn1918  2.032   .     S
N1894  Zn1919  2.032   .     S
N1895  Zn1920  2.032   .     S
O1901  Zn1917  2.075   .     S
O1902  Zn1920  2.075   .     S
O1903  Zn1919  2.075   .     S
O1904  Zn1440  2.075   1_565 S
O1905  Zn1440  2.075   1_565 S
O1906  Zn1919  2.075   .     S
O1907  Zn1920  2.075   .     S
O1908  Zn1439  2.075   1_565 S
O1909  Zn1678  2.075   1_655 S
O1910  Zn1677  2.075   1_655 S
O1911  Zn1918  2.075   .     S
O1912  Zn1678  2.075   1_655 S
O1913  Zn1917  2.075   .     S
O1914  Zn1918  2.075   .     S
O1915  Zn1677  2.075   1_655 S
O1916  Zn1439  2.075   1_565 S
C1921  O2141   1.305   .     A
C1921  O2151   1.307   .     A
C1921  C1950   1.484   .     S
C1922  N2129   1.368   .     A
C1922  C1957   1.432   .     S
C1922  C243    1.426   1_456 S
C1923  C1958   1.432   .     S
C1923  N2373   1.368   .     A
C1924  C1959   1.432   .     S
C1924  C329    1.426   1_556 S
C1924  N2369   1.368   .     S
C1925  N2135   1.368   .     A
C1925  C1960   1.432   .     S
C1926  C1961   1.432   .     S
C1926  C7      1.426   1_556 S
C1926  N2614   1.368   .     S
C1927  C1962   1.432   .     S
C1927  N2615   1.368   .     S
C1928  N2134   1.368   .     A
C1928  C1963   1.432   .     S
C1928  C5      1.426   1_556 S
C1929  C1940   1.398   .     A
C1929  C1964   1.516   .     S
C1929  C1948   1.418   .     A
C1930  C1947   1.416   .     A
C1930  C1941   1.407   .     A
C1930  C1968   1.518   .     S
C1931  C1938   1.398   .     A
C1931  C1947   1.418   .     A
C1931  C1971   1.516   .     S
C1932  C1949   1.484   .     S
C1932  O2149   1.307   .     A
C1932  O2150   1.305   .     A
C1933  C1939   1.407   .     A
C1933  C1948   1.416   .     A
C1933  C1974   1.518   .     S
C1934  C1978   1.516   .     S
C1934  C1950   1.418   .     A
C1934  C1945   1.398   .     A
C1935  C1949   1.416   .     A
C1935  C1981   1.518   .     S
C1935  C1946   1.407   .     A
C1936  C1949   1.418   .     A
C1936  C1942   1.398   .     A
C1936  C1984   1.516   .     S
C1937  C1950   1.416   .     A
C1937  C1944   1.407   .     A
C1937  C1988   1.518   .     S
C1938  C1952   1.418   .     A
C1938  C1991   1.516   .     S
C1939  C1951   1.416   .     A
C1939  C1994   1.518   .     S
C1940  C1997   1.516   .     S
C1940  C1951   1.418   .     A
C1941  C1952   1.416   .     A
C1941  C2001   1.518   .     S
C1942  C1955   1.418   .     A
C1942  C2004   1.516   .     S
C1943  O2152   1.305   .     A
C1943  O2155   1.307   .     A
C1943  C1948   1.484   .     S
C1944  C1953   1.416   .     A
C1944  C2007   1.518   .     S
C1945  C2011   1.516   .     S
C1945  C1953   1.418   .     A
C1946  C2014   1.518   .     S
C1946  C1955   1.416   .     A
C1947  C1954   1.484   .     S
C1951  C1998   1.484   .     S
C1952  C1987   1.484   .     S
C1953  C1976   1.484   .     S
C1954  O2154   1.305   .     A
C1954  O2153   1.307   .     A
C1955  C1965   1.484   .     S
C1956  C2009   1.432   .     S
C1956  N2136   1.156   .     T
C1957  N2137   1.156   .     T
C1958  N2138   1.156   .     T
C1959  N2139   1.156   .     T
C1960  N2140   1.156   .     T
C1961  N2130   1.156   .     T
C1962  N2131   1.156   .     T
C1963  N2132   1.156   .     T
C1964  C1966   1.533   .     S
C1964  H2096   1.113   .     S
C1964  H2085   1.091   .     S
C1965  O2156   1.305   .     A
C1965  O2144   1.307   .     A
C1966  H2074   1.108   .     S
C1966  C1967   1.526   .     S
C1966  H2063   1.113   .     S
C1967  H2041   1.108   .     S
C1967  H2017   1.101   .     S
C1967  H2052   1.099   .     S
C1968  H2035   1.107   .     S
C1968  C1969   1.532   .     S
C1968  H2034   1.106   .     S
C1969  H2033   1.110   .     S
C1969  H2029   1.107   .     S
C1969  C1970   1.523   .     S
C1970  H2118   1.109   .     S
C1970  H2107   1.106   .     S
C1970  H2018   1.110   .     S
C1971  H2043   1.113   .     S
C1971  C1972   1.533   .     S
C1971  H2042   1.091   .     S
C1972  H2040   1.108   .     S
C1972  C1973   1.526   .     S
C1972  H2039   1.113   .     S
C1973  H2037   1.108   .     S
C1973  H2036   1.101   .     S
C1973  H2038   1.099   .     S
C1974  C1975   1.532   .     S
C1974  H2050   1.107   .     S
C1974  H2049   1.106   .     S
C1975  H2047   1.107   .     S
C1975  C1977   1.523   .     S
C1975  H2048   1.110   .     S
C1976  O2143   1.305   .     A
C1976  O2142   1.307   .     A
C1977  H2045   1.109   .     S
C1977  H2046   1.110   .     S
C1977  H2044   1.106   .     S
C1978  H2058   1.113   .     S
C1978  H2057   1.091   .     S
C1978  C1979   1.533   .     S
C1979  H2056   1.108   .     S
C1979  C1980   1.526   .     S
C1979  H2055   1.113   .     S
C1980  H2051   1.101   .     S
C1980  H2054   1.099   .     S
C1980  H2053   1.108   .     S
C1981  C1982   1.532   .     S
C1981  H2065   1.107   .     S
C1981  H2066   1.107   .     S
C1982  H2062   1.107   .     S
C1982  H2064   1.110   .     S
C1982  C1983   1.523   .     S
C1983  H2060   1.109   .     S
C1983  H2061   1.110   .     S
C1983  H2059   1.106   .     S
C1984  H2072   1.091   .     S
C1984  H2073   1.113   .     S
C1984  C1985   1.533   .     S
C1985  H2070   1.113   .     S
C1985  H2071   1.108   .     S
C1985  C1986   1.526   .     S
C1986  H2069   1.099   .     S
C1986  H2068   1.108   .     S
C1986  H2067   1.101   .     S
C1987  O2145   1.305   .     A
C1987  O2148   1.307   .     A
C1988  H2081   1.107   .     S
C1988  C1989   1.532   .     S
C1988  H2080   1.107   .     S
C1989  C1990   1.523   .     S
C1989  H2078   1.107   .     S
C1989  H2079   1.110   .     S
C1990  H2076   1.109   .     S
C1990  H2075   1.106   .     S
C1990  H2077   1.110   .     S
C1991  H2089   1.113   .     S
C1991  H2088   1.091   .     S
C1991  C1992   1.533   .     S
C1992  H2086   1.113   .     S
C1992  H2087   1.108   .     S
C1992  C1993   1.526   .     S
C1993  H2083   1.108   .     S
C1993  H2562   1.101   .     S
C1993  H2564   1.099   .     S
C1994  C1995   1.532   .     S
C1994  H2095   1.107   .     S
C1994  H2097   1.107   .     S
C1995  H2093   1.107   .     S
C1995  C1996   1.523   .     S
C1995  H2094   1.110   .     S
C1996  H2092   1.110   .     S
C1996  H2091   1.109   .     S
C1996  H2090   1.106   .     S
C1997  H2104   1.113   .     S
C1997  H2103   1.091   .     S
C1997  C1999   1.533   .     S
C1998  O2146   1.307   .     A
C1998  O2147   1.305   .     A
C1999  H2102   1.108   .     S
C1999  C2000   1.526   .     S
C1999  H2101   1.113   .     S
C2000  H2099   1.108   .     S
C2000  H2578   1.101   1_545 S
C2000  H2580   1.099   1_545 S
C2001  C2002   1.532   .     S
C2001  H2112   1.107   .     S
C2001  H2111   1.107   .     S
C2002  C2003   1.523   .     S
C2002  H2109   1.107   .     S
C2002  H2110   1.110   .     S
C2003  H2106   1.109   .     S
C2003  H2108   1.110   .     S
C2003  H2105   1.106   .     S
C2004  H2120   1.113   .     S
C2004  H2119   1.091   .     S
C2004  C2005   1.533   .     S
C2005  C2006   1.526   .     S
C2005  H2117   1.108   .     S
C2005  H2116   1.113   .     S
C2006  H2114   1.108   .     S
C2006  H2593   1.101   .     S
C2006  H2595   1.099   .     S
C2007  C2008   1.532   .     S
C2007  H2126   1.107   .     S
C2007  H2127   1.107   .     S
C2008  H2124   1.107   .     S
C2008  H2125   1.110   .     S
C2008  C2010   1.523   .     S
C2009  C1204   1.426   1_455 S
C2009  N2133   1.368   .     S
C2010  H2121   1.106   .     S
C2010  H2123   1.110   .     S
C2010  H2122   1.109   .     S
C2011  H2024   1.113   .     S
C2011  C2012   1.533   .     S
C2011  H2023   1.091   .     S
C2012  H2022   1.108   .     S
C2012  C2013   1.526   .     S
C2012  H2021   1.113   .     S
C2013  H2019   1.108   .     S
C2013  H2500   1.099   1_545 S
C2013  H2608   1.101   1_545 S
C2014  H2032   1.107   .     S
C2014  H2031   1.106   .     S
C2014  C2015   1.532   .     S
C2015  C2016   1.523   .     S
C2015  H2030   1.110   .     S
C2015  H2028   1.107   .     S
C2016  H2025   1.106   .     S
C2016  H2027   1.110   .     S
C2016  H2026   1.109   .     S
H2020  C2493   1.099   .     S
H2082  C2473   1.101   1_545 S
H2084  C2473   1.099   1_545 S
H2098  C2480   1.101   .     S
H2100  C2480   1.099   .     S
H2113  C2486   1.101   1_545 S
H2115  C2486   1.099   1_545 S
H2128  C2493   1.101   .     S
N2129  C2164   1.368   1_455 S
N2129  Zn2157  2.032   .     S
N2133  C2163   1.368   1_455 A
N2133  Zn2158  2.032   .     S
N2134  Zn2159  2.032   .     S
N2134  C2406   1.368   1_545 S
N2135  Zn2160  2.032   .     S
N2135  C2407   1.368   1_545 S
O2141  Zn2157  2.075   .     S
O2142  Zn2160  2.075   .     S
O2143  Zn2159  2.075   .     S
O2144  Zn2640  2.075   .     S
O2145  Zn2640  2.075   .     S
O2146  Zn2159  2.075   .     S
O2147  Zn2160  2.075   .     S
O2148  Zn2639  2.075   .     S
O2149  Zn2398  2.075   .     S
O2150  Zn2397  2.075   .     S
O2151  Zn2158  2.075   .     S
O2152  Zn2398  2.075   .     S
O2153  Zn2157  2.075   .     S
O2154  Zn2158  2.075   .     S
O2155  Zn2397  2.075   .     S
O2156  Zn2639  2.075   .     S
Zn2157 O2395   2.075   1_455 S
Zn2157 O2390   2.075   1_455 S
Zn2158 O2392   2.075   1_455 S
Zn2158 O2389   2.075   1_455 S
Zn2159 O2628   2.075   1_545 S
Zn2159 O2636   2.075   1_545 S
Zn2160 O2625   2.075   1_545 S
Zn2160 O2624   2.075   1_545 S
C2161  O2381   1.305   .     A
C2161  O2391   1.307   .     A
C2161  C2190   1.484   .     S
C2162  N2369   1.368   .     A
C2162  C2197   1.432   .     S
C2162  C3      1.426   1_556 S
C2163  C2198   1.432   .     S
C2163  N2133   1.368   1_655 A
C2163  C962    1.426   1_655 S
C2164  C2199   1.432   .     S
C2164  C89     1.426   1_656 S
C2164  N2129   1.368   1_655 S
C2165  N2375   1.368   .     A
C2165  C2200   1.432   .     S
C2166  C2201   1.432   .     S
C2166  C247    1.426   1_556 S
C2166  N2854   1.368   .     S
C2167  C2202   1.432   .     S
C2167  N2855   1.368   .     S
C2168  N2374   1.368   .     A
C2168  C2203   1.432   .     S
C2168  C245    1.426   1_556 S
C2169  C2180   1.398   .     A
C2169  C2204   1.516   .     S
C2169  C2188   1.418   .     A
C2170  C2187   1.416   .     A
C2170  C2181   1.407   .     A
C2170  C2208   1.518   .     S
C2171  C2178   1.398   .     A
C2171  C2187   1.418   .     A
C2171  C2211   1.516   .     S
C2172  C2189   1.484   .     S
C2172  O2389   1.307   .     A
C2172  O2390   1.305   .     A
C2173  C2179   1.407   .     A
C2173  C2188   1.416   .     A
C2173  C2214   1.518   .     S
C2174  C2218   1.516   .     S
C2174  C2190   1.418   .     A
C2174  C2185   1.398   .     A
C2175  C2189   1.416   .     A
C2175  C2221   1.518   .     S
C2175  C2186   1.407   .     A
C2176  C2189   1.418   .     A
C2176  C2182   1.398   .     A
C2176  C2224   1.516   .     S
C2177  C2190   1.416   .     A
C2177  C2184   1.407   .     A
C2177  C2228   1.518   .     S
C2178  C2192   1.418   .     A
C2178  C2231   1.516   .     S
C2179  C2191   1.416   .     A
C2179  C2234   1.518   .     S
C2180  C2237   1.516   .     S
C2180  C2191   1.418   .     A
C2181  C2192   1.416   .     A
C2181  C2241   1.518   .     S
C2182  C2195   1.418   .     A
C2182  C2244   1.516   .     S
C2183  O2392   1.305   .     A
C2183  O2395   1.307   .     A
C2183  C2188   1.484   .     S
C2184  C2193   1.416   .     A
C2184  C2247   1.518   .     S
C2185  C2251   1.516   .     S
C2185  C2193   1.418   .     A
C2186  C2254   1.518   .     S
C2186  C2195   1.416   .     A
C2187  C2194   1.484   .     S
C2191  C2238   1.484   .     S
C2192  C2227   1.484   .     S
C2193  C2216   1.484   .     S
C2194  O2394   1.305   .     A
C2194  O2393   1.307   .     A
C2195  C2205   1.484   .     S
C2196  C2249   1.432   .     S
C2196  N2376   1.156   .     T
C2197  N2377   1.156   .     T
C2198  N2378   1.156   .     T
C2199  N2379   1.156   .     T
C2200  N2380   1.156   .     T
C2201  N2370   1.156   .     T
C2202  N2371   1.156   .     T
C2203  N2372   1.156   .     T
C2204  C2206   1.533   .     S
C2204  H2336   1.113   .     S
C2204  H2325   1.091   .     S
C2205  O2396   1.305   .     A
C2205  O2384   1.307   .     A
C2206  H2314   1.108   .     S
C2206  C2207   1.526   .     S
C2206  H2303   1.113   .     S
C2207  H2281   1.108   .     S
C2207  H2257   1.101   .     S
C2207  H2292   1.099   .     S
C2208  H2275   1.107   .     S
C2208  C2209   1.532   .     S
C2208  H2274   1.106   .     S
C2209  H2273   1.110   .     S
C2209  H2269   1.107   .     S
C2209  C2210   1.523   .     S
C2210  H2358   1.109   .     S
C2210  H2347   1.106   .     S
C2210  H2258   1.110   .     S
C2211  H2283   1.113   .     S
C2211  C2212   1.533   .     S
C2211  H2282   1.091   .     S
C2212  H2280   1.108   .     S
C2212  C2213   1.526   .     S
C2212  H2279   1.113   .     S
C2213  H2277   1.108   .     S
C2213  H2276   1.101   .     S
C2213  H2278   1.099   .     S
C2214  C2215   1.532   .     S
C2214  H2290   1.107   .     S
C2214  H2289   1.106   .     S
C2215  H2287   1.107   .     S
C2215  C2217   1.523   .     S
C2215  H2288   1.110   .     S
C2216  O2383   1.305   .     A
C2216  O2382   1.307   .     A
C2217  H2285   1.109   .     S
C2217  H2286   1.110   .     S
C2217  H2284   1.106   .     S
C2218  H2298   1.113   .     S
C2218  H2297   1.091   .     S
C2218  C2219   1.533   .     S
C2219  H2296   1.108   .     S
C2219  C2220   1.526   .     S
C2219  H2295   1.113   .     S
C2220  H2291   1.101   .     S
C2220  H2294   1.099   .     S
C2220  H2293   1.108   .     S
C2221  C2222   1.532   .     S
C2221  H2305   1.107   .     S
C2221  H2306   1.107   .     S
C2222  H2302   1.107   .     S
C2222  H2304   1.110   .     S
C2222  C2223   1.523   .     S
C2223  H2300   1.109   .     S
C2223  H2301   1.110   .     S
C2223  H2299   1.106   .     S
C2224  H2312   1.091   .     S
C2224  H2313   1.113   .     S
C2224  C2225   1.533   .     S
C2225  H2310   1.113   .     S
C2225  H2311   1.108   .     S
C2225  C2226   1.526   .     S
C2226  H2309   1.099   .     S
C2226  H2308   1.108   .     S
C2226  H2307   1.101   .     S
C2227  O2385   1.305   .     A
C2227  O2388   1.307   .     A
C2228  H2321   1.107   .     S
C2228  C2229   1.532   .     S
C2228  H2320   1.107   .     S
C2229  C2230   1.523   .     S
C2229  H2318   1.107   .     S
C2229  H2319   1.110   .     S
C2230  H2316   1.109   .     S
C2230  H2315   1.106   .     S
C2230  H2317   1.110   .     S
C2231  H2329   1.113   .     S
C2231  H2328   1.091   .     S
C2231  C2232   1.533   .     S
C2232  H2326   1.113   .     S
C2232  H2327   1.108   .     S
C2232  C2233   1.526   .     S
C2233  H2323   1.108   .     S
C2233  H2802   1.101   .     S
C2233  H2804   1.099   .     S
C2234  C2235   1.532   .     S
C2234  H2335   1.107   .     S
C2234  H2337   1.107   .     S
C2235  H2333   1.107   .     S
C2235  C2236   1.523   .     S
C2235  H2334   1.110   .     S
C2236  H2332   1.110   .     S
C2236  H2331   1.109   .     S
C2236  H2330   1.106   .     S
C2237  H2344   1.113   .     S
C2237  H2343   1.091   .     S
C2237  C2239   1.533   .     S
C2238  O2386   1.307   .     A
C2238  O2387   1.305   .     A
C2239  H2342   1.108   .     S
C2239  C2240   1.526   .     S
C2239  H2341   1.113   .     S
C2240  H2339   1.108   .     S
C2240  H2818   1.101   1_545 S
C2240  H2820   1.099   1_545 S
C2241  C2242   1.532   .     S
C2241  H2352   1.107   .     S
C2241  H2351   1.107   .     S
C2242  C2243   1.523   .     S
C2242  H2349   1.107   .     S
C2242  H2350   1.110   .     S
C2243  H2346   1.109   .     S
C2243  H2348   1.110   .     S
C2243  H2345   1.106   .     S
C2244  H2360   1.113   .     S
C2244  H2359   1.091   .     S
C2244  C2245   1.533   .     S
C2245  C2246   1.526   .     S
C2245  H2357   1.108   .     S
C2245  H2356   1.113   .     S
C2246  H2354   1.108   .     S
C2246  H2833   1.101   .     S
C2246  H2835   1.099   .     S
C2247  C2248   1.532   .     S
C2247  H2366   1.107   .     S
C2247  H2367   1.107   .     S
C2248  H2364   1.107   .     S
C2248  H2365   1.110   .     S
C2248  C2250   1.523   .     S
C2249  N2373   1.368   .     S
C2250  H2361   1.106   .     S
C2250  H2363   1.110   .     S
C2250  H2362   1.109   .     S
C2251  H2264   1.113   .     S
C2251  C2252   1.533   .     S
C2251  H2263   1.091   .     S
C2252  H2262   1.108   .     S
C2252  C2253   1.526   .     S
C2252  H2261   1.113   .     S
C2253  H2259   1.108   .     S
C2253  H2740   1.099   1_545 S
C2253  H2848   1.101   1_545 S
C2254  H2272   1.107   .     S
C2254  H2271   1.106   .     S
C2254  C2255   1.532   .     S
C2255  C2256   1.523   .     S
C2255  H2270   1.110   .     S
C2255  H2268   1.107   .     S
C2256  H2265   1.106   .     S
C2256  H2267   1.110   .     S
C2256  H2266   1.109   .     S
H2260  C2733   1.099   .     S
H2322  C2713   1.101   1_545 S
H2324  C2713   1.099   1_545 S
H2338  C2720   1.101   .     S
H2340  C2720   1.099   .     S
H2353  C2726   1.101   1_545 S
H2355  C2726   1.099   1_545 S
H2368  C2733   1.101   .     S
N2369  Zn2397  2.032   .     S
N2373  Zn2398  2.032   .     S
N2374  Zn2399  2.032   .     S
N2374  C2646   1.368   1_545 S
N2375  Zn2400  2.032   .     S
N2375  C2647   1.368   1_545 S
O2381  Zn2397  2.075   .     S
O2382  Zn2400  2.075   .     S
O2383  Zn2399  2.075   .     S
O2384  Zn2880  2.075   .     S
O2385  Zn2880  2.075   .     S
O2386  Zn2399  2.075   .     S
O2387  Zn2400  2.075   .     S
O2388  Zn2879  2.075   .     S
O2389  Zn2158  2.075   1_655 S
O2390  Zn2157  2.075   1_655 S
O2391  Zn2398  2.075   .     S
O2392  Zn2158  2.075   1_655 S
O2393  Zn2397  2.075   .     S
O2394  Zn2398  2.075   .     S
O2395  Zn2157  2.075   1_655 S
O2396  Zn2879  2.075   .     S
Zn2399 O2868   2.075   1_545 S
Zn2399 O2876   2.075   1_545 S
Zn2400 O2865   2.075   1_545 S
Zn2400 O2864   2.075   1_545 S
C2401  O2621   1.305   .     A
C2401  O2631   1.307   .     A
C2401  C2430   1.484   .     S
C2402  N2609   1.368   .     A
C2402  C2437   1.432   .     S
C2402  C723    1.426   1_456 S
C2403  C2438   1.432   .     S
C2403  N2853   1.368   .     A
C2404  C2439   1.432   .     S
C2404  C809    1.426   1_556 S
C2404  N2849   1.368   .     S
C2405  N2615   1.368   .     A
C2405  C2440   1.432   .     S
C2406  C2441   1.432   .     S
C2406  C487    1.426   1_556 S
C2406  N2134   1.368   1_565 S
C2407  C2442   1.432   .     S
C2407  N2135   1.368   1_565 S
C2408  N2614   1.368   .     A
C2408  C2443   1.432   .     S
C2408  C485    1.426   1_556 S
C2409  C2420   1.398   .     A
C2409  C2444   1.516   .     S
C2409  C2428   1.418   .     A
C2410  C2427   1.416   .     A
C2410  C2421   1.407   .     A
C2410  C2448   1.518   .     S
C2411  C2418   1.398   .     A
C2411  C2427   1.418   .     A
C2411  C2451   1.516   .     S
C2412  C2429   1.484   .     S
C2412  O2629   1.307   .     A
C2412  O2630   1.305   .     A
C2413  C2419   1.407   .     A
C2413  C2428   1.416   .     A
C2413  C2454   1.518   .     S
C2414  C2458   1.516   .     S
C2414  C2430   1.418   .     A
C2414  C2425   1.398   .     A
C2415  C2429   1.416   .     A
C2415  C2461   1.518   .     S
C2415  C2426   1.407   .     A
C2416  C2429   1.418   .     A
C2416  C2422   1.398   .     A
C2416  C2464   1.516   .     S
C2417  C2430   1.416   .     A
C2417  C2424   1.407   .     A
C2417  C2468   1.518   .     S
C2418  C2432   1.418   .     A
C2418  C2471   1.516   .     S
C2419  C2431   1.416   .     A
C2419  C2474   1.518   .     S
C2420  C2477   1.516   .     S
C2420  C2431   1.418   .     A
C2421  C2432   1.416   .     A
C2421  C2481   1.518   .     S
C2422  C2435   1.418   .     A
C2422  C2484   1.516   .     S
C2423  O2632   1.305   .     A
C2423  O2635   1.307   .     A
C2423  C2428   1.484   .     S
C2424  C2433   1.416   .     A
C2424  C2487   1.518   .     S
C2425  C2491   1.516   .     S
C2425  C2433   1.418   .     A
C2426  C2494   1.518   .     S
C2426  C2435   1.416   .     A
C2427  C2434   1.484   .     S
C2431  C2478   1.484   .     S
C2432  C2467   1.484   .     S
C2433  C2456   1.484   .     S
C2434  O2634   1.305   .     A
C2434  O2633   1.307   .     A
C2435  C2445   1.484   .     S
C2436  C2489   1.432   .     S
C2436  N2616   1.156   .     T
C2437  N2617   1.156   .     T
C2438  N2618   1.156   .     T
C2439  N2619   1.156   .     T
C2440  N2620   1.156   .     T
C2441  N2610   1.156   .     T
C2442  N2611   1.156   .     T
C2443  N2612   1.156   .     T
C2444  C2446   1.533   .     S
C2444  H2576   1.113   .     S
C2444  H2565   1.091   .     S
C2445  O2636   1.305   .     A
C2445  O2624   1.307   .     A
C2446  H2554   1.108   .     S
C2446  C2447   1.526   .     S
C2446  H2543   1.113   .     S
C2447  H2521   1.108   .     S
C2447  H2497   1.101   .     S
C2447  H2532   1.099   .     S
C2448  H2515   1.107   .     S
C2448  C2449   1.532   .     S
C2448  H2514   1.106   .     S
C2449  H2513   1.110   .     S
C2449  H2509   1.107   .     S
C2449  C2450   1.523   .     S
C2450  H2598   1.109   .     S
C2450  H2587   1.106   .     S
C2450  H2498   1.110   .     S
C2451  H2523   1.113   .     S
C2451  C2452   1.533   .     S
C2451  H2522   1.091   .     S
C2452  H2520   1.108   .     S
C2452  C2453   1.526   .     S
C2452  H2519   1.113   .     S
C2453  H2517   1.108   .     S
C2453  H2516   1.101   .     S
C2453  H2518   1.099   .     S
C2454  C2455   1.532   .     S
C2454  H2530   1.107   .     S
C2454  H2529   1.106   .     S
C2455  H2527   1.107   .     S
C2455  C2457   1.523   .     S
C2455  H2528   1.110   .     S
C2456  O2623   1.305   .     A
C2456  O2622   1.307   .     A
C2457  H2525   1.109   .     S
C2457  H2526   1.110   .     S
C2457  H2524   1.106   .     S
C2458  H2538   1.113   .     S
C2458  H2537   1.091   .     S
C2458  C2459   1.533   .     S
C2459  H2536   1.108   .     S
C2459  C2460   1.526   .     S
C2459  H2535   1.113   .     S
C2460  H2531   1.101   .     S
C2460  H2534   1.099   .     S
C2460  H2533   1.108   .     S
C2461  C2462   1.532   .     S
C2461  H2545   1.107   .     S
C2461  H2546   1.107   .     S
C2462  H2542   1.107   .     S
C2462  H2544   1.110   .     S
C2462  C2463   1.523   .     S
C2463  H2540   1.109   .     S
C2463  H2541   1.110   .     S
C2463  H2539   1.106   .     S
C2464  H2552   1.091   .     S
C2464  H2553   1.113   .     S
C2464  C2465   1.533   .     S
C2465  H2550   1.113   .     S
C2465  H2551   1.108   .     S
C2465  C2466   1.526   .     S
C2466  H2549   1.099   .     S
C2466  H2548   1.108   .     S
C2466  H2547   1.101   .     S
C2467  O2625   1.305   .     A
C2467  O2628   1.307   .     A
C2468  H2561   1.107   .     S
C2468  C2469   1.532   .     S
C2468  H2560   1.107   .     S
C2469  C2470   1.523   .     S
C2469  H2558   1.107   .     S
C2469  H2559   1.110   .     S
C2470  H2556   1.109   .     S
C2470  H2555   1.106   .     S
C2470  H2557   1.110   .     S
C2471  H2569   1.113   .     S
C2471  H2568   1.091   .     S
C2471  C2472   1.533   .     S
C2472  H2566   1.113   .     S
C2472  H2567   1.108   .     S
C2472  C2473   1.526   .     S
C2473  H2563   1.108   .     S
C2473  H2082   1.101   1_565 S
C2473  H2084   1.099   1_565 S
C2474  C2475   1.532   .     S
C2474  H2575   1.107   .     S
C2474  H2577   1.107   .     S
C2475  H2573   1.107   .     S
C2475  C2476   1.523   .     S
C2475  H2574   1.110   .     S
C2476  H2572   1.110   .     S
C2476  H2571   1.109   .     S
C2476  H2570   1.106   .     S
C2477  H2584   1.113   .     S
C2477  H2583   1.091   .     S
C2477  C2479   1.533   .     S
C2478  O2626   1.307   .     A
C2478  O2627   1.305   .     A
C2479  H2582   1.108   .     S
C2479  C2480   1.526   .     S
C2479  H2581   1.113   .     S
C2480  H2579   1.108   .     S
C2481  C2482   1.532   .     S
C2481  H2592   1.107   .     S
C2481  H2591   1.107   .     S
C2482  C2483   1.523   .     S
C2482  H2589   1.107   .     S
C2482  H2590   1.110   .     S
C2483  H2586   1.109   .     S
C2483  H2588   1.110   .     S
C2483  H2585   1.106   .     S
C2484  H2600   1.113   .     S
C2484  H2599   1.091   .     S
C2484  C2485   1.533   .     S
C2485  C2486   1.526   .     S
C2485  H2597   1.108   .     S
C2485  H2596   1.113   .     S
C2486  H2594   1.108   .     S
C2486  H2113   1.101   1_565 S
C2486  H2115   1.099   1_565 S
C2487  C2488   1.532   .     S
C2487  H2606   1.107   .     S
C2487  H2607   1.107   .     S
C2488  H2604   1.107   .     S
C2488  H2605   1.110   .     S
C2488  C2490   1.523   .     S
C2489  C1684   1.426   1_455 S
C2489  N2613   1.368   .     S
C2490  H2601   1.106   .     S
C2490  H2603   1.110   .     S
C2490  H2602   1.109   .     S
C2491  H2504   1.113   .     S
C2491  C2492   1.533   .     S
C2491  H2503   1.091   .     S
C2492  H2502   1.108   .     S
C2492  C2493   1.526   .     S
C2492  H2501   1.113   .     S
C2493  H2499   1.108   .     S
C2494  H2512   1.107   .     S
C2494  H2511   1.106   .     S
C2494  C2495   1.532   .     S
C2495  C2496   1.523   .     S
C2495  H2510   1.110   .     S
C2495  H2508   1.107   .     S
C2496  H2505   1.106   .     S
C2496  H2507   1.110   .     S
C2496  H2506   1.109   .     S
H2500  C2013   1.099   1_565 S
H2578  C2000   1.101   1_565 S
H2580  C2000   1.099   1_565 S
H2608  C2013   1.101   1_565 S
N2609  C2644   1.368   1_455 S
N2609  Zn2637  2.032   .     S
N2613  C2643   1.368   1_455 A
N2613  Zn2638  2.032   .     S
N2614  Zn2639  2.032   .     S
N2615  Zn2640  2.032   .     S
O2621  Zn2637  2.075   .     S
O2622  Zn2640  2.075   .     S
O2623  Zn2639  2.075   .     S
O2624  Zn2160  2.075   1_565 S
O2625  Zn2160  2.075   1_565 S
O2626  Zn2639  2.075   .     S
O2627  Zn2640  2.075   .     S
O2628  Zn2159  2.075   1_565 S
O2629  Zn2878  2.075   .     S
O2630  Zn2877  2.075   .     S
O2631  Zn2638  2.075   .     S
O2632  Zn2878  2.075   .     S
O2633  Zn2637  2.075   .     S
O2634  Zn2638  2.075   .     S
O2635  Zn2877  2.075   .     S
O2636  Zn2159  2.075   1_565 S
Zn2637 O2875   2.075   1_455 S
Zn2637 O2870   2.075   1_455 S
Zn2638 O2872   2.075   1_455 S
Zn2638 O2869   2.075   1_455 S
C2641  O2861   1.305   .     A
C2641  O2871   1.307   .     A
C2641  C2670   1.484   .     S
C2642  N2849   1.368   .     A
C2642  C2677   1.432   .     S
C2642  C483    1.426   1_556 S
C2643  C2678   1.432   .     S
C2643  N2613   1.368   1_655 A
C2643  C1442   1.426   1_655 S
C2644  C2679   1.432   .     S
C2644  C569    1.426   1_656 S
C2644  N2609   1.368   1_655 S
C2645  N2855   1.368   .     A
C2645  C2680   1.432   .     S
C2646  C2681   1.432   .     S
C2646  C727    1.426   1_556 S
C2646  N2374   1.368   1_565 S
C2647  C2682   1.432   .     S
C2647  N2375   1.368   1_565 S
C2648  N2854   1.368   .     A
C2648  C2683   1.432   .     S
C2648  C725    1.426   1_556 S
C2649  C2660   1.398   .     A
C2649  C2684   1.516   .     S
C2649  C2668   1.418   .     A
C2650  C2667   1.416   .     A
C2650  C2661   1.407   .     A
C2650  C2688   1.518   .     S
C2651  C2658   1.398   .     A
C2651  C2667   1.418   .     A
C2651  C2691   1.516   .     S
C2652  C2669   1.484   .     S
C2652  O2869   1.307   .     A
C2652  O2870   1.305   .     A
C2653  C2659   1.407   .     A
C2653  C2668   1.416   .     A
C2653  C2694   1.518   .     S
C2654  C2698   1.516   .     S
C2654  C2670   1.418   .     A
C2654  C2665   1.398   .     A
C2655  C2669   1.416   .     A
C2655  C2701   1.518   .     S
C2655  C2666   1.407   .     A
C2656  C2669   1.418   .     A
C2656  C2662   1.398   .     A
C2656  C2704   1.516   .     S
C2657  C2670   1.416   .     A
C2657  C2664   1.407   .     A
C2657  C2708   1.518   .     S
C2658  C2672   1.418   .     A
C2658  C2711   1.516   .     S
C2659  C2671   1.416   .     A
C2659  C2714   1.518   .     S
C2660  C2717   1.516   .     S
C2660  C2671   1.418   .     A
C2661  C2672   1.416   .     A
C2661  C2721   1.518   .     S
C2662  C2675   1.418   .     A
C2662  C2724   1.516   .     S
C2663  O2872   1.305   .     A
C2663  O2875   1.307   .     A
C2663  C2668   1.484   .     S
C2664  C2673   1.416   .     A
C2664  C2727   1.518   .     S
C2665  C2731   1.516   .     S
C2665  C2673   1.418   .     A
C2666  C2734   1.518   .     S
C2666  C2675   1.416   .     A
C2667  C2674   1.484   .     S
C2671  C2718   1.484   .     S
C2672  C2707   1.484   .     S
C2673  C2696   1.484   .     S
C2674  O2874   1.305   .     A
C2674  O2873   1.307   .     A
C2675  C2685   1.484   .     S
C2676  C2729   1.432   .     S
C2676  N2856   1.156   .     T
C2677  N2857   1.156   .     T
C2678  N2858   1.156   .     T
C2679  N2859   1.156   .     T
C2680  N2860   1.156   .     T
C2681  N2850   1.156   .     T
C2682  N2851   1.156   .     T
C2683  N2852   1.156   .     T
C2684  C2686   1.533   .     S
C2684  H2816   1.113   .     S
C2684  H2805   1.091   .     S
C2685  O2876   1.305   .     A
C2685  O2864   1.307   .     A
C2686  H2794   1.108   .     S
C2686  C2687   1.526   .     S
C2686  H2783   1.113   .     S
C2687  H2761   1.108   .     S
C2687  H2737   1.101   .     S
C2687  H2772   1.099   .     S
C2688  H2755   1.107   .     S
C2688  C2689   1.532   .     S
C2688  H2754   1.106   .     S
C2689  H2753   1.110   .     S
C2689  H2749   1.107   .     S
C2689  C2690   1.523   .     S
C2690  H2838   1.109   .     S
C2690  H2827   1.106   .     S
C2690  H2738   1.110   .     S
C2691  H2763   1.113   .     S
C2691  C2692   1.533   .     S
C2691  H2762   1.091   .     S
C2692  H2760   1.108   .     S
C2692  C2693   1.526   .     S
C2692  H2759   1.113   .     S
C2693  H2757   1.108   .     S
C2693  H2756   1.101   .     S
C2693  H2758   1.099   .     S
C2694  C2695   1.532   .     S
C2694  H2770   1.107   .     S
C2694  H2769   1.106   .     S
C2695  H2767   1.107   .     S
C2695  C2697   1.523   .     S
C2695  H2768   1.110   .     S
C2696  O2863   1.305   .     A
C2696  O2862   1.307   .     A
C2697  H2765   1.109   .     S
C2697  H2766   1.110   .     S
C2697  H2764   1.106   .     S
C2698  H2778   1.113   .     S
C2698  H2777   1.091   .     S
C2698  C2699   1.533   .     S
C2699  H2776   1.108   .     S
C2699  C2700   1.526   .     S
C2699  H2775   1.113   .     S
C2700  H2771   1.101   .     S
C2700  H2774   1.099   .     S
C2700  H2773   1.108   .     S
C2701  C2702   1.532   .     S
C2701  H2785   1.107   .     S
C2701  H2786   1.107   .     S
C2702  H2782   1.107   .     S
C2702  H2784   1.110   .     S
C2702  C2703   1.523   .     S
C2703  H2780   1.109   .     S
C2703  H2781   1.110   .     S
C2703  H2779   1.106   .     S
C2704  H2792   1.091   .     S
C2704  H2793   1.113   .     S
C2704  C2705   1.533   .     S
C2705  H2790   1.113   .     S
C2705  H2791   1.108   .     S
C2705  C2706   1.526   .     S
C2706  H2789   1.099   .     S
C2706  H2788   1.108   .     S
C2706  H2787   1.101   .     S
C2707  O2865   1.305   .     A
C2707  O2868   1.307   .     A
C2708  H2801   1.107   .     S
C2708  C2709   1.532   .     S
C2708  H2800   1.107   .     S
C2709  C2710   1.523   .     S
C2709  H2798   1.107   .     S
C2709  H2799   1.110   .     S
C2710  H2796   1.109   .     S
C2710  H2795   1.106   .     S
C2710  H2797   1.110   .     S
C2711  H2809   1.113   .     S
C2711  H2808   1.091   .     S
C2711  C2712   1.533   .     S
C2712  H2806   1.113   .     S
C2712  H2807   1.108   .     S
C2712  C2713   1.526   .     S
C2713  H2803   1.108   .     S
C2713  H2322   1.101   1_565 S
C2713  H2324   1.099   1_565 S
C2714  C2715   1.532   .     S
C2714  H2815   1.107   .     S
C2714  H2817   1.107   .     S
C2715  H2813   1.107   .     S
C2715  C2716   1.523   .     S
C2715  H2814   1.110   .     S
C2716  H2812   1.110   .     S
C2716  H2811   1.109   .     S
C2716  H2810   1.106   .     S
C2717  H2824   1.113   .     S
C2717  H2823   1.091   .     S
C2717  C2719   1.533   .     S
C2718  O2866   1.307   .     A
C2718  O2867   1.305   .     A
C2719  H2822   1.108   .     S
C2719  C2720   1.526   .     S
C2719  H2821   1.113   .     S
C2720  H2819   1.108   .     S
C2721  C2722   1.532   .     S
C2721  H2832   1.107   .     S
C2721  H2831   1.107   .     S
C2722  C2723   1.523   .     S
C2722  H2829   1.107   .     S
C2722  H2830   1.110   .     S
C2723  H2826   1.109   .     S
C2723  H2828   1.110   .     S
C2723  H2825   1.106   .     S
C2724  H2840   1.113   .     S
C2724  H2839   1.091   .     S
C2724  C2725   1.533   .     S
C2725  C2726   1.526   .     S
C2725  H2837   1.108   .     S
C2725  H2836   1.113   .     S
C2726  H2834   1.108   .     S
C2726  H2353   1.101   1_565 S
C2726  H2355   1.099   1_565 S
C2727  C2728   1.532   .     S
C2727  H2846   1.107   .     S
C2727  H2847   1.107   .     S
C2728  H2844   1.107   .     S
C2728  H2845   1.110   .     S
C2728  C2730   1.523   .     S
C2729  N2853   1.368   .     S
C2730  H2841   1.106   .     S
C2730  H2843   1.110   .     S
C2730  H2842   1.109   .     S
C2731  H2744   1.113   .     S
C2731  C2732   1.533   .     S
C2731  H2743   1.091   .     S
C2732  H2742   1.108   .     S
C2732  C2733   1.526   .     S
C2732  H2741   1.113   .     S
C2733  H2739   1.108   .     S
C2734  H2752   1.107   .     S
C2734  H2751   1.106   .     S
C2734  C2735   1.532   .     S
C2735  C2736   1.523   .     S
C2735  H2750   1.110   .     S
C2735  H2748   1.107   .     S
C2736  H2745   1.106   .     S
C2736  H2747   1.110   .     S
C2736  H2746   1.109   .     S
H2740  C2253   1.099   1_565 S
H2818  C2240   1.101   1_565 S
H2820  C2240   1.099   1_565 S
H2848  C2253   1.101   1_565 S
N2849  Zn2877  2.032   .     S
N2853  Zn2878  2.032   .     S
N2854  Zn2879  2.032   .     S
N2855  Zn2880  2.032   .     S
O2861  Zn2877  2.075   .     S
O2862  Zn2880  2.075   .     S
O2863  Zn2879  2.075   .     S
O2864  Zn2400  2.075   1_565 S
O2865  Zn2400  2.075   1_565 S
O2866  Zn2879  2.075   .     S
O2867  Zn2880  2.075   .     S
O2868  Zn2399  2.075   1_565 S
O2869  Zn2638  2.075   1_655 S
O2870  Zn2637  2.075   1_655 S
O2871  Zn2878  2.075   .     S
O2872  Zn2638  2.075   1_655 S
O2873  Zn2877  2.075   .     S
O2874  Zn2878  2.075   .     S
O2875  Zn2637  2.075   1_655 S
O2876  Zn2399  2.075   1_565 S
