data_str_m3_o1_o2_pcu_sym.138
_audit_creation_date              2020-01-03
_audit_creation_method            'Materials Studio'
_symmetry_space_group_name_H-M    'P1'
_symmetry_Int_Tables_number       1
_symmetry_cell_setting            triclinic
loop_
_symmetry_equiv_pos_as_xyz
  x,y,z
_cell_length_a                    32.2181
_cell_length_b                    29.9414
_cell_length_c                    29.9953
_cell_angle_alpha                 89.7770
_cell_angle_beta                  93.8393
_cell_angle_gamma                 89.9812
loop_
_atom_site_label
_atom_site_type_symbol
_atom_site_fract_x
_atom_site_fract_y
_atom_site_fract_z
_atom_site_U_iso_or_equiv
_atom_site_adp_type
_atom_site_occupancy
C1     C     0.08703   0.16663   0.25410   0.00000  Uiso   1.00
C2     C     0.24628   0.16665   0.24581   0.00000  Uiso   1.00
C3     C     0.16610   0.16670   0.16432   0.00000  Uiso   1.00
C4     C     0.16706   0.16649   0.33572   0.00000  Uiso   1.00
C5     C     0.19252   0.02385   0.27987   0.00000  Uiso   1.00
C6     C     0.14078   0.30962   0.22021   0.00000  Uiso   1.00
C7     C     0.14081   0.02408   0.22012   0.00000  Uiso   1.00
C8     C     0.19260   0.30939   0.27976   0.00000  Uiso   1.00
C9     C     0.02097   0.12554   0.25617   0.00000  Uiso   1.00
C10    C     0.31233   0.20747   0.24325   0.00000  Uiso   1.00
C11    C     0.31233   0.12558   0.24349   0.00000  Uiso   1.00
C12    C     0.02090   0.20744   0.25625   0.00000  Uiso   1.00
C13    C     0.12966   0.17470   0.04455   0.00000  Uiso   1.00
C14    C     0.13328   0.14800   0.45025   0.00000  Uiso   1.00
C15    C     0.20125   0.18334   0.45529   0.00000  Uiso   1.00
C16    C     0.20348   0.15713   0.05048   0.00000  Uiso   1.00
C17    C     0.12875   0.17373   0.09071   0.00000  Uiso   1.00
C18    C     0.13273   0.14857   0.40398   0.00000  Uiso   1.00
C19    C     0.20264   0.18178   0.40924   0.00000  Uiso   1.00
C20    C     0.20378   0.15813   0.09673   0.00000  Uiso   1.00
C21    C     0.16624   0.16660   0.11661   0.00000  Uiso   1.00
C22    C     0.16753   0.16577   0.38356   0.00000  Uiso   1.00
C23    C     0.16676   0.16612   0.02439   0.00000  Uiso   1.00
C24    C     0.16701   0.16603   0.47589   0.00000  Uiso   1.00
C25    C     0.29066   0.16656   0.24143   0.00000  Uiso   1.00
C26    C     0.04261   0.16652   0.25824   0.00000  Uiso   1.00
H27    H     0.10138   0.18217   0.02432   0.00000  Uiso   1.00
H28    H     0.10738   0.13333   0.46631   0.00000  Uiso   1.00
H29    H     0.22734   0.19752   0.47508   0.00000  Uiso   1.00
H30    H     0.23187   0.14911   0.03481   0.00000  Uiso   1.00
N31    N     0.16667   0.28573   0.25000   0.00000  Uiso   1.00
N32    N     0.16667   0.04760   0.25000   0.00000  Uiso   1.00
O33    O     0.10559   0.20487   0.25000   0.00000  Uiso   1.00
O34    O     0.22774   0.12846   0.25000   0.00000  Uiso   1.00
O35    O     0.22774   0.20487   0.25000   0.00000  Uiso   1.00
O36    O     0.10559   0.12846   0.25000   0.00000  Uiso   1.00
O37    O     0.16666   0.20489   0.18453   0.00000  Uiso   1.00
O38    O     0.16667   0.12845   0.31547   0.00000  Uiso   1.00
O39    O     0.16667   0.20489   0.31547   0.00000  Uiso   1.00
O40    O     0.16666   0.12845   0.18453   0.00000  Uiso   1.00
Zn41   Zn    0.16667   0.21771   0.25000   0.00000  Uiso   1.00
Zn42   Zn    0.16667   0.11563   0.25000   0.00000  Uiso   1.00
C43    C     0.22142   0.04748   0.31396   0.00000  Uiso   1.00
H44    H     0.22216   0.08351   0.31047   0.00000  Uiso   1.00
H45    H     0.21224   0.03990   0.34819   0.00000  Uiso   1.00
H46    H     0.25405   0.03689   0.31082   0.00000  Uiso   1.00
C47    C     0.11169   0.28609   0.18653   0.00000  Uiso   1.00
H48    H     0.11147   0.25026   0.19067   0.00000  Uiso   1.00
H49    H     0.07906   0.29650   0.19003   0.00000  Uiso   1.00
H50    H     0.12056   0.29342   0.15213   0.00000  Uiso   1.00
C51    C     0.11183   0.04792   0.18605   0.00000  Uiso   1.00
H52    H     0.11092   0.08391   0.18961   0.00000  Uiso   1.00
H53    H     0.12104   0.04069   0.15181   0.00000  Uiso   1.00
H54    H     0.07924   0.03718   0.18917   0.00000  Uiso   1.00
C55    C     0.22181   0.28568   0.31343   0.00000  Uiso   1.00
H56    H     0.22219   0.24982   0.30966   0.00000  Uiso   1.00
H57    H     0.25440   0.29617   0.30977   0.00000  Uiso   1.00
H58    H     0.21300   0.29302   0.34778   0.00000  Uiso   1.00
C59    C     0.08770   0.17924   0.11152   0.00000  Uiso   1.00
H60    H     0.08757   0.21083   0.13041   0.00000  Uiso   1.00
H61    H     0.06118   0.18027   0.08590   0.00000  Uiso   1.00
H62    H     0.08252   0.15079   0.13437   0.00000  Uiso   1.00
C63    C     0.09491   0.13114   0.37711   0.00000  Uiso   1.00
H64    H     0.08215   0.15752   0.35395   0.00000  Uiso   1.00
H65    H     0.10349   0.10147   0.35768   0.00000  Uiso   1.00
H66    H     0.06988   0.12098   0.39877   0.00000  Uiso   1.00
C67    C     0.24264   0.19553   0.38955   0.00000  Uiso   1.00
H68    H     0.24777   0.23186   0.39456   0.00000  Uiso   1.00
H69    H     0.26909   0.17718   0.40679   0.00000  Uiso   1.00
H70    H     0.24319   0.18770   0.35353   0.00000  Uiso   1.00
C71    C     0.24403   0.15015   0.12429   0.00000  Uiso   1.00
H72    H     0.25145   0.17961   0.14573   0.00000  Uiso   1.00
H73    H     0.24102   0.12018   0.14567   0.00000  Uiso   1.00
H74    H     0.27050   0.14461   0.10307   0.00000  Uiso   1.00
Br75   Br    0.04552   0.06928   0.27692   0.00000  Uiso   1.00
Br76   Br    0.28791   0.26342   0.22153   0.00000  Uiso   1.00
Br77   Br    0.28775   0.06947   0.22282   0.00000  Uiso   1.00
Br78   Br    0.04521   0.26331   0.27783   0.00000  Uiso   1.00
C79    C     0.42036   0.16663   0.25410   0.00000  Uiso   1.00
C80    C     0.57961   0.16665   0.24581   0.00000  Uiso   1.00
C81    C     0.49943   0.16670   0.16432   0.00000  Uiso   1.00
C82    C     0.50039   0.16649   0.33572   0.00000  Uiso   1.00
C83    C     0.52586   0.02385   0.27987   0.00000  Uiso   1.00
C84    C     0.47412   0.30962   0.22021   0.00000  Uiso   1.00
C85    C     0.47414   0.02408   0.22012   0.00000  Uiso   1.00
C86    C     0.52593   0.30939   0.27976   0.00000  Uiso   1.00
C87    C     0.35430   0.12554   0.25617   0.00000  Uiso   1.00
C88    C     0.64567   0.20747   0.24325   0.00000  Uiso   1.00
C89    C     0.64566   0.12558   0.24349   0.00000  Uiso   1.00
C90    C     0.35423   0.20744   0.25625   0.00000  Uiso   1.00
C91    C     0.46300   0.17470   0.04455   0.00000  Uiso   1.00
C92    C     0.46661   0.14800   0.45025   0.00000  Uiso   1.00
C93    C     0.53458   0.18334   0.45529   0.00000  Uiso   1.00
C94    C     0.53681   0.15713   0.05048   0.00000  Uiso   1.00
C95    C     0.46208   0.17373   0.09071   0.00000  Uiso   1.00
C96    C     0.46606   0.14857   0.40398   0.00000  Uiso   1.00
C97    C     0.53598   0.18178   0.40924   0.00000  Uiso   1.00
C98    C     0.53712   0.15813   0.09673   0.00000  Uiso   1.00
C99    C     0.49957   0.16660   0.11661   0.00000  Uiso   1.00
C100   C     0.50087   0.16577   0.38356   0.00000  Uiso   1.00
C101   C     0.50009   0.16612   0.02439   0.00000  Uiso   1.00
C102   C     0.50035   0.16603   0.47589   0.00000  Uiso   1.00
C103   C     0.62399   0.16656   0.24143   0.00000  Uiso   1.00
C104   C     0.37594   0.16652   0.25824   0.00000  Uiso   1.00
H105   H     0.43471   0.18217   0.02432   0.00000  Uiso   1.00
H106   H     0.44071   0.13333   0.46631   0.00000  Uiso   1.00
H107   H     0.56068   0.19752   0.47508   0.00000  Uiso   1.00
H108   H     0.56521   0.14911   0.03481   0.00000  Uiso   1.00
N109   N     0.50000   0.28573   0.25000   0.00000  Uiso   1.00
N110   N     0.50000   0.04760   0.25000   0.00000  Uiso   1.00
O111   O     0.43892   0.20487   0.25000   0.00000  Uiso   1.00
O112   O     0.56108   0.12846   0.25000   0.00000  Uiso   1.00
O113   O     0.56108   0.20487   0.25000   0.00000  Uiso   1.00
O114   O     0.43892   0.12846   0.25000   0.00000  Uiso   1.00
O115   O     0.50000   0.20489   0.18453   0.00000  Uiso   1.00
O116   O     0.50000   0.12845   0.31547   0.00000  Uiso   1.00
O117   O     0.50000   0.20489   0.31547   0.00000  Uiso   1.00
O118   O     0.50000   0.12845   0.18453   0.00000  Uiso   1.00
Zn119  Zn    0.50000   0.21771   0.25000   0.00000  Uiso   1.00
Zn120  Zn    0.50000   0.11563   0.25000   0.00000  Uiso   1.00
C121   C     0.55475   0.04748   0.31396   0.00000  Uiso   1.00
H122   H     0.55549   0.08351   0.31047   0.00000  Uiso   1.00
H123   H     0.54557   0.03990   0.34819   0.00000  Uiso   1.00
H124   H     0.58738   0.03689   0.31082   0.00000  Uiso   1.00
C125   C     0.44503   0.28609   0.18653   0.00000  Uiso   1.00
H126   H     0.44481   0.25026   0.19067   0.00000  Uiso   1.00
H127   H     0.41240   0.29650   0.19003   0.00000  Uiso   1.00
H128   H     0.45390   0.29342   0.15213   0.00000  Uiso   1.00
C129   C     0.44517   0.04792   0.18605   0.00000  Uiso   1.00
H130   H     0.44426   0.08391   0.18961   0.00000  Uiso   1.00
H131   H     0.45437   0.04069   0.15181   0.00000  Uiso   1.00
H132   H     0.41258   0.03718   0.18917   0.00000  Uiso   1.00
C133   C     0.55515   0.28568   0.31343   0.00000  Uiso   1.00
H134   H     0.55553   0.24982   0.30966   0.00000  Uiso   1.00
H135   H     0.58773   0.29617   0.30977   0.00000  Uiso   1.00
H136   H     0.54633   0.29302   0.34778   0.00000  Uiso   1.00
C137   C     0.42104   0.17924   0.11152   0.00000  Uiso   1.00
H138   H     0.42091   0.21083   0.13041   0.00000  Uiso   1.00
H139   H     0.39451   0.18027   0.08590   0.00000  Uiso   1.00
H140   H     0.41586   0.15079   0.13437   0.00000  Uiso   1.00
C141   C     0.42824   0.13114   0.37711   0.00000  Uiso   1.00
H142   H     0.41549   0.15752   0.35395   0.00000  Uiso   1.00
H143   H     0.43682   0.10147   0.35768   0.00000  Uiso   1.00
H144   H     0.40321   0.12098   0.39877   0.00000  Uiso   1.00
C145   C     0.57597   0.19553   0.38955   0.00000  Uiso   1.00
H146   H     0.58110   0.23186   0.39456   0.00000  Uiso   1.00
H147   H     0.60242   0.17718   0.40679   0.00000  Uiso   1.00
H148   H     0.57652   0.18770   0.35353   0.00000  Uiso   1.00
C149   C     0.57737   0.15015   0.12429   0.00000  Uiso   1.00
H150   H     0.58479   0.17961   0.14573   0.00000  Uiso   1.00
H151   H     0.57436   0.12018   0.14567   0.00000  Uiso   1.00
H152   H     0.60384   0.14461   0.10307   0.00000  Uiso   1.00
Br153  Br    0.37885   0.06928   0.27692   0.00000  Uiso   1.00
Br154  Br    0.62124   0.26342   0.22153   0.00000  Uiso   1.00
Br155  Br    0.62108   0.06947   0.22282   0.00000  Uiso   1.00
Br156  Br    0.37854   0.26331   0.27783   0.00000  Uiso   1.00
C157   C     0.75369   0.16663   0.25410   0.00000  Uiso   1.00
C158   C     0.91295   0.16665   0.24581   0.00000  Uiso   1.00
C159   C     0.83277   0.16670   0.16432   0.00000  Uiso   1.00
C160   C     0.83372   0.16649   0.33572   0.00000  Uiso   1.00
C161   C     0.85919   0.02385   0.27987   0.00000  Uiso   1.00
C162   C     0.80745   0.30962   0.22021   0.00000  Uiso   1.00
C163   C     0.80748   0.02408   0.22012   0.00000  Uiso   1.00
C164   C     0.85927   0.30939   0.27976   0.00000  Uiso   1.00
C165   C     0.68764   0.12554   0.25617   0.00000  Uiso   1.00
C166   C     0.97900   0.20747   0.24325   0.00000  Uiso   1.00
C167   C     0.97899   0.12558   0.24349   0.00000  Uiso   1.00
C168   C     0.68756   0.20744   0.25625   0.00000  Uiso   1.00
C169   C     0.79633   0.17470   0.04455   0.00000  Uiso   1.00
C170   C     0.79994   0.14800   0.45025   0.00000  Uiso   1.00
C171   C     0.86791   0.18334   0.45529   0.00000  Uiso   1.00
C172   C     0.87015   0.15713   0.05048   0.00000  Uiso   1.00
C173   C     0.79541   0.17373   0.09071   0.00000  Uiso   1.00
C174   C     0.79940   0.14857   0.40398   0.00000  Uiso   1.00
C175   C     0.86931   0.18178   0.40924   0.00000  Uiso   1.00
C176   C     0.87045   0.15813   0.09673   0.00000  Uiso   1.00
C177   C     0.83291   0.16660   0.11661   0.00000  Uiso   1.00
C178   C     0.83420   0.16577   0.38356   0.00000  Uiso   1.00
C179   C     0.83342   0.16612   0.02439   0.00000  Uiso   1.00
C180   C     0.83368   0.16603   0.47589   0.00000  Uiso   1.00
C181   C     0.95733   0.16656   0.24143   0.00000  Uiso   1.00
C182   C     0.70928   0.16652   0.25824   0.00000  Uiso   1.00
H183   H     0.76804   0.18217   0.02432   0.00000  Uiso   1.00
H184   H     0.77404   0.13333   0.46631   0.00000  Uiso   1.00
H185   H     0.89401   0.19752   0.47508   0.00000  Uiso   1.00
H186   H     0.89854   0.14911   0.03481   0.00000  Uiso   1.00
N187   N     0.83333   0.28573   0.25000   0.00000  Uiso   1.00
N188   N     0.83333   0.04760   0.25000   0.00000  Uiso   1.00
O189   O     0.77226   0.20487   0.25000   0.00000  Uiso   1.00
O190   O     0.89441   0.12846   0.25000   0.00000  Uiso   1.00
O191   O     0.89441   0.20487   0.25000   0.00000  Uiso   1.00
O192   O     0.77226   0.12846   0.25000   0.00000  Uiso   1.00
O193   O     0.83333   0.20489   0.18453   0.00000  Uiso   1.00
O194   O     0.83334   0.12845   0.31547   0.00000  Uiso   1.00
O195   O     0.83334   0.20489   0.31547   0.00000  Uiso   1.00
O196   O     0.83333   0.12845   0.18453   0.00000  Uiso   1.00
Zn197  Zn    0.83333   0.21771   0.25000   0.00000  Uiso   1.00
Zn198  Zn    0.83333   0.11563   0.25000   0.00000  Uiso   1.00
C199   C     0.88808   0.04748   0.31396   0.00000  Uiso   1.00
H200   H     0.88882   0.08351   0.31047   0.00000  Uiso   1.00
H201   H     0.87890   0.03990   0.34819   0.00000  Uiso   1.00
H202   H     0.92071   0.03689   0.31082   0.00000  Uiso   1.00
C203   C     0.77836   0.28609   0.18653   0.00000  Uiso   1.00
H204   H     0.77814   0.25026   0.19067   0.00000  Uiso   1.00
H205   H     0.74573   0.29650   0.19003   0.00000  Uiso   1.00
H206   H     0.78723   0.29342   0.15213   0.00000  Uiso   1.00
C207   C     0.77850   0.04792   0.18605   0.00000  Uiso   1.00
H208   H     0.77759   0.08391   0.18961   0.00000  Uiso   1.00
H209   H     0.78770   0.04069   0.15181   0.00000  Uiso   1.00
H210   H     0.74591   0.03718   0.18917   0.00000  Uiso   1.00
C211   C     0.88848   0.28568   0.31343   0.00000  Uiso   1.00
H212   H     0.88886   0.24982   0.30966   0.00000  Uiso   1.00
H213   H     0.92107   0.29617   0.30977   0.00000  Uiso   1.00
H214   H     0.87967   0.29302   0.34778   0.00000  Uiso   1.00
C215   C     0.75437   0.17924   0.11152   0.00000  Uiso   1.00
H216   H     0.75424   0.21083   0.13041   0.00000  Uiso   1.00
H217   H     0.72784   0.18027   0.08590   0.00000  Uiso   1.00
H218   H     0.74919   0.15079   0.13437   0.00000  Uiso   1.00
C219   C     0.76157   0.13114   0.37711   0.00000  Uiso   1.00
H220   H     0.74882   0.15752   0.35395   0.00000  Uiso   1.00
H221   H     0.77016   0.10147   0.35768   0.00000  Uiso   1.00
H222   H     0.73654   0.12098   0.39877   0.00000  Uiso   1.00
C223   C     0.90931   0.19553   0.38955   0.00000  Uiso   1.00
H224   H     0.91444   0.23186   0.39456   0.00000  Uiso   1.00
H225   H     0.93576   0.17718   0.40679   0.00000  Uiso   1.00
H226   H     0.90986   0.18770   0.35353   0.00000  Uiso   1.00
C227   C     0.91070   0.15015   0.12429   0.00000  Uiso   1.00
H228   H     0.91812   0.17961   0.14573   0.00000  Uiso   1.00
H229   H     0.90769   0.12018   0.14567   0.00000  Uiso   1.00
H230   H     0.93717   0.14461   0.10307   0.00000  Uiso   1.00
Br231  Br    0.71219   0.06928   0.27692   0.00000  Uiso   1.00
Br232  Br    0.95457   0.26342   0.22153   0.00000  Uiso   1.00
Br233  Br    0.95442   0.06947   0.22282   0.00000  Uiso   1.00
Br234  Br    0.71188   0.26331   0.27783   0.00000  Uiso   1.00
C235   C     0.08703   0.49997   0.25410   0.00000  Uiso   1.00
C236   C     0.24628   0.49999   0.24581   0.00000  Uiso   1.00
C237   C     0.16610   0.50004   0.16432   0.00000  Uiso   1.00
C238   C     0.16706   0.49983   0.33572   0.00000  Uiso   1.00
C239   C     0.19252   0.35718   0.27987   0.00000  Uiso   1.00
C240   C     0.14078   0.64295   0.22021   0.00000  Uiso   1.00
C241   C     0.14081   0.35741   0.22012   0.00000  Uiso   1.00
C242   C     0.19260   0.64272   0.27976   0.00000  Uiso   1.00
C243   C     0.02097   0.45888   0.25617   0.00000  Uiso   1.00
C244   C     0.31233   0.54080   0.24325   0.00000  Uiso   1.00
C245   C     0.31233   0.45891   0.24349   0.00000  Uiso   1.00
C246   C     0.02090   0.54077   0.25625   0.00000  Uiso   1.00
C247   C     0.12966   0.50803   0.04455   0.00000  Uiso   1.00
C248   C     0.13328   0.48134   0.45025   0.00000  Uiso   1.00
C249   C     0.20125   0.51668   0.45529   0.00000  Uiso   1.00
C250   C     0.20348   0.49047   0.05048   0.00000  Uiso   1.00
C251   C     0.12875   0.50706   0.09071   0.00000  Uiso   1.00
C252   C     0.13273   0.48190   0.40398   0.00000  Uiso   1.00
C253   C     0.20264   0.51511   0.40924   0.00000  Uiso   1.00
C254   C     0.20378   0.49146   0.09673   0.00000  Uiso   1.00
C255   C     0.16624   0.49993   0.11661   0.00000  Uiso   1.00
C256   C     0.16753   0.49910   0.38356   0.00000  Uiso   1.00
C257   C     0.16676   0.49945   0.02439   0.00000  Uiso   1.00
C258   C     0.16701   0.49937   0.47589   0.00000  Uiso   1.00
C259   C     0.29066   0.49989   0.24143   0.00000  Uiso   1.00
C260   C     0.04261   0.49985   0.25824   0.00000  Uiso   1.00
H261   H     0.10138   0.51551   0.02432   0.00000  Uiso   1.00
H262   H     0.10738   0.46667   0.46631   0.00000  Uiso   1.00
H263   H     0.22734   0.53085   0.47508   0.00000  Uiso   1.00
H264   H     0.23187   0.48245   0.03481   0.00000  Uiso   1.00
N265   N     0.16667   0.61907   0.25000   0.00000  Uiso   1.00
N266   N     0.16667   0.38093   0.25000   0.00000  Uiso   1.00
O267   O     0.10559   0.53821   0.25000   0.00000  Uiso   1.00
O268   O     0.22774   0.46179   0.25000   0.00000  Uiso   1.00
O269   O     0.22774   0.53821   0.25000   0.00000  Uiso   1.00
O270   O     0.10559   0.46179   0.25000   0.00000  Uiso   1.00
O271   O     0.16666   0.53822   0.18453   0.00000  Uiso   1.00
O272   O     0.16667   0.46178   0.31547   0.00000  Uiso   1.00
O273   O     0.16667   0.53822   0.31547   0.00000  Uiso   1.00
O274   O     0.16666   0.46178   0.18453   0.00000  Uiso   1.00
Zn275  Zn    0.16667   0.55104   0.25000   0.00000  Uiso   1.00
Zn276  Zn    0.16667   0.44896   0.25000   0.00000  Uiso   1.00
C277   C     0.22142   0.38081   0.31396   0.00000  Uiso   1.00
H278   H     0.22216   0.41684   0.31047   0.00000  Uiso   1.00
H279   H     0.21224   0.37324   0.34819   0.00000  Uiso   1.00
H280   H     0.25405   0.37022   0.31082   0.00000  Uiso   1.00
C281   C     0.11169   0.61942   0.18653   0.00000  Uiso   1.00
H282   H     0.11147   0.58359   0.19067   0.00000  Uiso   1.00
H283   H     0.07906   0.62983   0.19003   0.00000  Uiso   1.00
H284   H     0.12056   0.62676   0.15213   0.00000  Uiso   1.00
C285   C     0.11183   0.38126   0.18605   0.00000  Uiso   1.00
H286   H     0.11092   0.41724   0.18961   0.00000  Uiso   1.00
H287   H     0.12104   0.37402   0.15181   0.00000  Uiso   1.00
H288   H     0.07924   0.37052   0.18917   0.00000  Uiso   1.00
C289   C     0.22181   0.61902   0.31343   0.00000  Uiso   1.00
H290   H     0.22219   0.58316   0.30966   0.00000  Uiso   1.00
H291   H     0.25440   0.62950   0.30977   0.00000  Uiso   1.00
H292   H     0.21300   0.62635   0.34778   0.00000  Uiso   1.00
C293   C     0.08770   0.51257   0.11152   0.00000  Uiso   1.00
H294   H     0.08757   0.54416   0.13041   0.00000  Uiso   1.00
H295   H     0.06118   0.51361   0.08590   0.00000  Uiso   1.00
H296   H     0.08252   0.48413   0.13437   0.00000  Uiso   1.00
C297   C     0.09491   0.46447   0.37711   0.00000  Uiso   1.00
H298   H     0.08215   0.49085   0.35395   0.00000  Uiso   1.00
H299   H     0.10349   0.43481   0.35768   0.00000  Uiso   1.00
H300   H     0.06988   0.45432   0.39877   0.00000  Uiso   1.00
C301   C     0.24264   0.52886   0.38955   0.00000  Uiso   1.00
H302   H     0.24777   0.56519   0.39456   0.00000  Uiso   1.00
H303   H     0.26909   0.51052   0.40679   0.00000  Uiso   1.00
H304   H     0.24319   0.52103   0.35353   0.00000  Uiso   1.00
C305   C     0.24403   0.48349   0.12429   0.00000  Uiso   1.00
H306   H     0.25145   0.51295   0.14573   0.00000  Uiso   1.00
H307   H     0.24102   0.45351   0.14567   0.00000  Uiso   1.00
H308   H     0.27050   0.47794   0.10307   0.00000  Uiso   1.00
Br309  Br    0.04552   0.40262   0.27692   0.00000  Uiso   1.00
Br310  Br    0.28791   0.59675   0.22153   0.00000  Uiso   1.00
Br311  Br    0.28775   0.40280   0.22282   0.00000  Uiso   1.00
Br312  Br    0.04521   0.59664   0.27783   0.00000  Uiso   1.00
C313   C     0.42036   0.49997   0.25410   0.00000  Uiso   1.00
C314   C     0.57961   0.49999   0.24581   0.00000  Uiso   1.00
C315   C     0.49943   0.50004   0.16432   0.00000  Uiso   1.00
C316   C     0.50039   0.49983   0.33572   0.00000  Uiso   1.00
C317   C     0.52586   0.35718   0.27987   0.00000  Uiso   1.00
C318   C     0.47412   0.64295   0.22021   0.00000  Uiso   1.00
C319   C     0.47414   0.35741   0.22012   0.00000  Uiso   1.00
C320   C     0.52593   0.64272   0.27976   0.00000  Uiso   1.00
C321   C     0.35430   0.45888   0.25617   0.00000  Uiso   1.00
C322   C     0.64567   0.54080   0.24325   0.00000  Uiso   1.00
C323   C     0.64566   0.45891   0.24349   0.00000  Uiso   1.00
C324   C     0.35423   0.54077   0.25625   0.00000  Uiso   1.00
C325   C     0.46300   0.50803   0.04455   0.00000  Uiso   1.00
C326   C     0.46661   0.48134   0.45025   0.00000  Uiso   1.00
C327   C     0.53458   0.51668   0.45529   0.00000  Uiso   1.00
C328   C     0.53681   0.49047   0.05048   0.00000  Uiso   1.00
C329   C     0.46208   0.50706   0.09071   0.00000  Uiso   1.00
C330   C     0.46606   0.48190   0.40398   0.00000  Uiso   1.00
C331   C     0.53598   0.51511   0.40924   0.00000  Uiso   1.00
C332   C     0.53712   0.49146   0.09673   0.00000  Uiso   1.00
C333   C     0.49957   0.49993   0.11661   0.00000  Uiso   1.00
C334   C     0.50087   0.49910   0.38356   0.00000  Uiso   1.00
C335   C     0.50009   0.49945   0.02439   0.00000  Uiso   1.00
C336   C     0.50035   0.49937   0.47589   0.00000  Uiso   1.00
C337   C     0.62399   0.49989   0.24143   0.00000  Uiso   1.00
C338   C     0.37594   0.49985   0.25824   0.00000  Uiso   1.00
H339   H     0.43471   0.51551   0.02432   0.00000  Uiso   1.00
H340   H     0.44071   0.46667   0.46631   0.00000  Uiso   1.00
H341   H     0.56068   0.53085   0.47508   0.00000  Uiso   1.00
H342   H     0.56521   0.48245   0.03481   0.00000  Uiso   1.00
N343   N     0.50000   0.61907   0.25000   0.00000  Uiso   1.00
N344   N     0.50000   0.38093   0.25000   0.00000  Uiso   1.00
O345   O     0.43892   0.53821   0.25000   0.00000  Uiso   1.00
O346   O     0.56108   0.46179   0.25000   0.00000  Uiso   1.00
O347   O     0.56108   0.53821   0.25000   0.00000  Uiso   1.00
O348   O     0.43892   0.46179   0.25000   0.00000  Uiso   1.00
O349   O     0.50000   0.53822   0.18453   0.00000  Uiso   1.00
O350   O     0.50000   0.46178   0.31547   0.00000  Uiso   1.00
O351   O     0.50000   0.53822   0.31547   0.00000  Uiso   1.00
O352   O     0.50000   0.46178   0.18453   0.00000  Uiso   1.00
Zn353  Zn    0.50000   0.55104   0.25000   0.00000  Uiso   1.00
Zn354  Zn    0.50000   0.44896   0.25000   0.00000  Uiso   1.00
C355   C     0.55475   0.38081   0.31396   0.00000  Uiso   1.00
H356   H     0.55549   0.41684   0.31047   0.00000  Uiso   1.00
H357   H     0.54557   0.37324   0.34819   0.00000  Uiso   1.00
H358   H     0.58738   0.37022   0.31082   0.00000  Uiso   1.00
C359   C     0.44503   0.61942   0.18653   0.00000  Uiso   1.00
H360   H     0.44481   0.58359   0.19067   0.00000  Uiso   1.00
H361   H     0.41240   0.62983   0.19003   0.00000  Uiso   1.00
H362   H     0.45390   0.62676   0.15213   0.00000  Uiso   1.00
C363   C     0.44517   0.38126   0.18605   0.00000  Uiso   1.00
H364   H     0.44426   0.41724   0.18961   0.00000  Uiso   1.00
H365   H     0.45437   0.37402   0.15181   0.00000  Uiso   1.00
H366   H     0.41258   0.37052   0.18917   0.00000  Uiso   1.00
C367   C     0.55515   0.61902   0.31343   0.00000  Uiso   1.00
H368   H     0.55553   0.58316   0.30966   0.00000  Uiso   1.00
H369   H     0.58773   0.62950   0.30977   0.00000  Uiso   1.00
H370   H     0.54633   0.62635   0.34778   0.00000  Uiso   1.00
C371   C     0.42104   0.51257   0.11152   0.00000  Uiso   1.00
H372   H     0.42091   0.54416   0.13041   0.00000  Uiso   1.00
H373   H     0.39451   0.51361   0.08590   0.00000  Uiso   1.00
H374   H     0.41586   0.48413   0.13437   0.00000  Uiso   1.00
C375   C     0.42824   0.46447   0.37711   0.00000  Uiso   1.00
H376   H     0.41549   0.49085   0.35395   0.00000  Uiso   1.00
H377   H     0.43682   0.43481   0.35768   0.00000  Uiso   1.00
H378   H     0.40321   0.45432   0.39877   0.00000  Uiso   1.00
C379   C     0.57597   0.52886   0.38955   0.00000  Uiso   1.00
H380   H     0.58110   0.56519   0.39456   0.00000  Uiso   1.00
H381   H     0.60242   0.51052   0.40679   0.00000  Uiso   1.00
H382   H     0.57652   0.52103   0.35353   0.00000  Uiso   1.00
C383   C     0.57737   0.48349   0.12429   0.00000  Uiso   1.00
H384   H     0.58479   0.51295   0.14573   0.00000  Uiso   1.00
H385   H     0.57436   0.45351   0.14567   0.00000  Uiso   1.00
H386   H     0.60384   0.47794   0.10307   0.00000  Uiso   1.00
Br387  Br    0.37885   0.40262   0.27692   0.00000  Uiso   1.00
Br388  Br    0.62124   0.59675   0.22153   0.00000  Uiso   1.00
Br389  Br    0.62108   0.40280   0.22282   0.00000  Uiso   1.00
Br390  Br    0.37854   0.59664   0.27783   0.00000  Uiso   1.00
C391   C     0.75369   0.49997   0.25410   0.00000  Uiso   1.00
C392   C     0.91295   0.49999   0.24581   0.00000  Uiso   1.00
C393   C     0.83277   0.50004   0.16432   0.00000  Uiso   1.00
C394   C     0.83372   0.49983   0.33572   0.00000  Uiso   1.00
C395   C     0.85919   0.35718   0.27987   0.00000  Uiso   1.00
C396   C     0.80745   0.64295   0.22021   0.00000  Uiso   1.00
C397   C     0.80748   0.35741   0.22012   0.00000  Uiso   1.00
C398   C     0.85927   0.64272   0.27976   0.00000  Uiso   1.00
C399   C     0.68764   0.45888   0.25617   0.00000  Uiso   1.00
C400   C     0.97900   0.54080   0.24325   0.00000  Uiso   1.00
C401   C     0.97899   0.45891   0.24349   0.00000  Uiso   1.00
C402   C     0.68756   0.54077   0.25625   0.00000  Uiso   1.00
C403   C     0.79633   0.50803   0.04455   0.00000  Uiso   1.00
C404   C     0.79994   0.48134   0.45025   0.00000  Uiso   1.00
C405   C     0.86791   0.51668   0.45529   0.00000  Uiso   1.00
C406   C     0.87015   0.49047   0.05048   0.00000  Uiso   1.00
C407   C     0.79541   0.50706   0.09071   0.00000  Uiso   1.00
C408   C     0.79940   0.48190   0.40398   0.00000  Uiso   1.00
C409   C     0.86931   0.51511   0.40924   0.00000  Uiso   1.00
C410   C     0.87045   0.49146   0.09673   0.00000  Uiso   1.00
C411   C     0.83291   0.49993   0.11661   0.00000  Uiso   1.00
C412   C     0.83420   0.49910   0.38356   0.00000  Uiso   1.00
C413   C     0.83342   0.49945   0.02439   0.00000  Uiso   1.00
C414   C     0.83368   0.49937   0.47589   0.00000  Uiso   1.00
C415   C     0.95733   0.49989   0.24143   0.00000  Uiso   1.00
C416   C     0.70928   0.49985   0.25824   0.00000  Uiso   1.00
H417   H     0.76804   0.51551   0.02432   0.00000  Uiso   1.00
H418   H     0.77404   0.46667   0.46631   0.00000  Uiso   1.00
H419   H     0.89401   0.53085   0.47508   0.00000  Uiso   1.00
H420   H     0.89854   0.48245   0.03481   0.00000  Uiso   1.00
N421   N     0.83333   0.61907   0.25000   0.00000  Uiso   1.00
N422   N     0.83333   0.38093   0.25000   0.00000  Uiso   1.00
O423   O     0.77226   0.53821   0.25000   0.00000  Uiso   1.00
O424   O     0.89441   0.46179   0.25000   0.00000  Uiso   1.00
O425   O     0.89441   0.53821   0.25000   0.00000  Uiso   1.00
O426   O     0.77226   0.46179   0.25000   0.00000  Uiso   1.00
O427   O     0.83333   0.53822   0.18453   0.00000  Uiso   1.00
O428   O     0.83334   0.46178   0.31547   0.00000  Uiso   1.00
O429   O     0.83334   0.53822   0.31547   0.00000  Uiso   1.00
O430   O     0.83333   0.46178   0.18453   0.00000  Uiso   1.00
Zn431  Zn    0.83333   0.55104   0.25000   0.00000  Uiso   1.00
Zn432  Zn    0.83333   0.44896   0.25000   0.00000  Uiso   1.00
C433   C     0.88808   0.38081   0.31396   0.00000  Uiso   1.00
H434   H     0.88882   0.41684   0.31047   0.00000  Uiso   1.00
H435   H     0.87890   0.37324   0.34819   0.00000  Uiso   1.00
H436   H     0.92071   0.37022   0.31082   0.00000  Uiso   1.00
C437   C     0.77836   0.61942   0.18653   0.00000  Uiso   1.00
H438   H     0.77814   0.58359   0.19067   0.00000  Uiso   1.00
H439   H     0.74573   0.62983   0.19003   0.00000  Uiso   1.00
H440   H     0.78723   0.62676   0.15213   0.00000  Uiso   1.00
C441   C     0.77850   0.38126   0.18605   0.00000  Uiso   1.00
H442   H     0.77759   0.41724   0.18961   0.00000  Uiso   1.00
H443   H     0.78770   0.37402   0.15181   0.00000  Uiso   1.00
H444   H     0.74591   0.37052   0.18917   0.00000  Uiso   1.00
C445   C     0.88848   0.61902   0.31343   0.00000  Uiso   1.00
H446   H     0.88886   0.58316   0.30966   0.00000  Uiso   1.00
H447   H     0.92107   0.62950   0.30977   0.00000  Uiso   1.00
H448   H     0.87967   0.62635   0.34778   0.00000  Uiso   1.00
C449   C     0.75437   0.51257   0.11152   0.00000  Uiso   1.00
H450   H     0.75424   0.54416   0.13041   0.00000  Uiso   1.00
H451   H     0.72784   0.51361   0.08590   0.00000  Uiso   1.00
H452   H     0.74919   0.48413   0.13437   0.00000  Uiso   1.00
C453   C     0.76157   0.46447   0.37711   0.00000  Uiso   1.00
H454   H     0.74882   0.49085   0.35395   0.00000  Uiso   1.00
H455   H     0.77016   0.43481   0.35768   0.00000  Uiso   1.00
H456   H     0.73654   0.45432   0.39877   0.00000  Uiso   1.00
C457   C     0.90931   0.52886   0.38955   0.00000  Uiso   1.00
H458   H     0.91444   0.56519   0.39456   0.00000  Uiso   1.00
H459   H     0.93576   0.51052   0.40679   0.00000  Uiso   1.00
H460   H     0.90986   0.52103   0.35353   0.00000  Uiso   1.00
C461   C     0.91070   0.48349   0.12429   0.00000  Uiso   1.00
H462   H     0.91812   0.51295   0.14573   0.00000  Uiso   1.00
H463   H     0.90769   0.45351   0.14567   0.00000  Uiso   1.00
H464   H     0.93717   0.47794   0.10307   0.00000  Uiso   1.00
Br465  Br    0.71219   0.40262   0.27692   0.00000  Uiso   1.00
Br466  Br    0.95457   0.59675   0.22153   0.00000  Uiso   1.00
Br467  Br    0.95442   0.40280   0.22282   0.00000  Uiso   1.00
Br468  Br    0.71188   0.59664   0.27783   0.00000  Uiso   1.00
C469   C     0.08703   0.83330   0.25410   0.00000  Uiso   1.00
C470   C     0.24628   0.83332   0.24581   0.00000  Uiso   1.00
C471   C     0.16610   0.83337   0.16432   0.00000  Uiso   1.00
C472   C     0.16706   0.83316   0.33572   0.00000  Uiso   1.00
C473   C     0.19252   0.69052   0.27987   0.00000  Uiso   1.00
C474   C     0.14078   0.97629   0.22021   0.00000  Uiso   1.00
C475   C     0.14081   0.69074   0.22012   0.00000  Uiso   1.00
C476   C     0.19260   0.97606   0.27976   0.00000  Uiso   1.00
C477   C     0.02097   0.79221   0.25617   0.00000  Uiso   1.00
C478   C     0.31233   0.87413   0.24325   0.00000  Uiso   1.00
C479   C     0.31233   0.79225   0.24349   0.00000  Uiso   1.00
C480   C     0.02090   0.87411   0.25625   0.00000  Uiso   1.00
C481   C     0.12966   0.84136   0.04455   0.00000  Uiso   1.00
C482   C     0.13328   0.81467   0.45025   0.00000  Uiso   1.00
C483   C     0.20125   0.85001   0.45529   0.00000  Uiso   1.00
C484   C     0.20348   0.82380   0.05048   0.00000  Uiso   1.00
C485   C     0.12875   0.84039   0.09071   0.00000  Uiso   1.00
C486   C     0.13273   0.81524   0.40398   0.00000  Uiso   1.00
C487   C     0.20264   0.84845   0.40924   0.00000  Uiso   1.00
C488   C     0.20378   0.82479   0.09673   0.00000  Uiso   1.00
C489   C     0.16624   0.83326   0.11661   0.00000  Uiso   1.00
C490   C     0.16753   0.83244   0.38356   0.00000  Uiso   1.00
C491   C     0.16676   0.83279   0.02439   0.00000  Uiso   1.00
C492   C     0.16701   0.83270   0.47589   0.00000  Uiso   1.00
C493   C     0.29066   0.83323   0.24143   0.00000  Uiso   1.00
C494   C     0.04261   0.83319   0.25824   0.00000  Uiso   1.00
H495   H     0.10138   0.84884   0.02432   0.00000  Uiso   1.00
H496   H     0.10738   0.80000   0.46631   0.00000  Uiso   1.00
H497   H     0.22734   0.86418   0.47508   0.00000  Uiso   1.00
H498   H     0.23187   0.81578   0.03481   0.00000  Uiso   1.00
N499   N     0.16667   0.95240   0.25000   0.00000  Uiso   1.00
N500   N     0.16667   0.71427   0.25000   0.00000  Uiso   1.00
O501   O     0.10559   0.87154   0.25000   0.00000  Uiso   1.00
O502   O     0.22774   0.79513   0.25000   0.00000  Uiso   1.00
O503   O     0.22774   0.87154   0.25000   0.00000  Uiso   1.00
O504   O     0.10559   0.79513   0.25000   0.00000  Uiso   1.00
O505   O     0.16666   0.87155   0.18453   0.00000  Uiso   1.00
O506   O     0.16667   0.79511   0.31547   0.00000  Uiso   1.00
O507   O     0.16667   0.87155   0.31547   0.00000  Uiso   1.00
O508   O     0.16666   0.79511   0.18453   0.00000  Uiso   1.00
Zn509  Zn    0.16667   0.88437   0.25000   0.00000  Uiso   1.00
Zn510  Zn    0.16667   0.78229   0.25000   0.00000  Uiso   1.00
C511   C     0.22142   0.71415   0.31396   0.00000  Uiso   1.00
H512   H     0.22216   0.75018   0.31047   0.00000  Uiso   1.00
H513   H     0.21224   0.70657   0.34819   0.00000  Uiso   1.00
H514   H     0.25405   0.70356   0.31082   0.00000  Uiso   1.00
C515   C     0.11169   0.95276   0.18653   0.00000  Uiso   1.00
H516   H     0.11147   0.91692   0.19067   0.00000  Uiso   1.00
H517   H     0.07906   0.96317   0.19003   0.00000  Uiso   1.00
H518   H     0.12056   0.96009   0.15213   0.00000  Uiso   1.00
C519   C     0.11183   0.71459   0.18605   0.00000  Uiso   1.00
H520   H     0.11092   0.75058   0.18961   0.00000  Uiso   1.00
H521   H     0.12104   0.70736   0.15181   0.00000  Uiso   1.00
H522   H     0.07924   0.70385   0.18917   0.00000  Uiso   1.00
C523   C     0.22181   0.95235   0.31343   0.00000  Uiso   1.00
H524   H     0.22219   0.91649   0.30966   0.00000  Uiso   1.00
H525   H     0.25440   0.96283   0.30977   0.00000  Uiso   1.00
H526   H     0.21300   0.95969   0.34778   0.00000  Uiso   1.00
C527   C     0.08770   0.84590   0.11152   0.00000  Uiso   1.00
H528   H     0.08757   0.87749   0.13041   0.00000  Uiso   1.00
H529   H     0.06118   0.84694   0.08590   0.00000  Uiso   1.00
H530   H     0.08252   0.81746   0.13437   0.00000  Uiso   1.00
C531   C     0.09491   0.79780   0.37711   0.00000  Uiso   1.00
H532   H     0.08215   0.82418   0.35395   0.00000  Uiso   1.00
H533   H     0.10349   0.76814   0.35768   0.00000  Uiso   1.00
H534   H     0.06988   0.78765   0.39877   0.00000  Uiso   1.00
C535   C     0.24264   0.86220   0.38955   0.00000  Uiso   1.00
H536   H     0.24777   0.89852   0.39456   0.00000  Uiso   1.00
H537   H     0.26909   0.84385   0.40679   0.00000  Uiso   1.00
H538   H     0.24319   0.85436   0.35353   0.00000  Uiso   1.00
C539   C     0.24403   0.81682   0.12429   0.00000  Uiso   1.00
H540   H     0.25145   0.84628   0.14573   0.00000  Uiso   1.00
H541   H     0.24102   0.78684   0.14567   0.00000  Uiso   1.00
H542   H     0.27050   0.81127   0.10307   0.00000  Uiso   1.00
Br543  Br    0.04552   0.73595   0.27692   0.00000  Uiso   1.00
Br544  Br    0.28791   0.93008   0.22153   0.00000  Uiso   1.00
Br545  Br    0.28775   0.73614   0.22282   0.00000  Uiso   1.00
Br546  Br    0.04521   0.92997   0.27783   0.00000  Uiso   1.00
C547   C     0.42036   0.83330   0.25410   0.00000  Uiso   1.00
C548   C     0.57961   0.83332   0.24581   0.00000  Uiso   1.00
C549   C     0.49943   0.83337   0.16432   0.00000  Uiso   1.00
C550   C     0.50039   0.83316   0.33572   0.00000  Uiso   1.00
C551   C     0.52586   0.69052   0.27987   0.00000  Uiso   1.00
C552   C     0.47412   0.97629   0.22021   0.00000  Uiso   1.00
C553   C     0.47414   0.69074   0.22012   0.00000  Uiso   1.00
C554   C     0.52593   0.97606   0.27976   0.00000  Uiso   1.00
C555   C     0.35430   0.79221   0.25617   0.00000  Uiso   1.00
C556   C     0.64567   0.87413   0.24325   0.00000  Uiso   1.00
C557   C     0.64566   0.79225   0.24349   0.00000  Uiso   1.00
C558   C     0.35423   0.87411   0.25625   0.00000  Uiso   1.00
C559   C     0.46300   0.84136   0.04455   0.00000  Uiso   1.00
C560   C     0.46661   0.81467   0.45025   0.00000  Uiso   1.00
C561   C     0.53458   0.85001   0.45529   0.00000  Uiso   1.00
C562   C     0.53681   0.82380   0.05048   0.00000  Uiso   1.00
C563   C     0.46208   0.84039   0.09071   0.00000  Uiso   1.00
C564   C     0.46606   0.81524   0.40398   0.00000  Uiso   1.00
C565   C     0.53598   0.84845   0.40924   0.00000  Uiso   1.00
C566   C     0.53712   0.82479   0.09673   0.00000  Uiso   1.00
C567   C     0.49957   0.83326   0.11661   0.00000  Uiso   1.00
C568   C     0.50087   0.83244   0.38356   0.00000  Uiso   1.00
C569   C     0.50009   0.83279   0.02439   0.00000  Uiso   1.00
C570   C     0.50035   0.83270   0.47589   0.00000  Uiso   1.00
C571   C     0.62399   0.83323   0.24143   0.00000  Uiso   1.00
C572   C     0.37594   0.83319   0.25824   0.00000  Uiso   1.00
H573   H     0.43471   0.84884   0.02432   0.00000  Uiso   1.00
H574   H     0.44071   0.80000   0.46631   0.00000  Uiso   1.00
H575   H     0.56068   0.86418   0.47508   0.00000  Uiso   1.00
H576   H     0.56521   0.81578   0.03481   0.00000  Uiso   1.00
N577   N     0.50000   0.95240   0.25000   0.00000  Uiso   1.00
N578   N     0.50000   0.71427   0.25000   0.00000  Uiso   1.00
O579   O     0.43892   0.87154   0.25000   0.00000  Uiso   1.00
O580   O     0.56108   0.79513   0.25000   0.00000  Uiso   1.00
O581   O     0.56108   0.87154   0.25000   0.00000  Uiso   1.00
O582   O     0.43892   0.79513   0.25000   0.00000  Uiso   1.00
O583   O     0.50000   0.87155   0.18453   0.00000  Uiso   1.00
O584   O     0.50000   0.79511   0.31547   0.00000  Uiso   1.00
O585   O     0.50000   0.87155   0.31547   0.00000  Uiso   1.00
O586   O     0.50000   0.79511   0.18453   0.00000  Uiso   1.00
Zn587  Zn    0.50000   0.88437   0.25000   0.00000  Uiso   1.00
Zn588  Zn    0.50000   0.78229   0.25000   0.00000  Uiso   1.00
C589   C     0.55475   0.71415   0.31396   0.00000  Uiso   1.00
H590   H     0.55549   0.75018   0.31047   0.00000  Uiso   1.00
H591   H     0.54557   0.70657   0.34819   0.00000  Uiso   1.00
H592   H     0.58738   0.70356   0.31082   0.00000  Uiso   1.00
C593   C     0.44503   0.95276   0.18653   0.00000  Uiso   1.00
H594   H     0.44481   0.91692   0.19067   0.00000  Uiso   1.00
H595   H     0.41240   0.96317   0.19003   0.00000  Uiso   1.00
H596   H     0.45390   0.96009   0.15213   0.00000  Uiso   1.00
C597   C     0.44517   0.71459   0.18605   0.00000  Uiso   1.00
H598   H     0.44426   0.75058   0.18961   0.00000  Uiso   1.00
H599   H     0.45437   0.70736   0.15181   0.00000  Uiso   1.00
H600   H     0.41258   0.70385   0.18917   0.00000  Uiso   1.00
C601   C     0.55515   0.95235   0.31343   0.00000  Uiso   1.00
H602   H     0.55553   0.91649   0.30966   0.00000  Uiso   1.00
H603   H     0.58773   0.96283   0.30977   0.00000  Uiso   1.00
H604   H     0.54633   0.95969   0.34778   0.00000  Uiso   1.00
C605   C     0.42104   0.84590   0.11152   0.00000  Uiso   1.00
H606   H     0.42091   0.87749   0.13041   0.00000  Uiso   1.00
H607   H     0.39451   0.84694   0.08590   0.00000  Uiso   1.00
H608   H     0.41586   0.81746   0.13437   0.00000  Uiso   1.00
C609   C     0.42824   0.79780   0.37711   0.00000  Uiso   1.00
H610   H     0.41549   0.82418   0.35395   0.00000  Uiso   1.00
H611   H     0.43682   0.76814   0.35768   0.00000  Uiso   1.00
H612   H     0.40321   0.78765   0.39877   0.00000  Uiso   1.00
C613   C     0.57597   0.86220   0.38955   0.00000  Uiso   1.00
H614   H     0.58110   0.89852   0.39456   0.00000  Uiso   1.00
H615   H     0.60242   0.84385   0.40679   0.00000  Uiso   1.00
H616   H     0.57652   0.85436   0.35353   0.00000  Uiso   1.00
C617   C     0.57737   0.81682   0.12429   0.00000  Uiso   1.00
H618   H     0.58479   0.84628   0.14573   0.00000  Uiso   1.00
H619   H     0.57436   0.78684   0.14567   0.00000  Uiso   1.00
H620   H     0.60384   0.81127   0.10307   0.00000  Uiso   1.00
Br621  Br    0.37885   0.73595   0.27692   0.00000  Uiso   1.00
Br622  Br    0.62124   0.93008   0.22153   0.00000  Uiso   1.00
Br623  Br    0.62108   0.73614   0.22282   0.00000  Uiso   1.00
Br624  Br    0.37854   0.92997   0.27783   0.00000  Uiso   1.00
C625   C     0.75369   0.83330   0.25410   0.00000  Uiso   1.00
C626   C     0.91295   0.83332   0.24581   0.00000  Uiso   1.00
C627   C     0.83277   0.83337   0.16432   0.00000  Uiso   1.00
C628   C     0.83372   0.83316   0.33572   0.00000  Uiso   1.00
C629   C     0.85919   0.69052   0.27987   0.00000  Uiso   1.00
C630   C     0.80745   0.97629   0.22021   0.00000  Uiso   1.00
C631   C     0.80748   0.69074   0.22012   0.00000  Uiso   1.00
C632   C     0.85927   0.97606   0.27976   0.00000  Uiso   1.00
C633   C     0.68764   0.79221   0.25617   0.00000  Uiso   1.00
C634   C     0.97900   0.87413   0.24325   0.00000  Uiso   1.00
C635   C     0.97899   0.79225   0.24349   0.00000  Uiso   1.00
C636   C     0.68756   0.87411   0.25625   0.00000  Uiso   1.00
C637   C     0.79633   0.84136   0.04455   0.00000  Uiso   1.00
C638   C     0.79994   0.81467   0.45025   0.00000  Uiso   1.00
C639   C     0.86791   0.85001   0.45529   0.00000  Uiso   1.00
C640   C     0.87015   0.82380   0.05048   0.00000  Uiso   1.00
C641   C     0.79541   0.84039   0.09071   0.00000  Uiso   1.00
C642   C     0.79940   0.81524   0.40398   0.00000  Uiso   1.00
C643   C     0.86931   0.84845   0.40924   0.00000  Uiso   1.00
C644   C     0.87045   0.82479   0.09673   0.00000  Uiso   1.00
C645   C     0.83291   0.83326   0.11661   0.00000  Uiso   1.00
C646   C     0.83420   0.83244   0.38356   0.00000  Uiso   1.00
C647   C     0.83342   0.83279   0.02439   0.00000  Uiso   1.00
C648   C     0.83368   0.83270   0.47589   0.00000  Uiso   1.00
C649   C     0.95733   0.83323   0.24143   0.00000  Uiso   1.00
C650   C     0.70928   0.83319   0.25824   0.00000  Uiso   1.00
H651   H     0.76804   0.84884   0.02432   0.00000  Uiso   1.00
H652   H     0.77404   0.80000   0.46631   0.00000  Uiso   1.00
H653   H     0.89401   0.86418   0.47508   0.00000  Uiso   1.00
H654   H     0.89854   0.81578   0.03481   0.00000  Uiso   1.00
N655   N     0.83333   0.95240   0.25000   0.00000  Uiso   1.00
N656   N     0.83333   0.71427   0.25000   0.00000  Uiso   1.00
O657   O     0.77226   0.87154   0.25000   0.00000  Uiso   1.00
O658   O     0.89441   0.79513   0.25000   0.00000  Uiso   1.00
O659   O     0.89441   0.87154   0.25000   0.00000  Uiso   1.00
O660   O     0.77226   0.79513   0.25000   0.00000  Uiso   1.00
O661   O     0.83333   0.87155   0.18453   0.00000  Uiso   1.00
O662   O     0.83334   0.79511   0.31547   0.00000  Uiso   1.00
O663   O     0.83334   0.87155   0.31547   0.00000  Uiso   1.00
O664   O     0.83333   0.79511   0.18453   0.00000  Uiso   1.00
Zn665  Zn    0.83333   0.88437   0.25000   0.00000  Uiso   1.00
Zn666  Zn    0.83333   0.78229   0.25000   0.00000  Uiso   1.00
C667   C     0.88808   0.71415   0.31396   0.00000  Uiso   1.00
H668   H     0.88882   0.75018   0.31047   0.00000  Uiso   1.00
H669   H     0.87890   0.70657   0.34819   0.00000  Uiso   1.00
H670   H     0.92071   0.70356   0.31082   0.00000  Uiso   1.00
C671   C     0.77836   0.95276   0.18653   0.00000  Uiso   1.00
H672   H     0.77814   0.91692   0.19067   0.00000  Uiso   1.00
H673   H     0.74573   0.96317   0.19003   0.00000  Uiso   1.00
H674   H     0.78723   0.96009   0.15213   0.00000  Uiso   1.00
C675   C     0.77850   0.71459   0.18605   0.00000  Uiso   1.00
H676   H     0.77759   0.75058   0.18961   0.00000  Uiso   1.00
H677   H     0.78770   0.70736   0.15181   0.00000  Uiso   1.00
H678   H     0.74591   0.70385   0.18917   0.00000  Uiso   1.00
C679   C     0.88848   0.95235   0.31343   0.00000  Uiso   1.00
H680   H     0.88886   0.91649   0.30966   0.00000  Uiso   1.00
H681   H     0.92107   0.96283   0.30977   0.00000  Uiso   1.00
H682   H     0.87967   0.95969   0.34778   0.00000  Uiso   1.00
C683   C     0.75437   0.84590   0.11152   0.00000  Uiso   1.00
H684   H     0.75424   0.87749   0.13041   0.00000  Uiso   1.00
H685   H     0.72784   0.84694   0.08590   0.00000  Uiso   1.00
H686   H     0.74919   0.81746   0.13437   0.00000  Uiso   1.00
C687   C     0.76157   0.79780   0.37711   0.00000  Uiso   1.00
H688   H     0.74882   0.82418   0.35395   0.00000  Uiso   1.00
H689   H     0.77016   0.76814   0.35768   0.00000  Uiso   1.00
H690   H     0.73654   0.78765   0.39877   0.00000  Uiso   1.00
C691   C     0.90931   0.86220   0.38955   0.00000  Uiso   1.00
H692   H     0.91444   0.89852   0.39456   0.00000  Uiso   1.00
H693   H     0.93576   0.84385   0.40679   0.00000  Uiso   1.00
H694   H     0.90986   0.85436   0.35353   0.00000  Uiso   1.00
C695   C     0.91070   0.81682   0.12429   0.00000  Uiso   1.00
H696   H     0.91812   0.84628   0.14573   0.00000  Uiso   1.00
H697   H     0.90769   0.78684   0.14567   0.00000  Uiso   1.00
H698   H     0.93717   0.81127   0.10307   0.00000  Uiso   1.00
Br699  Br    0.71219   0.73595   0.27692   0.00000  Uiso   1.00
Br700  Br    0.95457   0.93008   0.22153   0.00000  Uiso   1.00
Br701  Br    0.95442   0.73614   0.22282   0.00000  Uiso   1.00
Br702  Br    0.71188   0.92997   0.27783   0.00000  Uiso   1.00
C703   C     0.08703   0.16663   0.75410   0.00000  Uiso   1.00
C704   C     0.24628   0.16665   0.74581   0.00000  Uiso   1.00
C705   C     0.16610   0.16670   0.66432   0.00000  Uiso   1.00
C706   C     0.16706   0.16649   0.83572   0.00000  Uiso   1.00
C707   C     0.19252   0.02385   0.77987   0.00000  Uiso   1.00
C708   C     0.14078   0.30962   0.72021   0.00000  Uiso   1.00
C709   C     0.14081   0.02408   0.72012   0.00000  Uiso   1.00
C710   C     0.19260   0.30939   0.77976   0.00000  Uiso   1.00
C711   C     0.02097   0.12554   0.75617   0.00000  Uiso   1.00
C712   C     0.31233   0.20747   0.74325   0.00000  Uiso   1.00
C713   C     0.31233   0.12558   0.74349   0.00000  Uiso   1.00
C714   C     0.02090   0.20744   0.75625   0.00000  Uiso   1.00
C715   C     0.12966   0.17470   0.54455   0.00000  Uiso   1.00
C716   C     0.13328   0.14800   0.95025   0.00000  Uiso   1.00
C717   C     0.20125   0.18334   0.95529   0.00000  Uiso   1.00
C718   C     0.20348   0.15713   0.55048   0.00000  Uiso   1.00
C719   C     0.12875   0.17373   0.59071   0.00000  Uiso   1.00
C720   C     0.13273   0.14857   0.90398   0.00000  Uiso   1.00
C721   C     0.20264   0.18178   0.90924   0.00000  Uiso   1.00
C722   C     0.20378   0.15813   0.59673   0.00000  Uiso   1.00
C723   C     0.16624   0.16660   0.61661   0.00000  Uiso   1.00
C724   C     0.16753   0.16577   0.88356   0.00000  Uiso   1.00
C725   C     0.16676   0.16612   0.52439   0.00000  Uiso   1.00
C726   C     0.16701   0.16603   0.97589   0.00000  Uiso   1.00
C727   C     0.29066   0.16656   0.74143   0.00000  Uiso   1.00
C728   C     0.04261   0.16652   0.75824   0.00000  Uiso   1.00
H729   H     0.10138   0.18217   0.52432   0.00000  Uiso   1.00
H730   H     0.10738   0.13333   0.96631   0.00000  Uiso   1.00
H731   H     0.22734   0.19752   0.97508   0.00000  Uiso   1.00
H732   H     0.23187   0.14911   0.53481   0.00000  Uiso   1.00
N733   N     0.16667   0.28573   0.75000   0.00000  Uiso   1.00
N734   N     0.16667   0.04760   0.75000   0.00000  Uiso   1.00
O735   O     0.10559   0.20487   0.75000   0.00000  Uiso   1.00
O736   O     0.22774   0.12846   0.75000   0.00000  Uiso   1.00
O737   O     0.22774   0.20487   0.75000   0.00000  Uiso   1.00
O738   O     0.10559   0.12846   0.75000   0.00000  Uiso   1.00
O739   O     0.16666   0.20489   0.68453   0.00000  Uiso   1.00
O740   O     0.16667   0.12845   0.81547   0.00000  Uiso   1.00
O741   O     0.16667   0.20489   0.81547   0.00000  Uiso   1.00
O742   O     0.16666   0.12845   0.68453   0.00000  Uiso   1.00
Zn743  Zn    0.16667   0.21771   0.75000   0.00000  Uiso   1.00
Zn744  Zn    0.16667   0.11563   0.75000   0.00000  Uiso   1.00
C745   C     0.22142   0.04748   0.81396   0.00000  Uiso   1.00
H746   H     0.22216   0.08351   0.81047   0.00000  Uiso   1.00
H747   H     0.21224   0.03990   0.84819   0.00000  Uiso   1.00
H748   H     0.25405   0.03689   0.81082   0.00000  Uiso   1.00
C749   C     0.11169   0.28609   0.68653   0.00000  Uiso   1.00
H750   H     0.11147   0.25026   0.69067   0.00000  Uiso   1.00
H751   H     0.07906   0.29650   0.69003   0.00000  Uiso   1.00
H752   H     0.12056   0.29342   0.65213   0.00000  Uiso   1.00
C753   C     0.11183   0.04792   0.68605   0.00000  Uiso   1.00
H754   H     0.11092   0.08391   0.68961   0.00000  Uiso   1.00
H755   H     0.12104   0.04069   0.65181   0.00000  Uiso   1.00
H756   H     0.07924   0.03718   0.68917   0.00000  Uiso   1.00
C757   C     0.22181   0.28568   0.81343   0.00000  Uiso   1.00
H758   H     0.22219   0.24982   0.80966   0.00000  Uiso   1.00
H759   H     0.25440   0.29617   0.80977   0.00000  Uiso   1.00
H760   H     0.21300   0.29302   0.84778   0.00000  Uiso   1.00
C761   C     0.08770   0.17924   0.61152   0.00000  Uiso   1.00
H762   H     0.08757   0.21083   0.63041   0.00000  Uiso   1.00
H763   H     0.06118   0.18027   0.58590   0.00000  Uiso   1.00
H764   H     0.08252   0.15079   0.63437   0.00000  Uiso   1.00
C765   C     0.09491   0.13114   0.87711   0.00000  Uiso   1.00
H766   H     0.08215   0.15752   0.85395   0.00000  Uiso   1.00
H767   H     0.10349   0.10147   0.85768   0.00000  Uiso   1.00
H768   H     0.06988   0.12098   0.89877   0.00000  Uiso   1.00
C769   C     0.24264   0.19553   0.88955   0.00000  Uiso   1.00
H770   H     0.24777   0.23186   0.89456   0.00000  Uiso   1.00
H771   H     0.26909   0.17718   0.90679   0.00000  Uiso   1.00
H772   H     0.24319   0.18770   0.85353   0.00000  Uiso   1.00
C773   C     0.24403   0.15015   0.62429   0.00000  Uiso   1.00
H774   H     0.25145   0.17961   0.64573   0.00000  Uiso   1.00
H775   H     0.24102   0.12018   0.64567   0.00000  Uiso   1.00
H776   H     0.27050   0.14461   0.60307   0.00000  Uiso   1.00
Br777  Br    0.04552   0.06928   0.77692   0.00000  Uiso   1.00
Br778  Br    0.28791   0.26342   0.72153   0.00000  Uiso   1.00
Br779  Br    0.28775   0.06947   0.72282   0.00000  Uiso   1.00
Br780  Br    0.04521   0.26331   0.77783   0.00000  Uiso   1.00
C781   C     0.42036   0.16663   0.75410   0.00000  Uiso   1.00
C782   C     0.57961   0.16665   0.74581   0.00000  Uiso   1.00
C783   C     0.49943   0.16670   0.66432   0.00000  Uiso   1.00
C784   C     0.50039   0.16649   0.83572   0.00000  Uiso   1.00
C785   C     0.52586   0.02385   0.77987   0.00000  Uiso   1.00
C786   C     0.47412   0.30962   0.72021   0.00000  Uiso   1.00
C787   C     0.47414   0.02408   0.72012   0.00000  Uiso   1.00
C788   C     0.52593   0.30939   0.77976   0.00000  Uiso   1.00
C789   C     0.35430   0.12554   0.75617   0.00000  Uiso   1.00
C790   C     0.64567   0.20747   0.74325   0.00000  Uiso   1.00
C791   C     0.64566   0.12558   0.74349   0.00000  Uiso   1.00
C792   C     0.35423   0.20744   0.75625   0.00000  Uiso   1.00
C793   C     0.46300   0.17470   0.54455   0.00000  Uiso   1.00
C794   C     0.46661   0.14800   0.95025   0.00000  Uiso   1.00
C795   C     0.53458   0.18334   0.95529   0.00000  Uiso   1.00
C796   C     0.53681   0.15713   0.55048   0.00000  Uiso   1.00
C797   C     0.46208   0.17373   0.59071   0.00000  Uiso   1.00
C798   C     0.46606   0.14857   0.90398   0.00000  Uiso   1.00
C799   C     0.53598   0.18178   0.90924   0.00000  Uiso   1.00
C800   C     0.53712   0.15813   0.59673   0.00000  Uiso   1.00
C801   C     0.49957   0.16660   0.61661   0.00000  Uiso   1.00
C802   C     0.50087   0.16577   0.88356   0.00000  Uiso   1.00
C803   C     0.50009   0.16612   0.52439   0.00000  Uiso   1.00
C804   C     0.50035   0.16603   0.97589   0.00000  Uiso   1.00
C805   C     0.62399   0.16656   0.74143   0.00000  Uiso   1.00
C806   C     0.37594   0.16652   0.75824   0.00000  Uiso   1.00
H807   H     0.43471   0.18217   0.52432   0.00000  Uiso   1.00
H808   H     0.44071   0.13333   0.96631   0.00000  Uiso   1.00
H809   H     0.56068   0.19752   0.97508   0.00000  Uiso   1.00
H810   H     0.56521   0.14911   0.53481   0.00000  Uiso   1.00
N811   N     0.50000   0.28573   0.75000   0.00000  Uiso   1.00
N812   N     0.50000   0.04760   0.75000   0.00000  Uiso   1.00
O813   O     0.43892   0.20487   0.75000   0.00000  Uiso   1.00
O814   O     0.56108   0.12846   0.75000   0.00000  Uiso   1.00
O815   O     0.56108   0.20487   0.75000   0.00000  Uiso   1.00
O816   O     0.43892   0.12846   0.75000   0.00000  Uiso   1.00
O817   O     0.50000   0.20489   0.68453   0.00000  Uiso   1.00
O818   O     0.50000   0.12845   0.81547   0.00000  Uiso   1.00
O819   O     0.50000   0.20489   0.81547   0.00000  Uiso   1.00
O820   O     0.50000   0.12845   0.68453   0.00000  Uiso   1.00
Zn821  Zn    0.50000   0.21771   0.75000   0.00000  Uiso   1.00
Zn822  Zn    0.50000   0.11563   0.75000   0.00000  Uiso   1.00
C823   C     0.55475   0.04748   0.81396   0.00000  Uiso   1.00
H824   H     0.55549   0.08351   0.81047   0.00000  Uiso   1.00
H825   H     0.54557   0.03990   0.84819   0.00000  Uiso   1.00
H826   H     0.58738   0.03689   0.81082   0.00000  Uiso   1.00
C827   C     0.44503   0.28609   0.68653   0.00000  Uiso   1.00
H828   H     0.44481   0.25026   0.69067   0.00000  Uiso   1.00
H829   H     0.41240   0.29650   0.69003   0.00000  Uiso   1.00
H830   H     0.45390   0.29342   0.65213   0.00000  Uiso   1.00
C831   C     0.44517   0.04792   0.68605   0.00000  Uiso   1.00
H832   H     0.44426   0.08391   0.68961   0.00000  Uiso   1.00
H833   H     0.45437   0.04069   0.65181   0.00000  Uiso   1.00
H834   H     0.41258   0.03718   0.68917   0.00000  Uiso   1.00
C835   C     0.55515   0.28568   0.81343   0.00000  Uiso   1.00
H836   H     0.55553   0.24982   0.80966   0.00000  Uiso   1.00
H837   H     0.58773   0.29617   0.80977   0.00000  Uiso   1.00
H838   H     0.54633   0.29302   0.84778   0.00000  Uiso   1.00
C839   C     0.42104   0.17924   0.61152   0.00000  Uiso   1.00
H840   H     0.42091   0.21083   0.63041   0.00000  Uiso   1.00
H841   H     0.39451   0.18027   0.58590   0.00000  Uiso   1.00
H842   H     0.41586   0.15079   0.63437   0.00000  Uiso   1.00
C843   C     0.42824   0.13114   0.87711   0.00000  Uiso   1.00
H844   H     0.41549   0.15752   0.85395   0.00000  Uiso   1.00
H845   H     0.43682   0.10147   0.85768   0.00000  Uiso   1.00
H846   H     0.40321   0.12098   0.89877   0.00000  Uiso   1.00
C847   C     0.57597   0.19553   0.88955   0.00000  Uiso   1.00
H848   H     0.58110   0.23186   0.89456   0.00000  Uiso   1.00
H849   H     0.60242   0.17718   0.90679   0.00000  Uiso   1.00
H850   H     0.57652   0.18770   0.85353   0.00000  Uiso   1.00
C851   C     0.57737   0.15015   0.62429   0.00000  Uiso   1.00
H852   H     0.58479   0.17961   0.64573   0.00000  Uiso   1.00
H853   H     0.57436   0.12018   0.64567   0.00000  Uiso   1.00
H854   H     0.60384   0.14461   0.60307   0.00000  Uiso   1.00
Br855  Br    0.37885   0.06928   0.77692   0.00000  Uiso   1.00
Br856  Br    0.62124   0.26342   0.72153   0.00000  Uiso   1.00
Br857  Br    0.62108   0.06947   0.72282   0.00000  Uiso   1.00
Br858  Br    0.37854   0.26331   0.77783   0.00000  Uiso   1.00
C859   C     0.75369   0.16663   0.75410   0.00000  Uiso   1.00
C860   C     0.91295   0.16665   0.74581   0.00000  Uiso   1.00
C861   C     0.83277   0.16670   0.66432   0.00000  Uiso   1.00
C862   C     0.83372   0.16649   0.83572   0.00000  Uiso   1.00
C863   C     0.85919   0.02385   0.77987   0.00000  Uiso   1.00
C864   C     0.80745   0.30962   0.72021   0.00000  Uiso   1.00
C865   C     0.80748   0.02408   0.72012   0.00000  Uiso   1.00
C866   C     0.85927   0.30939   0.77976   0.00000  Uiso   1.00
C867   C     0.68764   0.12554   0.75617   0.00000  Uiso   1.00
C868   C     0.97900   0.20747   0.74325   0.00000  Uiso   1.00
C869   C     0.97899   0.12558   0.74349   0.00000  Uiso   1.00
C870   C     0.68756   0.20744   0.75625   0.00000  Uiso   1.00
C871   C     0.79633   0.17470   0.54455   0.00000  Uiso   1.00
C872   C     0.79994   0.14800   0.95025   0.00000  Uiso   1.00
C873   C     0.86791   0.18334   0.95529   0.00000  Uiso   1.00
C874   C     0.87015   0.15713   0.55048   0.00000  Uiso   1.00
C875   C     0.79541   0.17373   0.59071   0.00000  Uiso   1.00
C876   C     0.79940   0.14857   0.90398   0.00000  Uiso   1.00
C877   C     0.86931   0.18178   0.90924   0.00000  Uiso   1.00
C878   C     0.87045   0.15813   0.59673   0.00000  Uiso   1.00
C879   C     0.83291   0.16660   0.61661   0.00000  Uiso   1.00
C880   C     0.83420   0.16577   0.88356   0.00000  Uiso   1.00
C881   C     0.83342   0.16612   0.52439   0.00000  Uiso   1.00
C882   C     0.83368   0.16603   0.97589   0.00000  Uiso   1.00
C883   C     0.95733   0.16656   0.74143   0.00000  Uiso   1.00
C884   C     0.70928   0.16652   0.75824   0.00000  Uiso   1.00
H885   H     0.76804   0.18217   0.52432   0.00000  Uiso   1.00
H886   H     0.77404   0.13333   0.96631   0.00000  Uiso   1.00
H887   H     0.89401   0.19752   0.97508   0.00000  Uiso   1.00
H888   H     0.89854   0.14911   0.53481   0.00000  Uiso   1.00
N889   N     0.83333   0.28573   0.75000   0.00000  Uiso   1.00
N890   N     0.83333   0.04760   0.75000   0.00000  Uiso   1.00
O891   O     0.77226   0.20487   0.75000   0.00000  Uiso   1.00
O892   O     0.89441   0.12846   0.75000   0.00000  Uiso   1.00
O893   O     0.89441   0.20487   0.75000   0.00000  Uiso   1.00
O894   O     0.77226   0.12846   0.75000   0.00000  Uiso   1.00
O895   O     0.83333   0.20489   0.68453   0.00000  Uiso   1.00
O896   O     0.83334   0.12845   0.81547   0.00000  Uiso   1.00
O897   O     0.83334   0.20489   0.81547   0.00000  Uiso   1.00
O898   O     0.83333   0.12845   0.68453   0.00000  Uiso   1.00
Zn899  Zn    0.83333   0.21771   0.75000   0.00000  Uiso   1.00
Zn900  Zn    0.83333   0.11563   0.75000   0.00000  Uiso   1.00
C901   C     0.88808   0.04748   0.81396   0.00000  Uiso   1.00
H902   H     0.88882   0.08351   0.81047   0.00000  Uiso   1.00
H903   H     0.87890   0.03990   0.84819   0.00000  Uiso   1.00
H904   H     0.92071   0.03689   0.81082   0.00000  Uiso   1.00
C905   C     0.77836   0.28609   0.68653   0.00000  Uiso   1.00
H906   H     0.77814   0.25026   0.69067   0.00000  Uiso   1.00
H907   H     0.74573   0.29650   0.69003   0.00000  Uiso   1.00
H908   H     0.78723   0.29342   0.65213   0.00000  Uiso   1.00
C909   C     0.77850   0.04792   0.68605   0.00000  Uiso   1.00
H910   H     0.77759   0.08391   0.68961   0.00000  Uiso   1.00
H911   H     0.78770   0.04069   0.65181   0.00000  Uiso   1.00
H912   H     0.74591   0.03718   0.68917   0.00000  Uiso   1.00
C913   C     0.88848   0.28568   0.81343   0.00000  Uiso   1.00
H914   H     0.88886   0.24982   0.80966   0.00000  Uiso   1.00
H915   H     0.92107   0.29617   0.80977   0.00000  Uiso   1.00
H916   H     0.87967   0.29302   0.84778   0.00000  Uiso   1.00
C917   C     0.75437   0.17924   0.61152   0.00000  Uiso   1.00
H918   H     0.75424   0.21083   0.63041   0.00000  Uiso   1.00
H919   H     0.72784   0.18027   0.58590   0.00000  Uiso   1.00
H920   H     0.74919   0.15079   0.63437   0.00000  Uiso   1.00
C921   C     0.76157   0.13114   0.87711   0.00000  Uiso   1.00
H922   H     0.74882   0.15752   0.85395   0.00000  Uiso   1.00
H923   H     0.77016   0.10147   0.85768   0.00000  Uiso   1.00
H924   H     0.73654   0.12098   0.89877   0.00000  Uiso   1.00
C925   C     0.90931   0.19553   0.88955   0.00000  Uiso   1.00
H926   H     0.91444   0.23186   0.89456   0.00000  Uiso   1.00
H927   H     0.93576   0.17718   0.90679   0.00000  Uiso   1.00
H928   H     0.90986   0.18770   0.85353   0.00000  Uiso   1.00
C929   C     0.91070   0.15015   0.62429   0.00000  Uiso   1.00
H930   H     0.91812   0.17961   0.64573   0.00000  Uiso   1.00
H931   H     0.90769   0.12018   0.64567   0.00000  Uiso   1.00
H932   H     0.93717   0.14461   0.60307   0.00000  Uiso   1.00
Br933  Br    0.71219   0.06928   0.77692   0.00000  Uiso   1.00
Br934  Br    0.95457   0.26342   0.72153   0.00000  Uiso   1.00
Br935  Br    0.95442   0.06947   0.72282   0.00000  Uiso   1.00
Br936  Br    0.71188   0.26331   0.77783   0.00000  Uiso   1.00
C937   C     0.08703   0.49997   0.75410   0.00000  Uiso   1.00
C938   C     0.24628   0.49999   0.74581   0.00000  Uiso   1.00
C939   C     0.16610   0.50004   0.66432   0.00000  Uiso   1.00
C940   C     0.16706   0.49983   0.83572   0.00000  Uiso   1.00
C941   C     0.19252   0.35718   0.77987   0.00000  Uiso   1.00
C942   C     0.14078   0.64295   0.72021   0.00000  Uiso   1.00
C943   C     0.14081   0.35741   0.72012   0.00000  Uiso   1.00
C944   C     0.19260   0.64272   0.77976   0.00000  Uiso   1.00
C945   C     0.02097   0.45888   0.75617   0.00000  Uiso   1.00
C946   C     0.31233   0.54080   0.74325   0.00000  Uiso   1.00
C947   C     0.31233   0.45891   0.74349   0.00000  Uiso   1.00
C948   C     0.02090   0.54077   0.75625   0.00000  Uiso   1.00
C949   C     0.12966   0.50803   0.54455   0.00000  Uiso   1.00
C950   C     0.13328   0.48134   0.95025   0.00000  Uiso   1.00
C951   C     0.20125   0.51668   0.95529   0.00000  Uiso   1.00
C952   C     0.20348   0.49047   0.55048   0.00000  Uiso   1.00
C953   C     0.12875   0.50706   0.59071   0.00000  Uiso   1.00
C954   C     0.13273   0.48190   0.90398   0.00000  Uiso   1.00
C955   C     0.20264   0.51511   0.90924   0.00000  Uiso   1.00
C956   C     0.20378   0.49146   0.59673   0.00000  Uiso   1.00
C957   C     0.16624   0.49993   0.61661   0.00000  Uiso   1.00
C958   C     0.16753   0.49910   0.88356   0.00000  Uiso   1.00
C959   C     0.16676   0.49945   0.52439   0.00000  Uiso   1.00
C960   C     0.16701   0.49937   0.97589   0.00000  Uiso   1.00
C961   C     0.29066   0.49989   0.74143   0.00000  Uiso   1.00
C962   C     0.04261   0.49985   0.75824   0.00000  Uiso   1.00
H963   H     0.10138   0.51551   0.52432   0.00000  Uiso   1.00
H964   H     0.10738   0.46667   0.96631   0.00000  Uiso   1.00
H965   H     0.22734   0.53085   0.97508   0.00000  Uiso   1.00
H966   H     0.23187   0.48245   0.53481   0.00000  Uiso   1.00
N967   N     0.16667   0.61907   0.75000   0.00000  Uiso   1.00
N968   N     0.16667   0.38093   0.75000   0.00000  Uiso   1.00
O969   O     0.10559   0.53821   0.75000   0.00000  Uiso   1.00
O970   O     0.22774   0.46179   0.75000   0.00000  Uiso   1.00
O971   O     0.22774   0.53821   0.75000   0.00000  Uiso   1.00
O972   O     0.10559   0.46179   0.75000   0.00000  Uiso   1.00
O973   O     0.16666   0.53822   0.68453   0.00000  Uiso   1.00
O974   O     0.16667   0.46178   0.81547   0.00000  Uiso   1.00
O975   O     0.16667   0.53822   0.81547   0.00000  Uiso   1.00
O976   O     0.16666   0.46178   0.68453   0.00000  Uiso   1.00
Zn977  Zn    0.16667   0.55104   0.75000   0.00000  Uiso   1.00
Zn978  Zn    0.16667   0.44896   0.75000   0.00000  Uiso   1.00
C979   C     0.22142   0.38081   0.81396   0.00000  Uiso   1.00
H980   H     0.22216   0.41684   0.81047   0.00000  Uiso   1.00
H981   H     0.21224   0.37324   0.84819   0.00000  Uiso   1.00
H982   H     0.25405   0.37022   0.81082   0.00000  Uiso   1.00
C983   C     0.11169   0.61942   0.68653   0.00000  Uiso   1.00
H984   H     0.11147   0.58359   0.69067   0.00000  Uiso   1.00
H985   H     0.07906   0.62983   0.69003   0.00000  Uiso   1.00
H986   H     0.12056   0.62676   0.65213   0.00000  Uiso   1.00
C987   C     0.11183   0.38126   0.68605   0.00000  Uiso   1.00
H988   H     0.11092   0.41724   0.68961   0.00000  Uiso   1.00
H989   H     0.12104   0.37402   0.65181   0.00000  Uiso   1.00
H990   H     0.07924   0.37052   0.68917   0.00000  Uiso   1.00
C991   C     0.22181   0.61902   0.81343   0.00000  Uiso   1.00
H992   H     0.22219   0.58316   0.80966   0.00000  Uiso   1.00
H993   H     0.25440   0.62950   0.80977   0.00000  Uiso   1.00
H994   H     0.21300   0.62635   0.84778   0.00000  Uiso   1.00
C995   C     0.08770   0.51257   0.61152   0.00000  Uiso   1.00
H996   H     0.08757   0.54416   0.63041   0.00000  Uiso   1.00
H997   H     0.06118   0.51361   0.58590   0.00000  Uiso   1.00
H998   H     0.08252   0.48413   0.63437   0.00000  Uiso   1.00
C999   C     0.09491   0.46447   0.87711   0.00000  Uiso   1.00
H1000  H     0.08215   0.49085   0.85395   0.00000  Uiso   1.00
H1001  H     0.10349   0.43481   0.85768   0.00000  Uiso   1.00
H1002  H     0.06988   0.45432   0.89877   0.00000  Uiso   1.00
C1003  C     0.24264   0.52886   0.88955   0.00000  Uiso   1.00
H1004  H     0.24777   0.56519   0.89456   0.00000  Uiso   1.00
H1005  H     0.26909   0.51052   0.90679   0.00000  Uiso   1.00
H1006  H     0.24319   0.52103   0.85353   0.00000  Uiso   1.00
C1007  C     0.24403   0.48349   0.62429   0.00000  Uiso   1.00
H1008  H     0.25145   0.51295   0.64573   0.00000  Uiso   1.00
H1009  H     0.24102   0.45351   0.64567   0.00000  Uiso   1.00
H1010  H     0.27050   0.47794   0.60307   0.00000  Uiso   1.00
Br1011 Br    0.04552   0.40262   0.77692   0.00000  Uiso   1.00
Br1012 Br    0.28791   0.59675   0.72153   0.00000  Uiso   1.00
Br1013 Br    0.28775   0.40280   0.72282   0.00000  Uiso   1.00
Br1014 Br    0.04521   0.59664   0.77783   0.00000  Uiso   1.00
C1015  C     0.42036   0.49997   0.75410   0.00000  Uiso   1.00
C1016  C     0.57961   0.49999   0.74581   0.00000  Uiso   1.00
C1017  C     0.49943   0.50004   0.66432   0.00000  Uiso   1.00
C1018  C     0.50039   0.49983   0.83572   0.00000  Uiso   1.00
C1019  C     0.52586   0.35718   0.77987   0.00000  Uiso   1.00
C1020  C     0.47412   0.64295   0.72021   0.00000  Uiso   1.00
C1021  C     0.47414   0.35741   0.72012   0.00000  Uiso   1.00
C1022  C     0.52593   0.64272   0.77976   0.00000  Uiso   1.00
C1023  C     0.35430   0.45888   0.75617   0.00000  Uiso   1.00
C1024  C     0.64567   0.54080   0.74325   0.00000  Uiso   1.00
C1025  C     0.64566   0.45891   0.74349   0.00000  Uiso   1.00
C1026  C     0.35423   0.54077   0.75625   0.00000  Uiso   1.00
C1027  C     0.46300   0.50803   0.54455   0.00000  Uiso   1.00
C1028  C     0.46661   0.48134   0.95025   0.00000  Uiso   1.00
C1029  C     0.53458   0.51668   0.95529   0.00000  Uiso   1.00
C1030  C     0.53681   0.49047   0.55048   0.00000  Uiso   1.00
C1031  C     0.46208   0.50706   0.59071   0.00000  Uiso   1.00
C1032  C     0.46606   0.48190   0.90398   0.00000  Uiso   1.00
C1033  C     0.53598   0.51511   0.90924   0.00000  Uiso   1.00
C1034  C     0.53712   0.49146   0.59673   0.00000  Uiso   1.00
C1035  C     0.49957   0.49993   0.61661   0.00000  Uiso   1.00
C1036  C     0.50087   0.49910   0.88356   0.00000  Uiso   1.00
C1037  C     0.50009   0.49945   0.52439   0.00000  Uiso   1.00
C1038  C     0.50035   0.49937   0.97589   0.00000  Uiso   1.00
C1039  C     0.62399   0.49989   0.74143   0.00000  Uiso   1.00
C1040  C     0.37594   0.49985   0.75824   0.00000  Uiso   1.00
H1041  H     0.43471   0.51551   0.52432   0.00000  Uiso   1.00
H1042  H     0.44071   0.46667   0.96631   0.00000  Uiso   1.00
H1043  H     0.56068   0.53085   0.97508   0.00000  Uiso   1.00
H1044  H     0.56521   0.48245   0.53481   0.00000  Uiso   1.00
N1045  N     0.50000   0.61907   0.75000   0.00000  Uiso   1.00
N1046  N     0.50000   0.38093   0.75000   0.00000  Uiso   1.00
O1047  O     0.43892   0.53821   0.75000   0.00000  Uiso   1.00
O1048  O     0.56108   0.46179   0.75000   0.00000  Uiso   1.00
O1049  O     0.56108   0.53821   0.75000   0.00000  Uiso   1.00
O1050  O     0.43892   0.46179   0.75000   0.00000  Uiso   1.00
O1051  O     0.50000   0.53822   0.68453   0.00000  Uiso   1.00
O1052  O     0.50000   0.46178   0.81547   0.00000  Uiso   1.00
O1053  O     0.50000   0.53822   0.81547   0.00000  Uiso   1.00
O1054  O     0.50000   0.46178   0.68453   0.00000  Uiso   1.00
Zn1055 Zn    0.50000   0.55104   0.75000   0.00000  Uiso   1.00
Zn1056 Zn    0.50000   0.44896   0.75000   0.00000  Uiso   1.00
C1057  C     0.55475   0.38081   0.81396   0.00000  Uiso   1.00
H1058  H     0.55549   0.41684   0.81047   0.00000  Uiso   1.00
H1059  H     0.54557   0.37324   0.84819   0.00000  Uiso   1.00
H1060  H     0.58738   0.37022   0.81082   0.00000  Uiso   1.00
C1061  C     0.44503   0.61942   0.68653   0.00000  Uiso   1.00
H1062  H     0.44481   0.58359   0.69067   0.00000  Uiso   1.00
H1063  H     0.41240   0.62983   0.69003   0.00000  Uiso   1.00
H1064  H     0.45390   0.62676   0.65213   0.00000  Uiso   1.00
C1065  C     0.44517   0.38126   0.68605   0.00000  Uiso   1.00
H1066  H     0.44426   0.41724   0.68961   0.00000  Uiso   1.00
H1067  H     0.45437   0.37402   0.65181   0.00000  Uiso   1.00
H1068  H     0.41258   0.37052   0.68917   0.00000  Uiso   1.00
C1069  C     0.55515   0.61902   0.81343   0.00000  Uiso   1.00
H1070  H     0.55553   0.58316   0.80966   0.00000  Uiso   1.00
H1071  H     0.58773   0.62950   0.80977   0.00000  Uiso   1.00
H1072  H     0.54633   0.62635   0.84778   0.00000  Uiso   1.00
C1073  C     0.42104   0.51257   0.61152   0.00000  Uiso   1.00
H1074  H     0.42091   0.54416   0.63041   0.00000  Uiso   1.00
H1075  H     0.39451   0.51361   0.58590   0.00000  Uiso   1.00
H1076  H     0.41586   0.48413   0.63437   0.00000  Uiso   1.00
C1077  C     0.42824   0.46447   0.87711   0.00000  Uiso   1.00
H1078  H     0.41549   0.49085   0.85395   0.00000  Uiso   1.00
H1079  H     0.43682   0.43481   0.85768   0.00000  Uiso   1.00
H1080  H     0.40321   0.45432   0.89877   0.00000  Uiso   1.00
C1081  C     0.57597   0.52886   0.88955   0.00000  Uiso   1.00
H1082  H     0.58110   0.56519   0.89456   0.00000  Uiso   1.00
H1083  H     0.60242   0.51052   0.90679   0.00000  Uiso   1.00
H1084  H     0.57652   0.52103   0.85353   0.00000  Uiso   1.00
C1085  C     0.57737   0.48349   0.62429   0.00000  Uiso   1.00
H1086  H     0.58479   0.51295   0.64573   0.00000  Uiso   1.00
H1087  H     0.57436   0.45351   0.64567   0.00000  Uiso   1.00
H1088  H     0.60384   0.47794   0.60307   0.00000  Uiso   1.00
Br1089 Br    0.37885   0.40262   0.77692   0.00000  Uiso   1.00
Br1090 Br    0.62124   0.59675   0.72153   0.00000  Uiso   1.00
Br1091 Br    0.62108   0.40280   0.72282   0.00000  Uiso   1.00
Br1092 Br    0.37854   0.59664   0.77783   0.00000  Uiso   1.00
C1093  C     0.75369   0.49997   0.75410   0.00000  Uiso   1.00
C1094  C     0.91295   0.49999   0.74581   0.00000  Uiso   1.00
C1095  C     0.83277   0.50004   0.66432   0.00000  Uiso   1.00
C1096  C     0.83372   0.49983   0.83572   0.00000  Uiso   1.00
C1097  C     0.85919   0.35718   0.77987   0.00000  Uiso   1.00
C1098  C     0.80745   0.64295   0.72021   0.00000  Uiso   1.00
C1099  C     0.80748   0.35741   0.72012   0.00000  Uiso   1.00
C1100  C     0.85927   0.64272   0.77976   0.00000  Uiso   1.00
C1101  C     0.68764   0.45888   0.75617   0.00000  Uiso   1.00
C1102  C     0.97900   0.54080   0.74325   0.00000  Uiso   1.00
C1103  C     0.97899   0.45891   0.74349   0.00000  Uiso   1.00
C1104  C     0.68756   0.54077   0.75625   0.00000  Uiso   1.00
C1105  C     0.79633   0.50803   0.54455   0.00000  Uiso   1.00
C1106  C     0.79994   0.48134   0.95025   0.00000  Uiso   1.00
C1107  C     0.86791   0.51668   0.95529   0.00000  Uiso   1.00
C1108  C     0.87015   0.49047   0.55048   0.00000  Uiso   1.00
C1109  C     0.79541   0.50706   0.59071   0.00000  Uiso   1.00
C1110  C     0.79940   0.48190   0.90398   0.00000  Uiso   1.00
C1111  C     0.86931   0.51511   0.90924   0.00000  Uiso   1.00
C1112  C     0.87045   0.49146   0.59673   0.00000  Uiso   1.00
C1113  C     0.83291   0.49993   0.61661   0.00000  Uiso   1.00
C1114  C     0.83420   0.49910   0.88356   0.00000  Uiso   1.00
C1115  C     0.83342   0.49945   0.52439   0.00000  Uiso   1.00
C1116  C     0.83368   0.49937   0.97589   0.00000  Uiso   1.00
C1117  C     0.95733   0.49989   0.74143   0.00000  Uiso   1.00
C1118  C     0.70928   0.49985   0.75824   0.00000  Uiso   1.00
H1119  H     0.76804   0.51551   0.52432   0.00000  Uiso   1.00
H1120  H     0.77404   0.46667   0.96631   0.00000  Uiso   1.00
H1121  H     0.89401   0.53085   0.97508   0.00000  Uiso   1.00
H1122  H     0.89854   0.48245   0.53481   0.00000  Uiso   1.00
N1123  N     0.83333   0.61907   0.75000   0.00000  Uiso   1.00
N1124  N     0.83333   0.38093   0.75000   0.00000  Uiso   1.00
O1125  O     0.77226   0.53821   0.75000   0.00000  Uiso   1.00
O1126  O     0.89441   0.46179   0.75000   0.00000  Uiso   1.00
O1127  O     0.89441   0.53821   0.75000   0.00000  Uiso   1.00
O1128  O     0.77226   0.46179   0.75000   0.00000  Uiso   1.00
O1129  O     0.83333   0.53822   0.68453   0.00000  Uiso   1.00
O1130  O     0.83334   0.46178   0.81547   0.00000  Uiso   1.00
O1131  O     0.83334   0.53822   0.81547   0.00000  Uiso   1.00
O1132  O     0.83333   0.46178   0.68453   0.00000  Uiso   1.00
Zn1133 Zn    0.83333   0.55104   0.75000   0.00000  Uiso   1.00
Zn1134 Zn    0.83333   0.44896   0.75000   0.00000  Uiso   1.00
C1135  C     0.88808   0.38081   0.81396   0.00000  Uiso   1.00
H1136  H     0.88882   0.41684   0.81047   0.00000  Uiso   1.00
H1137  H     0.87890   0.37324   0.84819   0.00000  Uiso   1.00
H1138  H     0.92071   0.37022   0.81082   0.00000  Uiso   1.00
C1139  C     0.77836   0.61942   0.68653   0.00000  Uiso   1.00
H1140  H     0.77814   0.58359   0.69067   0.00000  Uiso   1.00
H1141  H     0.74573   0.62983   0.69003   0.00000  Uiso   1.00
H1142  H     0.78723   0.62676   0.65213   0.00000  Uiso   1.00
C1143  C     0.77850   0.38126   0.68605   0.00000  Uiso   1.00
H1144  H     0.77759   0.41724   0.68961   0.00000  Uiso   1.00
H1145  H     0.78770   0.37402   0.65181   0.00000  Uiso   1.00
H1146  H     0.74591   0.37052   0.68917   0.00000  Uiso   1.00
C1147  C     0.88848   0.61902   0.81343   0.00000  Uiso   1.00
H1148  H     0.88886   0.58316   0.80966   0.00000  Uiso   1.00
H1149  H     0.92107   0.62950   0.80977   0.00000  Uiso   1.00
H1150  H     0.87967   0.62635   0.84778   0.00000  Uiso   1.00
C1151  C     0.75437   0.51257   0.61152   0.00000  Uiso   1.00
H1152  H     0.75424   0.54416   0.63041   0.00000  Uiso   1.00
H1153  H     0.72784   0.51361   0.58590   0.00000  Uiso   1.00
H1154  H     0.74919   0.48413   0.63437   0.00000  Uiso   1.00
C1155  C     0.76157   0.46447   0.87711   0.00000  Uiso   1.00
H1156  H     0.74882   0.49085   0.85395   0.00000  Uiso   1.00
H1157  H     0.77016   0.43481   0.85768   0.00000  Uiso   1.00
H1158  H     0.73654   0.45432   0.89877   0.00000  Uiso   1.00
C1159  C     0.90931   0.52886   0.88955   0.00000  Uiso   1.00
H1160  H     0.91444   0.56519   0.89456   0.00000  Uiso   1.00
H1161  H     0.93576   0.51052   0.90679   0.00000  Uiso   1.00
H1162  H     0.90986   0.52103   0.85353   0.00000  Uiso   1.00
C1163  C     0.91070   0.48349   0.62429   0.00000  Uiso   1.00
H1164  H     0.91812   0.51295   0.64573   0.00000  Uiso   1.00
H1165  H     0.90769   0.45351   0.64567   0.00000  Uiso   1.00
H1166  H     0.93717   0.47794   0.60307   0.00000  Uiso   1.00
Br1167 Br    0.71219   0.40262   0.77692   0.00000  Uiso   1.00
Br1168 Br    0.95457   0.59675   0.72153   0.00000  Uiso   1.00
Br1169 Br    0.95442   0.40280   0.72282   0.00000  Uiso   1.00
Br1170 Br    0.71188   0.59664   0.77783   0.00000  Uiso   1.00
C1171  C     0.08703   0.83330   0.75410   0.00000  Uiso   1.00
C1172  C     0.24628   0.83332   0.74581   0.00000  Uiso   1.00
C1173  C     0.16610   0.83337   0.66432   0.00000  Uiso   1.00
C1174  C     0.16706   0.83316   0.83572   0.00000  Uiso   1.00
C1175  C     0.19252   0.69052   0.77987   0.00000  Uiso   1.00
C1176  C     0.14078   0.97629   0.72021   0.00000  Uiso   1.00
C1177  C     0.14081   0.69074   0.72012   0.00000  Uiso   1.00
C1178  C     0.19260   0.97606   0.77976   0.00000  Uiso   1.00
C1179  C     0.02097   0.79221   0.75617   0.00000  Uiso   1.00
C1180  C     0.31233   0.87413   0.74325   0.00000  Uiso   1.00
C1181  C     0.31233   0.79225   0.74349   0.00000  Uiso   1.00
C1182  C     0.02090   0.87411   0.75625   0.00000  Uiso   1.00
C1183  C     0.12966   0.84136   0.54455   0.00000  Uiso   1.00
C1184  C     0.13328   0.81467   0.95025   0.00000  Uiso   1.00
C1185  C     0.20125   0.85001   0.95529   0.00000  Uiso   1.00
C1186  C     0.20348   0.82380   0.55048   0.00000  Uiso   1.00
C1187  C     0.12875   0.84039   0.59071   0.00000  Uiso   1.00
C1188  C     0.13273   0.81524   0.90398   0.00000  Uiso   1.00
C1189  C     0.20264   0.84845   0.90924   0.00000  Uiso   1.00
C1190  C     0.20378   0.82479   0.59673   0.00000  Uiso   1.00
C1191  C     0.16624   0.83326   0.61661   0.00000  Uiso   1.00
C1192  C     0.16753   0.83244   0.88356   0.00000  Uiso   1.00
C1193  C     0.16676   0.83279   0.52439   0.00000  Uiso   1.00
C1194  C     0.16701   0.83270   0.97589   0.00000  Uiso   1.00
C1195  C     0.29066   0.83323   0.74143   0.00000  Uiso   1.00
C1196  C     0.04261   0.83319   0.75824   0.00000  Uiso   1.00
H1197  H     0.10138   0.84884   0.52432   0.00000  Uiso   1.00
H1198  H     0.10738   0.80000   0.96631   0.00000  Uiso   1.00
H1199  H     0.22734   0.86418   0.97508   0.00000  Uiso   1.00
H1200  H     0.23187   0.81578   0.53481   0.00000  Uiso   1.00
N1201  N     0.16667   0.95240   0.75000   0.00000  Uiso   1.00
N1202  N     0.16667   0.71427   0.75000   0.00000  Uiso   1.00
O1203  O     0.10559   0.87154   0.75000   0.00000  Uiso   1.00
O1204  O     0.22774   0.79513   0.75000   0.00000  Uiso   1.00
O1205  O     0.22774   0.87154   0.75000   0.00000  Uiso   1.00
O1206  O     0.10559   0.79513   0.75000   0.00000  Uiso   1.00
O1207  O     0.16666   0.87155   0.68453   0.00000  Uiso   1.00
O1208  O     0.16667   0.79511   0.81547   0.00000  Uiso   1.00
O1209  O     0.16667   0.87155   0.81547   0.00000  Uiso   1.00
O1210  O     0.16666   0.79511   0.68453   0.00000  Uiso   1.00
Zn1211 Zn    0.16667   0.88437   0.75000   0.00000  Uiso   1.00
Zn1212 Zn    0.16667   0.78229   0.75000   0.00000  Uiso   1.00
C1213  C     0.22142   0.71415   0.81396   0.00000  Uiso   1.00
H1214  H     0.22216   0.75018   0.81047   0.00000  Uiso   1.00
H1215  H     0.21224   0.70657   0.84819   0.00000  Uiso   1.00
H1216  H     0.25405   0.70356   0.81082   0.00000  Uiso   1.00
C1217  C     0.11169   0.95276   0.68653   0.00000  Uiso   1.00
H1218  H     0.11147   0.91692   0.69067   0.00000  Uiso   1.00
H1219  H     0.07906   0.96317   0.69003   0.00000  Uiso   1.00
H1220  H     0.12056   0.96009   0.65213   0.00000  Uiso   1.00
C1221  C     0.11183   0.71459   0.68605   0.00000  Uiso   1.00
H1222  H     0.11092   0.75058   0.68961   0.00000  Uiso   1.00
H1223  H     0.12104   0.70736   0.65181   0.00000  Uiso   1.00
H1224  H     0.07924   0.70385   0.68917   0.00000  Uiso   1.00
C1225  C     0.22181   0.95235   0.81343   0.00000  Uiso   1.00
H1226  H     0.22219   0.91649   0.80966   0.00000  Uiso   1.00
H1227  H     0.25440   0.96283   0.80977   0.00000  Uiso   1.00
H1228  H     0.21300   0.95969   0.84778   0.00000  Uiso   1.00
C1229  C     0.08770   0.84590   0.61152   0.00000  Uiso   1.00
H1230  H     0.08757   0.87749   0.63041   0.00000  Uiso   1.00
H1231  H     0.06118   0.84694   0.58590   0.00000  Uiso   1.00
H1232  H     0.08252   0.81746   0.63437   0.00000  Uiso   1.00
C1233  C     0.09491   0.79780   0.87711   0.00000  Uiso   1.00
H1234  H     0.08215   0.82418   0.85395   0.00000  Uiso   1.00
H1235  H     0.10349   0.76814   0.85768   0.00000  Uiso   1.00
H1236  H     0.06988   0.78765   0.89877   0.00000  Uiso   1.00
C1237  C     0.24264   0.86220   0.88955   0.00000  Uiso   1.00
H1238  H     0.24777   0.89852   0.89456   0.00000  Uiso   1.00
H1239  H     0.26909   0.84385   0.90679   0.00000  Uiso   1.00
H1240  H     0.24319   0.85436   0.85353   0.00000  Uiso   1.00
C1241  C     0.24403   0.81682   0.62429   0.00000  Uiso   1.00
H1242  H     0.25145   0.84628   0.64573   0.00000  Uiso   1.00
H1243  H     0.24102   0.78684   0.64567   0.00000  Uiso   1.00
H1244  H     0.27050   0.81127   0.60307   0.00000  Uiso   1.00
Br1245 Br    0.04552   0.73595   0.77692   0.00000  Uiso   1.00
Br1246 Br    0.28791   0.93008   0.72153   0.00000  Uiso   1.00
Br1247 Br    0.28775   0.73614   0.72282   0.00000  Uiso   1.00
Br1248 Br    0.04521   0.92997   0.77783   0.00000  Uiso   1.00
C1249  C     0.42036   0.83330   0.75410   0.00000  Uiso   1.00
C1250  C     0.57961   0.83332   0.74581   0.00000  Uiso   1.00
C1251  C     0.49943   0.83337   0.66432   0.00000  Uiso   1.00
C1252  C     0.50039   0.83316   0.83572   0.00000  Uiso   1.00
C1253  C     0.52586   0.69052   0.77987   0.00000  Uiso   1.00
C1254  C     0.47412   0.97629   0.72021   0.00000  Uiso   1.00
C1255  C     0.47414   0.69074   0.72012   0.00000  Uiso   1.00
C1256  C     0.52593   0.97606   0.77976   0.00000  Uiso   1.00
C1257  C     0.35430   0.79221   0.75617   0.00000  Uiso   1.00
C1258  C     0.64567   0.87413   0.74325   0.00000  Uiso   1.00
C1259  C     0.64566   0.79225   0.74349   0.00000  Uiso   1.00
C1260  C     0.35423   0.87411   0.75625   0.00000  Uiso   1.00
C1261  C     0.46300   0.84136   0.54455   0.00000  Uiso   1.00
C1262  C     0.46661   0.81467   0.95025   0.00000  Uiso   1.00
C1263  C     0.53458   0.85001   0.95529   0.00000  Uiso   1.00
C1264  C     0.53681   0.82380   0.55048   0.00000  Uiso   1.00
C1265  C     0.46208   0.84039   0.59071   0.00000  Uiso   1.00
C1266  C     0.46606   0.81524   0.90398   0.00000  Uiso   1.00
C1267  C     0.53598   0.84845   0.90924   0.00000  Uiso   1.00
C1268  C     0.53712   0.82479   0.59673   0.00000  Uiso   1.00
C1269  C     0.49957   0.83326   0.61661   0.00000  Uiso   1.00
C1270  C     0.50087   0.83244   0.88356   0.00000  Uiso   1.00
C1271  C     0.50009   0.83279   0.52439   0.00000  Uiso   1.00
C1272  C     0.50035   0.83270   0.97589   0.00000  Uiso   1.00
C1273  C     0.62399   0.83323   0.74143   0.00000  Uiso   1.00
C1274  C     0.37594   0.83319   0.75824   0.00000  Uiso   1.00
H1275  H     0.43471   0.84884   0.52432   0.00000  Uiso   1.00
H1276  H     0.44071   0.80000   0.96631   0.00000  Uiso   1.00
H1277  H     0.56068   0.86418   0.97508   0.00000  Uiso   1.00
H1278  H     0.56521   0.81578   0.53481   0.00000  Uiso   1.00
N1279  N     0.50000   0.95240   0.75000   0.00000  Uiso   1.00
N1280  N     0.50000   0.71427   0.75000   0.00000  Uiso   1.00
O1281  O     0.43892   0.87154   0.75000   0.00000  Uiso   1.00
O1282  O     0.56108   0.79513   0.75000   0.00000  Uiso   1.00
O1283  O     0.56108   0.87154   0.75000   0.00000  Uiso   1.00
O1284  O     0.43892   0.79513   0.75000   0.00000  Uiso   1.00
O1285  O     0.50000   0.87155   0.68453   0.00000  Uiso   1.00
O1286  O     0.50000   0.79511   0.81547   0.00000  Uiso   1.00
O1287  O     0.50000   0.87155   0.81547   0.00000  Uiso   1.00
O1288  O     0.50000   0.79511   0.68453   0.00000  Uiso   1.00
Zn1289 Zn    0.50000   0.88437   0.75000   0.00000  Uiso   1.00
Zn1290 Zn    0.50000   0.78229   0.75000   0.00000  Uiso   1.00
C1291  C     0.55475   0.71415   0.81396   0.00000  Uiso   1.00
H1292  H     0.55549   0.75018   0.81047   0.00000  Uiso   1.00
H1293  H     0.54557   0.70657   0.84819   0.00000  Uiso   1.00
H1294  H     0.58738   0.70356   0.81082   0.00000  Uiso   1.00
C1295  C     0.44503   0.95276   0.68653   0.00000  Uiso   1.00
H1296  H     0.44481   0.91692   0.69067   0.00000  Uiso   1.00
H1297  H     0.41240   0.96317   0.69003   0.00000  Uiso   1.00
H1298  H     0.45390   0.96009   0.65213   0.00000  Uiso   1.00
C1299  C     0.44517   0.71459   0.68605   0.00000  Uiso   1.00
H1300  H     0.44426   0.75058   0.68961   0.00000  Uiso   1.00
H1301  H     0.45437   0.70736   0.65181   0.00000  Uiso   1.00
H1302  H     0.41258   0.70385   0.68917   0.00000  Uiso   1.00
C1303  C     0.55515   0.95235   0.81343   0.00000  Uiso   1.00
H1304  H     0.55553   0.91649   0.80966   0.00000  Uiso   1.00
H1305  H     0.58773   0.96283   0.80977   0.00000  Uiso   1.00
H1306  H     0.54633   0.95969   0.84778   0.00000  Uiso   1.00
C1307  C     0.42104   0.84590   0.61152   0.00000  Uiso   1.00
H1308  H     0.42091   0.87749   0.63041   0.00000  Uiso   1.00
H1309  H     0.39451   0.84694   0.58590   0.00000  Uiso   1.00
H1310  H     0.41586   0.81746   0.63437   0.00000  Uiso   1.00
C1311  C     0.42824   0.79780   0.87711   0.00000  Uiso   1.00
H1312  H     0.41549   0.82418   0.85395   0.00000  Uiso   1.00
H1313  H     0.43682   0.76814   0.85768   0.00000  Uiso   1.00
H1314  H     0.40321   0.78765   0.89877   0.00000  Uiso   1.00
C1315  C     0.57597   0.86220   0.88955   0.00000  Uiso   1.00
H1316  H     0.58110   0.89852   0.89456   0.00000  Uiso   1.00
H1317  H     0.60242   0.84385   0.90679   0.00000  Uiso   1.00
H1318  H     0.57652   0.85436   0.85353   0.00000  Uiso   1.00
C1319  C     0.57737   0.81682   0.62429   0.00000  Uiso   1.00
H1320  H     0.58479   0.84628   0.64573   0.00000  Uiso   1.00
H1321  H     0.57436   0.78684   0.64567   0.00000  Uiso   1.00
H1322  H     0.60384   0.81127   0.60307   0.00000  Uiso   1.00
Br1323 Br    0.37885   0.73595   0.77692   0.00000  Uiso   1.00
Br1324 Br    0.62124   0.93008   0.72153   0.00000  Uiso   1.00
Br1325 Br    0.62108   0.73614   0.72282   0.00000  Uiso   1.00
Br1326 Br    0.37854   0.92997   0.77783   0.00000  Uiso   1.00
C1327  C     0.75369   0.83330   0.75410   0.00000  Uiso   1.00
C1328  C     0.91295   0.83332   0.74581   0.00000  Uiso   1.00
C1329  C     0.83277   0.83337   0.66432   0.00000  Uiso   1.00
C1330  C     0.83372   0.83316   0.83572   0.00000  Uiso   1.00
C1331  C     0.85919   0.69052   0.77987   0.00000  Uiso   1.00
C1332  C     0.80745   0.97629   0.72021   0.00000  Uiso   1.00
C1333  C     0.80748   0.69074   0.72012   0.00000  Uiso   1.00
C1334  C     0.85927   0.97606   0.77976   0.00000  Uiso   1.00
C1335  C     0.68764   0.79221   0.75617   0.00000  Uiso   1.00
C1336  C     0.97900   0.87413   0.74325   0.00000  Uiso   1.00
C1337  C     0.97899   0.79225   0.74349   0.00000  Uiso   1.00
C1338  C     0.68756   0.87411   0.75625   0.00000  Uiso   1.00
C1339  C     0.79633   0.84136   0.54455   0.00000  Uiso   1.00
C1340  C     0.79994   0.81467   0.95025   0.00000  Uiso   1.00
C1341  C     0.86791   0.85001   0.95529   0.00000  Uiso   1.00
C1342  C     0.87015   0.82380   0.55048   0.00000  Uiso   1.00
C1343  C     0.79541   0.84039   0.59071   0.00000  Uiso   1.00
C1344  C     0.79940   0.81524   0.90398   0.00000  Uiso   1.00
C1345  C     0.86931   0.84845   0.90924   0.00000  Uiso   1.00
C1346  C     0.87045   0.82479   0.59673   0.00000  Uiso   1.00
C1347  C     0.83291   0.83326   0.61661   0.00000  Uiso   1.00
C1348  C     0.83420   0.83244   0.88356   0.00000  Uiso   1.00
C1349  C     0.83342   0.83279   0.52439   0.00000  Uiso   1.00
C1350  C     0.83368   0.83270   0.97589   0.00000  Uiso   1.00
C1351  C     0.95733   0.83323   0.74143   0.00000  Uiso   1.00
C1352  C     0.70928   0.83319   0.75824   0.00000  Uiso   1.00
H1353  H     0.76804   0.84884   0.52432   0.00000  Uiso   1.00
H1354  H     0.77404   0.80000   0.96631   0.00000  Uiso   1.00
H1355  H     0.89401   0.86418   0.97508   0.00000  Uiso   1.00
H1356  H     0.89854   0.81578   0.53481   0.00000  Uiso   1.00
N1357  N     0.83333   0.95240   0.75000   0.00000  Uiso   1.00
N1358  N     0.83333   0.71427   0.75000   0.00000  Uiso   1.00
O1359  O     0.77226   0.87154   0.75000   0.00000  Uiso   1.00
O1360  O     0.89441   0.79513   0.75000   0.00000  Uiso   1.00
O1361  O     0.89441   0.87154   0.75000   0.00000  Uiso   1.00
O1362  O     0.77226   0.79513   0.75000   0.00000  Uiso   1.00
O1363  O     0.83333   0.87155   0.68453   0.00000  Uiso   1.00
O1364  O     0.83334   0.79511   0.81547   0.00000  Uiso   1.00
O1365  O     0.83334   0.87155   0.81547   0.00000  Uiso   1.00
O1366  O     0.83333   0.79511   0.68453   0.00000  Uiso   1.00
Zn1367 Zn    0.83333   0.88437   0.75000   0.00000  Uiso   1.00
Zn1368 Zn    0.83333   0.78229   0.75000   0.00000  Uiso   1.00
C1369  C     0.88808   0.71415   0.81396   0.00000  Uiso   1.00
H1370  H     0.88882   0.75018   0.81047   0.00000  Uiso   1.00
H1371  H     0.87890   0.70657   0.84819   0.00000  Uiso   1.00
H1372  H     0.92071   0.70356   0.81082   0.00000  Uiso   1.00
C1373  C     0.77836   0.95276   0.68653   0.00000  Uiso   1.00
H1374  H     0.77814   0.91692   0.69067   0.00000  Uiso   1.00
H1375  H     0.74573   0.96317   0.69003   0.00000  Uiso   1.00
H1376  H     0.78723   0.96009   0.65213   0.00000  Uiso   1.00
C1377  C     0.77850   0.71459   0.68605   0.00000  Uiso   1.00
H1378  H     0.77759   0.75058   0.68961   0.00000  Uiso   1.00
H1379  H     0.78770   0.70736   0.65181   0.00000  Uiso   1.00
H1380  H     0.74591   0.70385   0.68917   0.00000  Uiso   1.00
C1381  C     0.88848   0.95235   0.81343   0.00000  Uiso   1.00
H1382  H     0.88886   0.91649   0.80966   0.00000  Uiso   1.00
H1383  H     0.92107   0.96283   0.80977   0.00000  Uiso   1.00
H1384  H     0.87967   0.95969   0.84778   0.00000  Uiso   1.00
C1385  C     0.75437   0.84590   0.61152   0.00000  Uiso   1.00
H1386  H     0.75424   0.87749   0.63041   0.00000  Uiso   1.00
H1387  H     0.72784   0.84694   0.58590   0.00000  Uiso   1.00
H1388  H     0.74919   0.81746   0.63437   0.00000  Uiso   1.00
C1389  C     0.76157   0.79780   0.87711   0.00000  Uiso   1.00
H1390  H     0.74882   0.82418   0.85395   0.00000  Uiso   1.00
H1391  H     0.77016   0.76814   0.85768   0.00000  Uiso   1.00
H1392  H     0.73654   0.78765   0.89877   0.00000  Uiso   1.00
C1393  C     0.90931   0.86220   0.88955   0.00000  Uiso   1.00
H1394  H     0.91444   0.89852   0.89456   0.00000  Uiso   1.00
H1395  H     0.93576   0.84385   0.90679   0.00000  Uiso   1.00
H1396  H     0.90986   0.85436   0.85353   0.00000  Uiso   1.00
C1397  C     0.91070   0.81682   0.62429   0.00000  Uiso   1.00
H1398  H     0.91812   0.84628   0.64573   0.00000  Uiso   1.00
H1399  H     0.90769   0.78684   0.64567   0.00000  Uiso   1.00
H1400  H     0.93717   0.81127   0.60307   0.00000  Uiso   1.00
Br1401 Br    0.71219   0.73595   0.77692   0.00000  Uiso   1.00
Br1402 Br    0.95457   0.93008   0.72153   0.00000  Uiso   1.00
Br1403 Br    0.95442   0.73614   0.72282   0.00000  Uiso   1.00
Br1404 Br    0.71188   0.92997   0.77783   0.00000  Uiso   1.00
loop_
_geom_bond_atom_site_label_1
_geom_bond_atom_site_label_2
_geom_bond_distance
_geom_bond_site_symmetry_2
_ccdc_geom_bond_type
C1     O33     1.301   .     A
C1     C26     1.445   .     S
C1     O36     1.300   .     A
C2     O35     1.301   .     A
C2     O34     1.300   .     A
C2     C25     1.445   .     S
C3     O40     1.293   .     A
C3     C21     1.431   .     S
C3     O37     1.296   .     A
C4     C22     1.434   .     S
C4     O39     1.298   .     A
C4     O38     1.293   .     A
C5     N32     1.377   .     A
C5     C43     1.514   .     S
C5     C476    1.431   1_545 S
C6     N31     1.379   .     A
C6     C47     1.508   .     S
C6     C241    1.431   .     S
C7     N32     1.378   .     A
C7     C51     1.514   .     S
C7     C474    1.431   1_545 S
C8     C55     1.509   .     S
C8     N31     1.379   .     A
C8     C239    1.431   .     S
C9     C26     1.411   .     A
C9     Br75    1.943   .     S
C9     C167    1.380   1_455 S
C10    Br76    1.942   .     S
C10    C25     1.409   .     A
C10    C90     1.380   .     S
C11    C25     1.411   .     A
C11    Br77    1.943   .     S
C11    C87     1.380   .     S
C12    Br78    1.942   .     S
C12    C26     1.410   .     A
C12    C166    1.380   1_455 S
C13    C23     1.399   .     A
C13    C17     1.387   .     A
C13    H27     1.083   .     S
C14    C18     1.387   .     A
C14    C24     1.399   .     A
C14    H28     1.083   .     S
C15    C19     1.386   .     A
C15    H29     1.084   .     S
C15    C24     1.398   .     A
C16    H30     1.083   .     S
C16    C20     1.387   .     A
C16    C23     1.400   .     A
C17    C21     1.408   .     A
C17    C59     1.509   .     S
C18    C63     1.510   .     S
C18    C22     1.410   .     A
C19    C67     1.510   .     S
C19    C22     1.410   .     A
C20    C71     1.509   .     S
C20    C21     1.407   .     A
C23    C726    1.455   1_554 S
C24    C725    1.455   .     S
N31    Zn41    2.037   .     S
N32    Zn42    2.037   .     S
O33    Zn41    2.005   .     S
O34    Zn42    2.005   .     S
O35    Zn41    2.005   .     S
O36    Zn42    2.005   .     S
O37    Zn41    2.002   .     S
O38    Zn42    2.002   .     S
O39    Zn41    1.999   .     S
O40    Zn42    1.999   .     S
C43    H44     1.084   .     S
C43    H45     1.110   .     S
C43    H46     1.108   .     S
C47    H49     1.108   .     S
C47    H50     1.110   .     S
C47    H48     1.080   .     S
C51    H53     1.110   .     S
C51    H52     1.084   .     S
C51    H54     1.108   .     S
C55    H56     1.080   .     S
C55    H57     1.108   .     S
C55    H58     1.110   .     S
C59    H60     1.105   .     S
C59    H61     1.111   .     S
C59    H62     1.111   .     S
C63    H65     1.109   .     S
C63    H66     1.111   .     S
C63    H64     1.110   .     S
C67    H68     1.109   .     S
C67    H69     1.111   .     S
C67    H70     1.108   .     S
C71    H73     1.109   .     S
C71    H74     1.111   .     S
C71    H72     1.110   .     S
C79    O111    1.301   .     A
C79    C104    1.445   .     S
C79    O114    1.300   .     A
C80    O113    1.301   .     A
C80    O112    1.300   .     A
C80    C103    1.445   .     S
C81    O118    1.293   .     A
C81    C99     1.431   .     S
C81    O115    1.296   .     A
C82    C100    1.434   .     S
C82    O117    1.298   .     A
C82    O116    1.293   .     A
C83    N110    1.377   .     A
C83    C121    1.514   .     S
C83    C554    1.431   1_545 S
C84    N109    1.379   .     A
C84    C125    1.508   .     S
C84    C319    1.431   .     S
C85    N110    1.378   .     A
C85    C129    1.514   .     S
C85    C552    1.431   1_545 S
C86    C133    1.509   .     S
C86    N109    1.379   .     A
C86    C317    1.431   .     S
C87    C104    1.411   .     A
C87    Br153   1.943   .     S
C88    Br154   1.942   .     S
C88    C103    1.409   .     A
C88    C168    1.380   .     S
C89    C103    1.411   .     A
C89    Br155   1.943   .     S
C89    C165    1.380   .     S
C90    Br156   1.942   .     S
C90    C104    1.410   .     A
C91    C101    1.399   .     A
C91    C95     1.387   .     A
C91    H105    1.083   .     S
C92    C96     1.387   .     A
C92    C102    1.399   .     A
C92    H106    1.083   .     S
C93    C97     1.386   .     A
C93    H107    1.084   .     S
C93    C102    1.398   .     A
C94    H108    1.083   .     S
C94    C98     1.387   .     A
C94    C101    1.400   .     A
C95    C99     1.408   .     A
C95    C137    1.509   .     S
C96    C141    1.510   .     S
C96    C100    1.410   .     A
C97    C145    1.510   .     S
C97    C100    1.410   .     A
C98    C149    1.509   .     S
C98    C99     1.407   .     A
C101   C804    1.455   1_554 S
C102   C803    1.455   .     S
N109   Zn119   2.037   .     S
N110   Zn120   2.037   .     S
O111   Zn119   2.005   .     S
O112   Zn120   2.005   .     S
O113   Zn119   2.005   .     S
O114   Zn120   2.005   .     S
O115   Zn119   2.002   .     S
O116   Zn120   2.002   .     S
O117   Zn119   1.999   .     S
O118   Zn120   1.999   .     S
C121   H122    1.084   .     S
C121   H123    1.110   .     S
C121   H124    1.108   .     S
C125   H127    1.108   .     S
C125   H128    1.110   .     S
C125   H126    1.080   .     S
C129   H131    1.110   .     S
C129   H130    1.084   .     S
C129   H132    1.108   .     S
C133   H134    1.080   .     S
C133   H135    1.108   .     S
C133   H136    1.110   .     S
C137   H138    1.105   .     S
C137   H139    1.111   .     S
C137   H140    1.111   .     S
C141   H143    1.109   .     S
C141   H144    1.111   .     S
C141   H142    1.110   .     S
C145   H146    1.109   .     S
C145   H147    1.111   .     S
C145   H148    1.108   .     S
C149   H151    1.109   .     S
C149   H152    1.111   .     S
C149   H150    1.110   .     S
C157   O189    1.301   .     A
C157   C182    1.445   .     S
C157   O192    1.300   .     A
C158   O191    1.301   .     A
C158   O190    1.300   .     A
C158   C181    1.445   .     S
C159   O196    1.293   .     A
C159   C177    1.431   .     S
C159   O193    1.296   .     A
C160   C178    1.434   .     S
C160   O195    1.298   .     A
C160   O194    1.293   .     A
C161   N188    1.377   .     A
C161   C199    1.514   .     S
C161   C632    1.431   1_545 S
C162   N187    1.379   .     A
C162   C203    1.508   .     S
C162   C397    1.431   .     S
C163   N188    1.378   .     A
C163   C207    1.514   .     S
C163   C630    1.431   1_545 S
C164   C211    1.509   .     S
C164   N187    1.379   .     A
C164   C395    1.431   .     S
C165   C182    1.411   .     A
C165   Br231   1.943   .     S
C166   Br232   1.942   .     S
C166   C181    1.409   .     A
C166   C12     1.380   1_655 S
C167   C181    1.411   .     A
C167   Br233   1.943   .     S
C167   C9      1.380   1_655 S
C168   Br234   1.942   .     S
C168   C182    1.410   .     A
C169   C179    1.399   .     A
C169   C173    1.387   .     A
C169   H183    1.083   .     S
C170   C174    1.387   .     A
C170   C180    1.399   .     A
C170   H184    1.083   .     S
C171   C175    1.386   .     A
C171   H185    1.084   .     S
C171   C180    1.398   .     A
C172   H186    1.083   .     S
C172   C176    1.387   .     A
C172   C179    1.400   .     A
C173   C177    1.408   .     A
C173   C215    1.509   .     S
C174   C219    1.510   .     S
C174   C178    1.410   .     A
C175   C223    1.510   .     S
C175   C178    1.410   .     A
C176   C227    1.509   .     S
C176   C177    1.407   .     A
C179   C882    1.455   1_554 S
C180   C881    1.455   .     S
N187   Zn197   2.037   .     S
N188   Zn198   2.037   .     S
O189   Zn197   2.005   .     S
O190   Zn198   2.005   .     S
O191   Zn197   2.005   .     S
O192   Zn198   2.005   .     S
O193   Zn197   2.002   .     S
O194   Zn198   2.002   .     S
O195   Zn197   1.999   .     S
O196   Zn198   1.999   .     S
C199   H200    1.084   .     S
C199   H201    1.110   .     S
C199   H202    1.108   .     S
C203   H205    1.108   .     S
C203   H206    1.110   .     S
C203   H204    1.080   .     S
C207   H209    1.110   .     S
C207   H208    1.084   .     S
C207   H210    1.108   .     S
C211   H212    1.080   .     S
C211   H213    1.108   .     S
C211   H214    1.110   .     S
C215   H216    1.105   .     S
C215   H217    1.111   .     S
C215   H218    1.111   .     S
C219   H221    1.109   .     S
C219   H222    1.111   .     S
C219   H220    1.110   .     S
C223   H224    1.109   .     S
C223   H225    1.111   .     S
C223   H226    1.108   .     S
C227   H229    1.109   .     S
C227   H230    1.111   .     S
C227   H228    1.110   .     S
C235   O267    1.301   .     A
C235   C260    1.445   .     S
C235   O270    1.300   .     A
C236   O269    1.301   .     A
C236   O268    1.300   .     A
C236   C259    1.445   .     S
C237   O274    1.293   .     A
C237   C255    1.431   .     S
C237   O271    1.296   .     A
C238   C256    1.434   .     S
C238   O273    1.298   .     A
C238   O272    1.293   .     A
C239   N266    1.377   .     A
C239   C277    1.514   .     S
C240   N265    1.379   .     A
C240   C281    1.508   .     S
C240   C475    1.431   .     S
C241   N266    1.378   .     A
C241   C285    1.514   .     S
C242   C289    1.509   .     S
C242   N265    1.379   .     A
C242   C473    1.431   .     S
C243   C260    1.411   .     A
C243   Br309   1.943   .     S
C243   C401    1.380   1_455 S
C244   Br310   1.942   .     S
C244   C259    1.409   .     A
C244   C324    1.380   .     S
C245   C259    1.411   .     A
C245   Br311   1.943   .     S
C245   C321    1.380   .     S
C246   Br312   1.942   .     S
C246   C260    1.410   .     A
C246   C400    1.380   1_455 S
C247   C257    1.399   .     A
C247   C251    1.387   .     A
C247   H261    1.083   .     S
C248   C252    1.387   .     A
C248   C258    1.399   .     A
C248   H262    1.083   .     S
C249   C253    1.386   .     A
C249   H263    1.084   .     S
C249   C258    1.398   .     A
C250   H264    1.083   .     S
C250   C254    1.387   .     A
C250   C257    1.400   .     A
C251   C255    1.408   .     A
C251   C293    1.509   .     S
C252   C297    1.510   .     S
C252   C256    1.410   .     A
C253   C301    1.510   .     S
C253   C256    1.410   .     A
C254   C305    1.509   .     S
C254   C255    1.407   .     A
C257   C960    1.455   1_554 S
C258   C959    1.455   .     S
N265   Zn275   2.037   .     S
N266   Zn276   2.037   .     S
O267   Zn275   2.005   .     S
O268   Zn276   2.005   .     S
O269   Zn275   2.005   .     S
O270   Zn276   2.005   .     S
O271   Zn275   2.002   .     S
O272   Zn276   2.002   .     S
O273   Zn275   1.999   .     S
O274   Zn276   1.999   .     S
C277   H278    1.084   .     S
C277   H279    1.110   .     S
C277   H280    1.108   .     S
C281   H283    1.108   .     S
C281   H284    1.110   .     S
C281   H282    1.080   .     S
C285   H287    1.110   .     S
C285   H286    1.084   .     S
C285   H288    1.108   .     S
C289   H290    1.080   .     S
C289   H291    1.108   .     S
C289   H292    1.110   .     S
C293   H294    1.105   .     S
C293   H295    1.111   .     S
C293   H296    1.111   .     S
C297   H299    1.109   .     S
C297   H300    1.111   .     S
C297   H298    1.110   .     S
C301   H302    1.109   .     S
C301   H303    1.111   .     S
C301   H304    1.108   .     S
C305   H307    1.109   .     S
C305   H308    1.111   .     S
C305   H306    1.110   .     S
C313   O345    1.301   .     A
C313   C338    1.445   .     S
C313   O348    1.300   .     A
C314   O347    1.301   .     A
C314   O346    1.300   .     A
C314   C337    1.445   .     S
C315   O352    1.293   .     A
C315   C333    1.431   .     S
C315   O349    1.296   .     A
C316   C334    1.434   .     S
C316   O351    1.298   .     A
C316   O350    1.293   .     A
C317   N344    1.377   .     A
C317   C355    1.514   .     S
C318   N343    1.379   .     A
C318   C359    1.508   .     S
C318   C553    1.431   .     S
C319   N344    1.378   .     A
C319   C363    1.514   .     S
C320   C367    1.509   .     S
C320   N343    1.379   .     A
C320   C551    1.431   .     S
C321   C338    1.411   .     A
C321   Br387   1.943   .     S
C322   Br388   1.942   .     S
C322   C337    1.409   .     A
C322   C402    1.380   .     S
C323   C337    1.411   .     A
C323   Br389   1.943   .     S
C323   C399    1.380   .     S
C324   Br390   1.942   .     S
C324   C338    1.410   .     A
C325   C335    1.399   .     A
C325   C329    1.387   .     A
C325   H339    1.083   .     S
C326   C330    1.387   .     A
C326   C336    1.399   .     A
C326   H340    1.083   .     S
C327   C331    1.386   .     A
C327   H341    1.084   .     S
C327   C336    1.398   .     A
C328   H342    1.083   .     S
C328   C332    1.387   .     A
C328   C335    1.400   .     A
C329   C333    1.408   .     A
C329   C371    1.509   .     S
C330   C375    1.510   .     S
C330   C334    1.410   .     A
C331   C379    1.510   .     S
C331   C334    1.410   .     A
C332   C383    1.509   .     S
C332   C333    1.407   .     A
C335   C1038   1.455   1_554 S
C336   C1037   1.455   .     S
N343   Zn353   2.037   .     S
N344   Zn354   2.037   .     S
O345   Zn353   2.005   .     S
O346   Zn354   2.005   .     S
O347   Zn353   2.005   .     S
O348   Zn354   2.005   .     S
O349   Zn353   2.002   .     S
O350   Zn354   2.002   .     S
O351   Zn353   1.999   .     S
O352   Zn354   1.999   .     S
C355   H356    1.084   .     S
C355   H357    1.110   .     S
C355   H358    1.108   .     S
C359   H361    1.108   .     S
C359   H362    1.110   .     S
C359   H360    1.080   .     S
C363   H365    1.110   .     S
C363   H364    1.084   .     S
C363   H366    1.108   .     S
C367   H368    1.080   .     S
C367   H369    1.108   .     S
C367   H370    1.110   .     S
C371   H372    1.105   .     S
C371   H373    1.111   .     S
C371   H374    1.111   .     S
C375   H377    1.109   .     S
C375   H378    1.111   .     S
C375   H376    1.110   .     S
C379   H380    1.109   .     S
C379   H381    1.111   .     S
C379   H382    1.108   .     S
C383   H385    1.109   .     S
C383   H386    1.111   .     S
C383   H384    1.110   .     S
C391   O423    1.301   .     A
C391   C416    1.445   .     S
C391   O426    1.300   .     A
C392   O425    1.301   .     A
C392   O424    1.300   .     A
C392   C415    1.445   .     S
C393   O430    1.293   .     A
C393   C411    1.431   .     S
C393   O427    1.296   .     A
C394   C412    1.434   .     S
C394   O429    1.298   .     A
C394   O428    1.293   .     A
C395   N422    1.377   .     A
C395   C433    1.514   .     S
C396   N421    1.379   .     A
C396   C437    1.508   .     S
C396   C631    1.431   .     S
C397   N422    1.378   .     A
C397   C441    1.514   .     S
C398   C445    1.509   .     S
C398   N421    1.379   .     A
C398   C629    1.431   .     S
C399   C416    1.411   .     A
C399   Br465   1.943   .     S
C400   Br466   1.942   .     S
C400   C415    1.409   .     A
C400   C246    1.380   1_655 S
C401   C415    1.411   .     A
C401   Br467   1.943   .     S
C401   C243    1.380   1_655 S
C402   Br468   1.942   .     S
C402   C416    1.410   .     A
C403   C413    1.399   .     A
C403   C407    1.387   .     A
C403   H417    1.083   .     S
C404   C408    1.387   .     A
C404   C414    1.399   .     A
C404   H418    1.083   .     S
C405   C409    1.386   .     A
C405   H419    1.084   .     S
C405   C414    1.398   .     A
C406   H420    1.083   .     S
C406   C410    1.387   .     A
C406   C413    1.400   .     A
C407   C411    1.408   .     A
C407   C449    1.509   .     S
C408   C453    1.510   .     S
C408   C412    1.410   .     A
C409   C457    1.510   .     S
C409   C412    1.410   .     A
C410   C461    1.509   .     S
C410   C411    1.407   .     A
C413   C1116   1.455   1_554 S
C414   C1115   1.455   .     S
N421   Zn431   2.037   .     S
N422   Zn432   2.037   .     S
O423   Zn431   2.005   .     S
O424   Zn432   2.005   .     S
O425   Zn431   2.005   .     S
O426   Zn432   2.005   .     S
O427   Zn431   2.002   .     S
O428   Zn432   2.002   .     S
O429   Zn431   1.999   .     S
O430   Zn432   1.999   .     S
C433   H434    1.084   .     S
C433   H435    1.110   .     S
C433   H436    1.108   .     S
C437   H439    1.108   .     S
C437   H440    1.110   .     S
C437   H438    1.080   .     S
C441   H443    1.110   .     S
C441   H442    1.084   .     S
C441   H444    1.108   .     S
C445   H446    1.080   .     S
C445   H447    1.108   .     S
C445   H448    1.110   .     S
C449   H450    1.105   .     S
C449   H451    1.111   .     S
C449   H452    1.111   .     S
C453   H455    1.109   .     S
C453   H456    1.111   .     S
C453   H454    1.110   .     S
C457   H458    1.109   .     S
C457   H459    1.111   .     S
C457   H460    1.108   .     S
C461   H463    1.109   .     S
C461   H464    1.111   .     S
C461   H462    1.110   .     S
C469   O501    1.301   .     A
C469   C494    1.445   .     S
C469   O504    1.300   .     A
C470   O503    1.301   .     A
C470   O502    1.300   .     A
C470   C493    1.445   .     S
C471   O508    1.293   .     A
C471   C489    1.431   .     S
C471   O505    1.296   .     A
C472   C490    1.434   .     S
C472   O507    1.298   .     A
C472   O506    1.293   .     A
C473   N500    1.377   .     A
C473   C511    1.514   .     S
C474   N499    1.379   .     A
C474   C515    1.508   .     S
C474   C7      1.431   1_565 S
C475   N500    1.378   .     A
C475   C519    1.514   .     S
C476   C523    1.509   .     S
C476   N499    1.379   .     A
C476   C5      1.431   1_565 S
C477   C494    1.411   .     A
C477   Br543   1.943   .     S
C477   C635    1.380   1_455 S
C478   Br544   1.942   .     S
C478   C493    1.409   .     A
C478   C558    1.380   .     S
C479   C493    1.411   .     A
C479   Br545   1.943   .     S
C479   C555    1.380   .     S
C480   Br546   1.942   .     S
C480   C494    1.410   .     A
C480   C634    1.380   1_455 S
C481   C491    1.399   .     A
C481   C485    1.387   .     A
C481   H495    1.083   .     S
C482   C486    1.387   .     A
C482   C492    1.399   .     A
C482   H496    1.083   .     S
C483   C487    1.386   .     A
C483   H497    1.084   .     S
C483   C492    1.398   .     A
C484   H498    1.083   .     S
C484   C488    1.387   .     A
C484   C491    1.400   .     A
C485   C489    1.408   .     A
C485   C527    1.509   .     S
C486   C531    1.510   .     S
C486   C490    1.410   .     A
C487   C535    1.510   .     S
C487   C490    1.410   .     A
C488   C539    1.509   .     S
C488   C489    1.407   .     A
C491   C1194   1.455   1_554 S
C492   C1193   1.455   .     S
N499   Zn509   2.037   .     S
N500   Zn510   2.037   .     S
O501   Zn509   2.005   .     S
O502   Zn510   2.005   .     S
O503   Zn509   2.005   .     S
O504   Zn510   2.005   .     S
O505   Zn509   2.002   .     S
O506   Zn510   2.002   .     S
O507   Zn509   1.999   .     S
O508   Zn510   1.999   .     S
C511   H512    1.084   .     S
C511   H513    1.110   .     S
C511   H514    1.108   .     S
C515   H517    1.108   .     S
C515   H518    1.110   .     S
C515   H516    1.080   .     S
C519   H521    1.110   .     S
C519   H520    1.084   .     S
C519   H522    1.108   .     S
C523   H524    1.080   .     S
C523   H525    1.108   .     S
C523   H526    1.110   .     S
C527   H528    1.105   .     S
C527   H529    1.111   .     S
C527   H530    1.111   .     S
C531   H533    1.109   .     S
C531   H534    1.111   .     S
C531   H532    1.110   .     S
C535   H536    1.109   .     S
C535   H537    1.111   .     S
C535   H538    1.108   .     S
C539   H541    1.109   .     S
C539   H542    1.111   .     S
C539   H540    1.110   .     S
C547   O579    1.301   .     A
C547   C572    1.445   .     S
C547   O582    1.300   .     A
C548   O581    1.301   .     A
C548   O580    1.300   .     A
C548   C571    1.445   .     S
C549   O586    1.293   .     A
C549   C567    1.431   .     S
C549   O583    1.296   .     A
C550   C568    1.434   .     S
C550   O585    1.298   .     A
C550   O584    1.293   .     A
C551   N578    1.377   .     A
C551   C589    1.514   .     S
C552   N577    1.379   .     A
C552   C593    1.508   .     S
C552   C85     1.431   1_565 S
C553   N578    1.378   .     A
C553   C597    1.514   .     S
C554   C601    1.509   .     S
C554   N577    1.379   .     A
C554   C83     1.431   1_565 S
C555   C572    1.411   .     A
C555   Br621   1.943   .     S
C556   Br622   1.942   .     S
C556   C571    1.409   .     A
C556   C636    1.380   .     S
C557   C571    1.411   .     A
C557   Br623   1.943   .     S
C557   C633    1.380   .     S
C558   Br624   1.942   .     S
C558   C572    1.410   .     A
C559   C569    1.399   .     A
C559   C563    1.387   .     A
C559   H573    1.083   .     S
C560   C564    1.387   .     A
C560   C570    1.399   .     A
C560   H574    1.083   .     S
C561   C565    1.386   .     A
C561   H575    1.084   .     S
C561   C570    1.398   .     A
C562   H576    1.083   .     S
C562   C566    1.387   .     A
C562   C569    1.400   .     A
C563   C567    1.408   .     A
C563   C605    1.509   .     S
C564   C609    1.510   .     S
C564   C568    1.410   .     A
C565   C613    1.510   .     S
C565   C568    1.410   .     A
C566   C617    1.509   .     S
C566   C567    1.407   .     A
C569   C1272   1.455   1_554 S
C570   C1271   1.455   .     S
N577   Zn587   2.037   .     S
N578   Zn588   2.037   .     S
O579   Zn587   2.005   .     S
O580   Zn588   2.005   .     S
O581   Zn587   2.005   .     S
O582   Zn588   2.005   .     S
O583   Zn587   2.002   .     S
O584   Zn588   2.002   .     S
O585   Zn587   1.999   .     S
O586   Zn588   1.999   .     S
C589   H590    1.084   .     S
C589   H591    1.110   .     S
C589   H592    1.108   .     S
C593   H595    1.108   .     S
C593   H596    1.110   .     S
C593   H594    1.080   .     S
C597   H599    1.110   .     S
C597   H598    1.084   .     S
C597   H600    1.108   .     S
C601   H602    1.080   .     S
C601   H603    1.108   .     S
C601   H604    1.110   .     S
C605   H606    1.105   .     S
C605   H607    1.111   .     S
C605   H608    1.111   .     S
C609   H611    1.109   .     S
C609   H612    1.111   .     S
C609   H610    1.110   .     S
C613   H614    1.109   .     S
C613   H615    1.111   .     S
C613   H616    1.108   .     S
C617   H619    1.109   .     S
C617   H620    1.111   .     S
C617   H618    1.110   .     S
C625   O657    1.301   .     A
C625   C650    1.445   .     S
C625   O660    1.300   .     A
C626   O659    1.301   .     A
C626   O658    1.300   .     A
C626   C649    1.445   .     S
C627   O664    1.293   .     A
C627   C645    1.431   .     S
C627   O661    1.296   .     A
C628   C646    1.434   .     S
C628   O663    1.298   .     A
C628   O662    1.293   .     A
C629   N656    1.377   .     A
C629   C667    1.514   .     S
C630   N655    1.379   .     A
C630   C671    1.508   .     S
C630   C163    1.431   1_565 S
C631   N656    1.378   .     A
C631   C675    1.514   .     S
C632   C679    1.509   .     S
C632   N655    1.379   .     A
C632   C161    1.431   1_565 S
C633   C650    1.411   .     A
C633   Br699   1.943   .     S
C634   Br700   1.942   .     S
C634   C649    1.409   .     A
C634   C480    1.380   1_655 S
C635   C649    1.411   .     A
C635   Br701   1.943   .     S
C635   C477    1.380   1_655 S
C636   Br702   1.942   .     S
C636   C650    1.410   .     A
C637   C647    1.399   .     A
C637   C641    1.387   .     A
C637   H651    1.083   .     S
C638   C642    1.387   .     A
C638   C648    1.399   .     A
C638   H652    1.083   .     S
C639   C643    1.386   .     A
C639   H653    1.084   .     S
C639   C648    1.398   .     A
C640   H654    1.083   .     S
C640   C644    1.387   .     A
C640   C647    1.400   .     A
C641   C645    1.408   .     A
C641   C683    1.509   .     S
C642   C687    1.510   .     S
C642   C646    1.410   .     A
C643   C691    1.510   .     S
C643   C646    1.410   .     A
C644   C695    1.509   .     S
C644   C645    1.407   .     A
C647   C1350   1.455   1_554 S
C648   C1349   1.455   .     S
N655   Zn665   2.037   .     S
N656   Zn666   2.037   .     S
O657   Zn665   2.005   .     S
O658   Zn666   2.005   .     S
O659   Zn665   2.005   .     S
O660   Zn666   2.005   .     S
O661   Zn665   2.002   .     S
O662   Zn666   2.002   .     S
O663   Zn665   1.999   .     S
O664   Zn666   1.999   .     S
C667   H668    1.084   .     S
C667   H669    1.110   .     S
C667   H670    1.108   .     S
C671   H673    1.108   .     S
C671   H674    1.110   .     S
C671   H672    1.080   .     S
C675   H677    1.110   .     S
C675   H676    1.084   .     S
C675   H678    1.108   .     S
C679   H680    1.080   .     S
C679   H681    1.108   .     S
C679   H682    1.110   .     S
C683   H684    1.105   .     S
C683   H685    1.111   .     S
C683   H686    1.111   .     S
C687   H689    1.109   .     S
C687   H690    1.111   .     S
C687   H688    1.110   .     S
C691   H692    1.109   .     S
C691   H693    1.111   .     S
C691   H694    1.108   .     S
C695   H697    1.109   .     S
C695   H698    1.111   .     S
C695   H696    1.110   .     S
C703   O735    1.301   .     A
C703   C728    1.445   .     S
C703   O738    1.300   .     A
C704   O737    1.301   .     A
C704   O736    1.300   .     A
C704   C727    1.445   .     S
C705   O742    1.293   .     A
C705   C723    1.431   .     S
C705   O739    1.296   .     A
C706   C724    1.434   .     S
C706   O741    1.298   .     A
C706   O740    1.293   .     A
C707   N734    1.377   .     A
C707   C745    1.514   .     S
C707   C1178   1.431   1_545 S
C708   N733    1.379   .     A
C708   C749    1.508   .     S
C708   C943    1.431   .     S
C709   N734    1.378   .     A
C709   C753    1.514   .     S
C709   C1176   1.431   1_545 S
C710   C757    1.509   .     S
C710   N733    1.379   .     A
C710   C941    1.431   .     S
C711   C728    1.411   .     A
C711   Br777   1.943   .     S
C711   C869    1.380   1_455 S
C712   Br778   1.942   .     S
C712   C727    1.409   .     A
C712   C792    1.380   .     S
C713   C727    1.411   .     A
C713   Br779   1.943   .     S
C713   C789    1.380   .     S
C714   Br780   1.942   .     S
C714   C728    1.410   .     A
C714   C868    1.380   1_455 S
C715   C725    1.399   .     A
C715   C719    1.387   .     A
C715   H729    1.083   .     S
C716   C720    1.387   .     A
C716   C726    1.399   .     A
C716   H730    1.083   .     S
C717   C721    1.386   .     A
C717   H731    1.084   .     S
C717   C726    1.398   .     A
C718   H732    1.083   .     S
C718   C722    1.387   .     A
C718   C725    1.400   .     A
C719   C723    1.408   .     A
C719   C761    1.509   .     S
C720   C765    1.510   .     S
C720   C724    1.410   .     A
C721   C769    1.510   .     S
C721   C724    1.410   .     A
C722   C773    1.509   .     S
C722   C723    1.407   .     A
C726   C23     1.455   1_556 S
N733   Zn743   2.037   .     S
N734   Zn744   2.037   .     S
O735   Zn743   2.005   .     S
O736   Zn744   2.005   .     S
O737   Zn743   2.005   .     S
O738   Zn744   2.005   .     S
O739   Zn743   2.002   .     S
O740   Zn744   2.002   .     S
O741   Zn743   1.999   .     S
O742   Zn744   1.999   .     S
C745   H746    1.084   .     S
C745   H747    1.110   .     S
C745   H748    1.108   .     S
C749   H751    1.108   .     S
C749   H752    1.110   .     S
C749   H750    1.080   .     S
C753   H755    1.110   .     S
C753   H754    1.084   .     S
C753   H756    1.108   .     S
C757   H758    1.080   .     S
C757   H759    1.108   .     S
C757   H760    1.110   .     S
C761   H762    1.105   .     S
C761   H763    1.111   .     S
C761   H764    1.111   .     S
C765   H767    1.109   .     S
C765   H768    1.111   .     S
C765   H766    1.110   .     S
C769   H770    1.109   .     S
C769   H771    1.111   .     S
C769   H772    1.108   .     S
C773   H775    1.109   .     S
C773   H776    1.111   .     S
C773   H774    1.110   .     S
C781   O813    1.301   .     A
C781   C806    1.445   .     S
C781   O816    1.300   .     A
C782   O815    1.301   .     A
C782   O814    1.300   .     A
C782   C805    1.445   .     S
C783   O820    1.293   .     A
C783   C801    1.431   .     S
C783   O817    1.296   .     A
C784   C802    1.434   .     S
C784   O819    1.298   .     A
C784   O818    1.293   .     A
C785   N812    1.377   .     A
C785   C823    1.514   .     S
C785   C1256   1.431   1_545 S
C786   N811    1.379   .     A
C786   C827    1.508   .     S
C786   C1021   1.431   .     S
C787   N812    1.378   .     A
C787   C831    1.514   .     S
C787   C1254   1.431   1_545 S
C788   C835    1.509   .     S
C788   N811    1.379   .     A
C788   C1019   1.431   .     S
C789   C806    1.411   .     A
C789   Br855   1.943   .     S
C790   Br856   1.942   .     S
C790   C805    1.409   .     A
C790   C870    1.380   .     S
C791   C805    1.411   .     A
C791   Br857   1.943   .     S
C791   C867    1.380   .     S
C792   Br858   1.942   .     S
C792   C806    1.410   .     A
C793   C803    1.399   .     A
C793   C797    1.387   .     A
C793   H807    1.083   .     S
C794   C798    1.387   .     A
C794   C804    1.399   .     A
C794   H808    1.083   .     S
C795   C799    1.386   .     A
C795   H809    1.084   .     S
C795   C804    1.398   .     A
C796   H810    1.083   .     S
C796   C800    1.387   .     A
C796   C803    1.400   .     A
C797   C801    1.408   .     A
C797   C839    1.509   .     S
C798   C843    1.510   .     S
C798   C802    1.410   .     A
C799   C847    1.510   .     S
C799   C802    1.410   .     A
C800   C851    1.509   .     S
C800   C801    1.407   .     A
C804   C101    1.455   1_556 S
N811   Zn821   2.037   .     S
N812   Zn822   2.037   .     S
O813   Zn821   2.005   .     S
O814   Zn822   2.005   .     S
O815   Zn821   2.005   .     S
O816   Zn822   2.005   .     S
O817   Zn821   2.002   .     S
O818   Zn822   2.002   .     S
O819   Zn821   1.999   .     S
O820   Zn822   1.999   .     S
C823   H824    1.084   .     S
C823   H825    1.110   .     S
C823   H826    1.108   .     S
C827   H829    1.108   .     S
C827   H830    1.110   .     S
C827   H828    1.080   .     S
C831   H833    1.110   .     S
C831   H832    1.084   .     S
C831   H834    1.108   .     S
C835   H836    1.080   .     S
C835   H837    1.108   .     S
C835   H838    1.110   .     S
C839   H840    1.105   .     S
C839   H841    1.111   .     S
C839   H842    1.111   .     S
C843   H845    1.109   .     S
C843   H846    1.111   .     S
C843   H844    1.110   .     S
C847   H848    1.109   .     S
C847   H849    1.111   .     S
C847   H850    1.108   .     S
C851   H853    1.109   .     S
C851   H854    1.111   .     S
C851   H852    1.110   .     S
C859   O891    1.301   .     A
C859   C884    1.445   .     S
C859   O894    1.300   .     A
C860   O893    1.301   .     A
C860   O892    1.300   .     A
C860   C883    1.445   .     S
C861   O898    1.293   .     A
C861   C879    1.431   .     S
C861   O895    1.296   .     A
C862   C880    1.434   .     S
C862   O897    1.298   .     A
C862   O896    1.293   .     A
C863   N890    1.377   .     A
C863   C901    1.514   .     S
C863   C1334   1.431   1_545 S
C864   N889    1.379   .     A
C864   C905    1.508   .     S
C864   C1099   1.431   .     S
C865   N890    1.378   .     A
C865   C909    1.514   .     S
C865   C1332   1.431   1_545 S
C866   C913    1.509   .     S
C866   N889    1.379   .     A
C866   C1097   1.431   .     S
C867   C884    1.411   .     A
C867   Br933   1.943   .     S
C868   Br934   1.942   .     S
C868   C883    1.409   .     A
C868   C714    1.380   1_655 S
C869   C883    1.411   .     A
C869   Br935   1.943   .     S
C869   C711    1.380   1_655 S
C870   Br936   1.942   .     S
C870   C884    1.410   .     A
C871   C881    1.399   .     A
C871   C875    1.387   .     A
C871   H885    1.083   .     S
C872   C876    1.387   .     A
C872   C882    1.399   .     A
C872   H886    1.083   .     S
C873   C877    1.386   .     A
C873   H887    1.084   .     S
C873   C882    1.398   .     A
C874   H888    1.083   .     S
C874   C878    1.387   .     A
C874   C881    1.400   .     A
C875   C879    1.408   .     A
C875   C917    1.509   .     S
C876   C921    1.510   .     S
C876   C880    1.410   .     A
C877   C925    1.510   .     S
C877   C880    1.410   .     A
C878   C929    1.509   .     S
C878   C879    1.407   .     A
C882   C179    1.455   1_556 S
N889   Zn899   2.037   .     S
N890   Zn900   2.037   .     S
O891   Zn899   2.005   .     S
O892   Zn900   2.005   .     S
O893   Zn899   2.005   .     S
O894   Zn900   2.005   .     S
O895   Zn899   2.002   .     S
O896   Zn900   2.002   .     S
O897   Zn899   1.999   .     S
O898   Zn900   1.999   .     S
C901   H902    1.084   .     S
C901   H903    1.110   .     S
C901   H904    1.108   .     S
C905   H907    1.108   .     S
C905   H908    1.110   .     S
C905   H906    1.080   .     S
C909   H911    1.110   .     S
C909   H910    1.084   .     S
C909   H912    1.108   .     S
C913   H914    1.080   .     S
C913   H915    1.108   .     S
C913   H916    1.110   .     S
C917   H918    1.105   .     S
C917   H919    1.111   .     S
C917   H920    1.111   .     S
C921   H923    1.109   .     S
C921   H924    1.111   .     S
C921   H922    1.110   .     S
C925   H926    1.109   .     S
C925   H927    1.111   .     S
C925   H928    1.108   .     S
C929   H931    1.109   .     S
C929   H932    1.111   .     S
C929   H930    1.110   .     S
C937   O969    1.301   .     A
C937   C962    1.445   .     S
C937   O972    1.300   .     A
C938   O971    1.301   .     A
C938   O970    1.300   .     A
C938   C961    1.445   .     S
C939   O976    1.293   .     A
C939   C957    1.431   .     S
C939   O973    1.296   .     A
C940   C958    1.434   .     S
C940   O975    1.298   .     A
C940   O974    1.293   .     A
C941   N968    1.377   .     A
C941   C979    1.514   .     S
C942   N967    1.379   .     A
C942   C983    1.508   .     S
C942   C1177   1.431   .     S
C943   N968    1.378   .     A
C943   C987    1.514   .     S
C944   C991    1.509   .     S
C944   N967    1.379   .     A
C944   C1175   1.431   .     S
C945   C962    1.411   .     A
C945   Br1011  1.943   .     S
C945   C1103   1.380   1_455 S
C946   Br1012  1.942   .     S
C946   C961    1.409   .     A
C946   C1026   1.380   .     S
C947   C961    1.411   .     A
C947   Br1013  1.943   .     S
C947   C1023   1.380   .     S
C948   Br1014  1.942   .     S
C948   C962    1.410   .     A
C948   C1102   1.380   1_455 S
C949   C959    1.399   .     A
C949   C953    1.387   .     A
C949   H963    1.083   .     S
C950   C954    1.387   .     A
C950   C960    1.399   .     A
C950   H964    1.083   .     S
C951   C955    1.386   .     A
C951   H965    1.084   .     S
C951   C960    1.398   .     A
C952   H966    1.083   .     S
C952   C956    1.387   .     A
C952   C959    1.400   .     A
C953   C957    1.408   .     A
C953   C995    1.509   .     S
C954   C999    1.510   .     S
C954   C958    1.410   .     A
C955   C1003   1.510   .     S
C955   C958    1.410   .     A
C956   C1007   1.509   .     S
C956   C957    1.407   .     A
C960   C257    1.455   1_556 S
N967   Zn977   2.037   .     S
N968   Zn978   2.037   .     S
O969   Zn977   2.005   .     S
O970   Zn978   2.005   .     S
O971   Zn977   2.005   .     S
O972   Zn978   2.005   .     S
O973   Zn977   2.002   .     S
O974   Zn978   2.002   .     S
O975   Zn977   1.999   .     S
O976   Zn978   1.999   .     S
C979   H980    1.084   .     S
C979   H981    1.110   .     S
C979   H982    1.108   .     S
C983   H985    1.108   .     S
C983   H986    1.110   .     S
C983   H984    1.080   .     S
C987   H989    1.110   .     S
C987   H988    1.084   .     S
C987   H990    1.108   .     S
C991   H992    1.080   .     S
C991   H993    1.108   .     S
C991   H994    1.110   .     S
C995   H996    1.105   .     S
C995   H997    1.111   .     S
C995   H998    1.111   .     S
C999   H1001   1.109   .     S
C999   H1002   1.111   .     S
C999   H1000   1.110   .     S
C1003  H1004   1.109   .     S
C1003  H1005   1.111   .     S
C1003  H1006   1.108   .     S
C1007  H1009   1.109   .     S
C1007  H1010   1.111   .     S
C1007  H1008   1.110   .     S
C1015  O1047   1.301   .     A
C1015  C1040   1.445   .     S
C1015  O1050   1.300   .     A
C1016  O1049   1.301   .     A
C1016  O1048   1.300   .     A
C1016  C1039   1.445   .     S
C1017  O1054   1.293   .     A
C1017  C1035   1.431   .     S
C1017  O1051   1.296   .     A
C1018  C1036   1.434   .     S
C1018  O1053   1.298   .     A
C1018  O1052   1.293   .     A
C1019  N1046   1.377   .     A
C1019  C1057   1.514   .     S
C1020  N1045   1.379   .     A
C1020  C1061   1.508   .     S
C1020  C1255   1.431   .     S
C1021  N1046   1.378   .     A
C1021  C1065   1.514   .     S
C1022  C1069   1.509   .     S
C1022  N1045   1.379   .     A
C1022  C1253   1.431   .     S
C1023  C1040   1.411   .     A
C1023  Br1089  1.943   .     S
C1024  Br1090  1.942   .     S
C1024  C1039   1.409   .     A
C1024  C1104   1.380   .     S
C1025  C1039   1.411   .     A
C1025  Br1091  1.943   .     S
C1025  C1101   1.380   .     S
C1026  Br1092  1.942   .     S
C1026  C1040   1.410   .     A
C1027  C1037   1.399   .     A
C1027  C1031   1.387   .     A
C1027  H1041   1.083   .     S
C1028  C1032   1.387   .     A
C1028  C1038   1.399   .     A
C1028  H1042   1.083   .     S
C1029  C1033   1.386   .     A
C1029  H1043   1.084   .     S
C1029  C1038   1.398   .     A
C1030  H1044   1.083   .     S
C1030  C1034   1.387   .     A
C1030  C1037   1.400   .     A
C1031  C1035   1.408   .     A
C1031  C1073   1.509   .     S
C1032  C1077   1.510   .     S
C1032  C1036   1.410   .     A
C1033  C1081   1.510   .     S
C1033  C1036   1.410   .     A
C1034  C1085   1.509   .     S
C1034  C1035   1.407   .     A
C1038  C335    1.455   1_556 S
N1045  Zn1055  2.037   .     S
N1046  Zn1056  2.037   .     S
O1047  Zn1055  2.005   .     S
O1048  Zn1056  2.005   .     S
O1049  Zn1055  2.005   .     S
O1050  Zn1056  2.005   .     S
O1051  Zn1055  2.002   .     S
O1052  Zn1056  2.002   .     S
O1053  Zn1055  1.999   .     S
O1054  Zn1056  1.999   .     S
C1057  H1058   1.084   .     S
C1057  H1059   1.110   .     S
C1057  H1060   1.108   .     S
C1061  H1063   1.108   .     S
C1061  H1064   1.110   .     S
C1061  H1062   1.080   .     S
C1065  H1067   1.110   .     S
C1065  H1066   1.084   .     S
C1065  H1068   1.108   .     S
C1069  H1070   1.080   .     S
C1069  H1071   1.108   .     S
C1069  H1072   1.110   .     S
C1073  H1074   1.105   .     S
C1073  H1075   1.111   .     S
C1073  H1076   1.111   .     S
C1077  H1079   1.109   .     S
C1077  H1080   1.111   .     S
C1077  H1078   1.110   .     S
C1081  H1082   1.109   .     S
C1081  H1083   1.111   .     S
C1081  H1084   1.108   .     S
C1085  H1087   1.109   .     S
C1085  H1088   1.111   .     S
C1085  H1086   1.110   .     S
C1093  O1125   1.301   .     A
C1093  C1118   1.445   .     S
C1093  O1128   1.300   .     A
C1094  O1127   1.301   .     A
C1094  O1126   1.300   .     A
C1094  C1117   1.445   .     S
C1095  O1132   1.293   .     A
C1095  C1113   1.431   .     S
C1095  O1129   1.296   .     A
C1096  C1114   1.434   .     S
C1096  O1131   1.298   .     A
C1096  O1130   1.293   .     A
C1097  N1124   1.377   .     A
C1097  C1135   1.514   .     S
C1098  N1123   1.379   .     A
C1098  C1139   1.508   .     S
C1098  C1333   1.431   .     S
C1099  N1124   1.378   .     A
C1099  C1143   1.514   .     S
C1100  C1147   1.509   .     S
C1100  N1123   1.379   .     A
C1100  C1331   1.431   .     S
C1101  C1118   1.411   .     A
C1101  Br1167  1.943   .     S
C1102  Br1168  1.942   .     S
C1102  C1117   1.409   .     A
C1102  C948    1.380   1_655 S
C1103  C1117   1.411   .     A
C1103  Br1169  1.943   .     S
C1103  C945    1.380   1_655 S
C1104  Br1170  1.942   .     S
C1104  C1118   1.410   .     A
C1105  C1115   1.399   .     A
C1105  C1109   1.387   .     A
C1105  H1119   1.083   .     S
C1106  C1110   1.387   .     A
C1106  C1116   1.399   .     A
C1106  H1120   1.083   .     S
C1107  C1111   1.386   .     A
C1107  H1121   1.084   .     S
C1107  C1116   1.398   .     A
C1108  H1122   1.083   .     S
C1108  C1112   1.387   .     A
C1108  C1115   1.400   .     A
C1109  C1113   1.408   .     A
C1109  C1151   1.509   .     S
C1110  C1155   1.510   .     S
C1110  C1114   1.410   .     A
C1111  C1159   1.510   .     S
C1111  C1114   1.410   .     A
C1112  C1163   1.509   .     S
C1112  C1113   1.407   .     A
C1116  C413    1.455   1_556 S
N1123  Zn1133  2.037   .     S
N1124  Zn1134  2.037   .     S
O1125  Zn1133  2.005   .     S
O1126  Zn1134  2.005   .     S
O1127  Zn1133  2.005   .     S
O1128  Zn1134  2.005   .     S
O1129  Zn1133  2.002   .     S
O1130  Zn1134  2.002   .     S
O1131  Zn1133  1.999   .     S
O1132  Zn1134  1.999   .     S
C1135  H1136   1.084   .     S
C1135  H1137   1.110   .     S
C1135  H1138   1.108   .     S
C1139  H1141   1.108   .     S
C1139  H1142   1.110   .     S
C1139  H1140   1.080   .     S
C1143  H1145   1.110   .     S
C1143  H1144   1.084   .     S
C1143  H1146   1.108   .     S
C1147  H1148   1.080   .     S
C1147  H1149   1.108   .     S
C1147  H1150   1.110   .     S
C1151  H1152   1.105   .     S
C1151  H1153   1.111   .     S
C1151  H1154   1.111   .     S
C1155  H1157   1.109   .     S
C1155  H1158   1.111   .     S
C1155  H1156   1.110   .     S
C1159  H1160   1.109   .     S
C1159  H1161   1.111   .     S
C1159  H1162   1.108   .     S
C1163  H1165   1.109   .     S
C1163  H1166   1.111   .     S
C1163  H1164   1.110   .     S
C1171  O1203   1.301   .     A
C1171  C1196   1.445   .     S
C1171  O1206   1.300   .     A
C1172  O1205   1.301   .     A
C1172  O1204   1.300   .     A
C1172  C1195   1.445   .     S
C1173  O1210   1.293   .     A
C1173  C1191   1.431   .     S
C1173  O1207   1.296   .     A
C1174  C1192   1.434   .     S
C1174  O1209   1.298   .     A
C1174  O1208   1.293   .     A
C1175  N1202   1.377   .     A
C1175  C1213   1.514   .     S
C1176  N1201   1.379   .     A
C1176  C1217   1.508   .     S
C1176  C709    1.431   1_565 S
C1177  N1202   1.378   .     A
C1177  C1221   1.514   .     S
C1178  C1225   1.509   .     S
C1178  N1201   1.379   .     A
C1178  C707    1.431   1_565 S
C1179  C1196   1.411   .     A
C1179  Br1245  1.943   .     S
C1179  C1337   1.380   1_455 S
C1180  Br1246  1.942   .     S
C1180  C1195   1.409   .     A
C1180  C1260   1.380   .     S
C1181  C1195   1.411   .     A
C1181  Br1247  1.943   .     S
C1181  C1257   1.380   .     S
C1182  Br1248  1.942   .     S
C1182  C1196   1.410   .     A
C1182  C1336   1.380   1_455 S
C1183  C1193   1.399   .     A
C1183  C1187   1.387   .     A
C1183  H1197   1.083   .     S
C1184  C1188   1.387   .     A
C1184  C1194   1.399   .     A
C1184  H1198   1.083   .     S
C1185  C1189   1.386   .     A
C1185  H1199   1.084   .     S
C1185  C1194   1.398   .     A
C1186  H1200   1.083   .     S
C1186  C1190   1.387   .     A
C1186  C1193   1.400   .     A
C1187  C1191   1.408   .     A
C1187  C1229   1.509   .     S
C1188  C1233   1.510   .     S
C1188  C1192   1.410   .     A
C1189  C1237   1.510   .     S
C1189  C1192   1.410   .     A
C1190  C1241   1.509   .     S
C1190  C1191   1.407   .     A
C1194  C491    1.455   1_556 S
N1201  Zn1211  2.037   .     S
N1202  Zn1212  2.037   .     S
O1203  Zn1211  2.005   .     S
O1204  Zn1212  2.005   .     S
O1205  Zn1211  2.005   .     S
O1206  Zn1212  2.005   .     S
O1207  Zn1211  2.002   .     S
O1208  Zn1212  2.002   .     S
O1209  Zn1211  1.999   .     S
O1210  Zn1212  1.999   .     S
C1213  H1214   1.084   .     S
C1213  H1215   1.110   .     S
C1213  H1216   1.108   .     S
C1217  H1219   1.108   .     S
C1217  H1220   1.110   .     S
C1217  H1218   1.080   .     S
C1221  H1223   1.110   .     S
C1221  H1222   1.084   .     S
C1221  H1224   1.108   .     S
C1225  H1226   1.080   .     S
C1225  H1227   1.108   .     S
C1225  H1228   1.110   .     S
C1229  H1230   1.105   .     S
C1229  H1231   1.111   .     S
C1229  H1232   1.111   .     S
C1233  H1235   1.109   .     S
C1233  H1236   1.111   .     S
C1233  H1234   1.110   .     S
C1237  H1238   1.109   .     S
C1237  H1239   1.111   .     S
C1237  H1240   1.108   .     S
C1241  H1243   1.109   .     S
C1241  H1244   1.111   .     S
C1241  H1242   1.110   .     S
C1249  O1281   1.301   .     A
C1249  C1274   1.445   .     S
C1249  O1284   1.300   .     A
C1250  O1283   1.301   .     A
C1250  O1282   1.300   .     A
C1250  C1273   1.445   .     S
C1251  O1288   1.293   .     A
C1251  C1269   1.431   .     S
C1251  O1285   1.296   .     A
C1252  C1270   1.434   .     S
C1252  O1287   1.298   .     A
C1252  O1286   1.293   .     A
C1253  N1280   1.377   .     A
C1253  C1291   1.514   .     S
C1254  N1279   1.379   .     A
C1254  C1295   1.508   .     S
C1254  C787    1.431   1_565 S
C1255  N1280   1.378   .     A
C1255  C1299   1.514   .     S
C1256  C1303   1.509   .     S
C1256  N1279   1.379   .     A
C1256  C785    1.431   1_565 S
C1257  C1274   1.411   .     A
C1257  Br1323  1.943   .     S
C1258  Br1324  1.942   .     S
C1258  C1273   1.409   .     A
C1258  C1338   1.380   .     S
C1259  C1273   1.411   .     A
C1259  Br1325  1.943   .     S
C1259  C1335   1.380   .     S
C1260  Br1326  1.942   .     S
C1260  C1274   1.410   .     A
C1261  C1271   1.399   .     A
C1261  C1265   1.387   .     A
C1261  H1275   1.083   .     S
C1262  C1266   1.387   .     A
C1262  C1272   1.399   .     A
C1262  H1276   1.083   .     S
C1263  C1267   1.386   .     A
C1263  H1277   1.084   .     S
C1263  C1272   1.398   .     A
C1264  H1278   1.083   .     S
C1264  C1268   1.387   .     A
C1264  C1271   1.400   .     A
C1265  C1269   1.408   .     A
C1265  C1307   1.509   .     S
C1266  C1311   1.510   .     S
C1266  C1270   1.410   .     A
C1267  C1315   1.510   .     S
C1267  C1270   1.410   .     A
C1268  C1319   1.509   .     S
C1268  C1269   1.407   .     A
C1272  C569    1.455   1_556 S
N1279  Zn1289  2.037   .     S
N1280  Zn1290  2.037   .     S
O1281  Zn1289  2.005   .     S
O1282  Zn1290  2.005   .     S
O1283  Zn1289  2.005   .     S
O1284  Zn1290  2.005   .     S
O1285  Zn1289  2.002   .     S
O1286  Zn1290  2.002   .     S
O1287  Zn1289  1.999   .     S
O1288  Zn1290  1.999   .     S
C1291  H1292   1.084   .     S
C1291  H1293   1.110   .     S
C1291  H1294   1.108   .     S
C1295  H1297   1.108   .     S
C1295  H1298   1.110   .     S
C1295  H1296   1.080   .     S
C1299  H1301   1.110   .     S
C1299  H1300   1.084   .     S
C1299  H1302   1.108   .     S
C1303  H1304   1.080   .     S
C1303  H1305   1.108   .     S
C1303  H1306   1.110   .     S
C1307  H1308   1.105   .     S
C1307  H1309   1.111   .     S
C1307  H1310   1.111   .     S
C1311  H1313   1.109   .     S
C1311  H1314   1.111   .     S
C1311  H1312   1.110   .     S
C1315  H1316   1.109   .     S
C1315  H1317   1.111   .     S
C1315  H1318   1.108   .     S
C1319  H1321   1.109   .     S
C1319  H1322   1.111   .     S
C1319  H1320   1.110   .     S
C1327  O1359   1.301   .     A
C1327  C1352   1.445   .     S
C1327  O1362   1.300   .     A
C1328  O1361   1.301   .     A
C1328  O1360   1.300   .     A
C1328  C1351   1.445   .     S
C1329  O1366   1.293   .     A
C1329  C1347   1.431   .     S
C1329  O1363   1.296   .     A
C1330  C1348   1.434   .     S
C1330  O1365   1.298   .     A
C1330  O1364   1.293   .     A
C1331  N1358   1.377   .     A
C1331  C1369   1.514   .     S
C1332  N1357   1.379   .     A
C1332  C1373   1.508   .     S
C1332  C865    1.431   1_565 S
C1333  N1358   1.378   .     A
C1333  C1377   1.514   .     S
C1334  C1381   1.509   .     S
C1334  N1357   1.379   .     A
C1334  C863    1.431   1_565 S
C1335  C1352   1.411   .     A
C1335  Br1401  1.943   .     S
C1336  Br1402  1.942   .     S
C1336  C1351   1.409   .     A
C1336  C1182   1.380   1_655 S
C1337  C1351   1.411   .     A
C1337  Br1403  1.943   .     S
C1337  C1179   1.380   1_655 S
C1338  Br1404  1.942   .     S
C1338  C1352   1.410   .     A
C1339  C1349   1.399   .     A
C1339  C1343   1.387   .     A
C1339  H1353   1.083   .     S
C1340  C1344   1.387   .     A
C1340  C1350   1.399   .     A
C1340  H1354   1.083   .     S
C1341  C1345   1.386   .     A
C1341  H1355   1.084   .     S
C1341  C1350   1.398   .     A
C1342  H1356   1.083   .     S
C1342  C1346   1.387   .     A
C1342  C1349   1.400   .     A
C1343  C1347   1.408   .     A
C1343  C1385   1.509   .     S
C1344  C1389   1.510   .     S
C1344  C1348   1.410   .     A
C1345  C1393   1.510   .     S
C1345  C1348   1.410   .     A
C1346  C1397   1.509   .     S
C1346  C1347   1.407   .     A
C1350  C647    1.455   1_556 S
N1357  Zn1367  2.037   .     S
N1358  Zn1368  2.037   .     S
O1359  Zn1367  2.005   .     S
O1360  Zn1368  2.005   .     S
O1361  Zn1367  2.005   .     S
O1362  Zn1368  2.005   .     S
O1363  Zn1367  2.002   .     S
O1364  Zn1368  2.002   .     S
O1365  Zn1367  1.999   .     S
O1366  Zn1368  1.999   .     S
C1369  H1370   1.084   .     S
C1369  H1371   1.110   .     S
C1369  H1372   1.108   .     S
C1373  H1375   1.108   .     S
C1373  H1376   1.110   .     S
C1373  H1374   1.080   .     S
C1377  H1379   1.110   .     S
C1377  H1378   1.084   .     S
C1377  H1380   1.108   .     S
C1381  H1382   1.080   .     S
C1381  H1383   1.108   .     S
C1381  H1384   1.110   .     S
C1385  H1386   1.105   .     S
C1385  H1387   1.111   .     S
C1385  H1388   1.111   .     S
C1389  H1391   1.109   .     S
C1389  H1392   1.111   .     S
C1389  H1390   1.110   .     S
C1393  H1394   1.109   .     S
C1393  H1395   1.111   .     S
C1393  H1396   1.108   .     S
C1397  H1399   1.109   .     S
C1397  H1400   1.111   .     S
C1397  H1398   1.110   .     S
