data_str_m3_o1_o16_pcu_sym.210
_audit_creation_date              2020-01-03
_audit_creation_method            'Materials Studio'
_symmetry_space_group_name_H-M    'P1'
_symmetry_Int_Tables_number       1
_symmetry_cell_setting            triclinic
loop_
_symmetry_equiv_pos_as_xyz
  x,y,z
_cell_length_a                    29.7439
_cell_length_b                    31.8271
_cell_length_c                    26.3616
_cell_angle_alpha                 91.3878
_cell_angle_beta                  69.5629
_cell_angle_gamma                 88.2357
loop_
_atom_site_label
_atom_site_type_symbol
_atom_site_fract_x
_atom_site_fract_y
_atom_site_fract_z
_atom_site_U_iso_or_equiv
_atom_site_adp_type
_atom_site_occupancy
C1     C     0.16625   0.24654   0.24931   0.00000  Uiso   1.00
C2     C     0.15397   0.17988   0.48527   0.00000  Uiso   1.00
C3     C     0.15421   0.15808   0.43796   0.00000  Uiso   1.00
C4     C     0.18672   0.16529   0.00993   0.00000  Uiso   1.00
C5     C     0.22430   0.13525   0.48259   0.00000  Uiso   1.00
C6     C     0.22471   0.11515   0.43460   0.00000  Uiso   1.00
C7     C     0.18795   0.12442   0.41523   0.00000  Uiso   1.00
C8     C     0.17922   0.17565   0.06384   0.00000  Uiso   1.00
C9     C     0.25334   0.13886   0.05816   0.00000  Uiso   1.00
C10    C     0.12296   0.17184   0.41154   0.00000  Uiso   1.00
C11    C     0.19533   0.30962   0.20056   0.00000  Uiso   1.00
C12    C     0.13981   0.16656   0.35225   0.00000  Uiso   1.00
C13    C     0.19545   0.01993   0.20013   0.00000  Uiso   1.00
C14    C     0.16889   0.04282   0.24766   0.00000  Uiso   1.00
C15    C     0.13900   0.02404   0.29337   0.00000  Uiso   1.00
C16    C     0.13530   0.31444   0.29254   0.00000  Uiso   1.00
C17    C     0.16550   0.29079   0.24736   0.00000  Uiso   1.00
C18    C     0.31956   0.13590   0.22163   0.00000  Uiso   1.00
C19    C     0.03481   0.13710   0.21990   0.00000  Uiso   1.00
C20    C     0.01344   0.19554   0.28080   0.00000  Uiso   1.00
C21    C     0.29889   0.19593   0.28063   0.00000  Uiso   1.00
C22    C     0.16761   0.08687   0.24875   0.00000  Uiso   1.00
C23    C     0.19363   0.16604   0.14778   0.00000  Uiso   1.00
C24    C     0.25864   0.12405   0.00595   0.00000  Uiso   1.00
C25    C     0.21094   0.16197   0.08868   0.00000  Uiso   1.00
C26    C     0.08458   0.20078   0.43799   0.00000  Uiso   1.00
C27    C     0.08485   0.22361   0.48431   0.00000  Uiso   1.00
C28    C     0.12204   0.21594   0.00464   0.00000  Uiso   1.00
H29    H     0.11668   0.04294   0.32847   0.00000  Uiso   1.00
H30    H     0.02312   0.21814   0.30603   0.00000  Uiso   1.00
H31    H     0.28924   0.10327   0.48448   0.00000  Uiso   1.00
H32    H     0.14567   0.19078   0.08892   0.00000  Uiso   1.00
H33    H     0.18685   0.10577   0.38078   0.00000  Uiso   1.00
N34    N     0.04760   0.16668   0.25002   0.00000  Uiso   1.00
N35    N     0.28573   0.16665   0.25001   0.00000  Uiso   1.00
O36    O     0.12846   0.22775   0.25001   0.00000  Uiso   1.00
O37    O     0.20490   0.22774   0.25001   0.00000  Uiso   1.00
O38    O     0.10947   0.16666   0.32681   0.00000  Uiso   1.00
O39    O     0.18591   0.16665   0.32681   0.00000  Uiso   1.00
O40    O     0.12843   0.10559   0.25000   0.00000  Uiso   1.00
O41    O     0.20488   0.10558   0.25000   0.00000  Uiso   1.00
O42    O     0.14742   0.16668   0.17319   0.00000  Uiso   1.00
O43    O     0.22387   0.16667   0.17319   0.00000  Uiso   1.00
Zn44   Zn    0.11562   0.16667   0.25000   0.00000  Uiso   1.00
Zn45   Zn    0.21771   0.16666   0.25000   0.00000  Uiso   1.00
N46    N     0.28861   0.12752   0.08093   0.00000  Uiso   1.00
H47    H     0.30539   0.09839   0.06770   0.00000  Uiso   1.00
C48    C     0.32275   0.15962   0.07754   0.00000  Uiso   1.00
H49    H     0.01537   0.16063   0.03553   0.00000  Uiso   1.00
H50    H     0.00946   0.15237   0.10472   0.00000  Uiso   1.00
H51    H     0.30418   0.19084   0.09054   0.00000  Uiso   1.00
Cl52   Cl    0.22648   0.04571   0.13999   0.00000  Uiso   1.00
N53    N     0.09859   0.29562   0.33484   0.00000  Uiso   1.00
H54    H     0.09855   0.30443   0.37274   0.00000  Uiso   1.00
C55    C     0.05170   0.30245   0.33055   0.00000  Uiso   1.00
H56    H     0.04090   0.00316   0.33578   0.00000  Uiso   1.00
H57    H     0.02434   0.28568   0.36237   0.00000  Uiso   1.00
H58    H     0.05216   0.29063   0.29035   0.00000  Uiso   1.00
N59    N     0.30639   0.10200   0.19445   0.00000  Uiso   1.00
H60    H     0.27976   0.10819   0.17908   0.00000  Uiso   1.00
C61    C     0.30698   0.06056   0.21616   0.00000  Uiso   1.00
H62    H     0.27056   0.04806   0.23024   0.00000  Uiso   1.00
H63    H     0.31956   0.06103   0.25124   0.00000  Uiso   1.00
H64    H     0.33094   0.03875   0.18388   0.00000  Uiso   1.00
N65    N     0.07050   0.10695   0.18826   0.00000  Uiso   1.00
H66    H     0.06672   0.07694   0.20251   0.00000  Uiso   1.00
C67    C     0.08360   0.10845   0.13011   0.00000  Uiso   1.00
H68    H     0.05785   0.09112   0.11639   0.00000  Uiso   1.00
H69    H     0.11991   0.09332   0.11031   0.00000  Uiso   1.00
H70    H     0.08458   0.14147   0.11733   0.00000  Uiso   1.00
N71    N     0.26329   0.22427   0.31599   0.00000  Uiso   1.00
H72    H     0.25683   0.21883   0.35629   0.00000  Uiso   1.00
C73    C     0.26966   0.26830   0.30424   0.00000  Uiso   1.00
H74    H     0.29960   0.28009   0.31558   0.00000  Uiso   1.00
H75    H     0.23631   0.28671   0.32806   0.00000  Uiso   1.00
H76    H     0.27707   0.27331   0.26064   0.00000  Uiso   1.00
Cl77   Cl    0.26835   0.07586   0.39922   0.00000  Uiso   1.00
N78    N     0.05008   0.21120   0.41354   0.00000  Uiso   1.00
H79    H     0.03762   0.24202   0.41957   0.00000  Uiso   1.00
C80    C     0.01146   0.18250   0.42425   0.00000  Uiso   1.00
H81    H     0.32310   0.18981   0.39862   0.00000  Uiso   1.00
H82    H     0.32099   0.18635   0.46723   0.00000  Uiso   1.00
H83    H     0.02571   0.14942   0.41499   0.00000  Uiso   1.00
Cl84   Cl    0.13211   0.25670   0.04620   0.00000  Uiso   1.00
N85    N     0.04815   0.25497   0.01023   0.00000  Uiso   1.00
H86    H     0.01384   0.24678   0.01431   0.00000  Uiso   1.00
C87    C     0.05838   0.29784   0.49392   0.00000  Uiso   1.00
H88    H     0.04914   0.31884   0.03066   0.00000  Uiso   1.00
H89    H     0.03627   0.30821   0.46982   0.00000  Uiso   1.00
H90    H     0.09691   0.30118   0.46931   0.00000  Uiso   1.00
N91    N     0.22101   0.28479   0.15290   0.00000  Uiso   1.00
H92    H     0.21459   0.29464   0.11897   0.00000  Uiso   1.00
C93    C     0.27170   0.27806   0.14320   0.00000  Uiso   1.00
H94    H     0.27713   0.25707   0.17365   0.00000  Uiso   1.00
H95    H     0.28899   0.30835   0.14434   0.00000  Uiso   1.00
H96    H     0.28949   0.26278   0.10261   0.00000  Uiso   1.00
C97    C     0.49958   0.24654   0.24931   0.00000  Uiso   1.00
C98    C     0.48730   0.17988   0.48527   0.00000  Uiso   1.00
C99    C     0.48754   0.15808   0.43796   0.00000  Uiso   1.00
C100   C     0.52005   0.16529   0.00993   0.00000  Uiso   1.00
C101   C     0.55764   0.13525   0.48259   0.00000  Uiso   1.00
C102   C     0.55805   0.11515   0.43460   0.00000  Uiso   1.00
C103   C     0.52129   0.12442   0.41523   0.00000  Uiso   1.00
C104   C     0.51256   0.17565   0.06384   0.00000  Uiso   1.00
C105   C     0.58667   0.13886   0.05816   0.00000  Uiso   1.00
C106   C     0.45629   0.17184   0.41154   0.00000  Uiso   1.00
C107   C     0.52866   0.30962   0.20056   0.00000  Uiso   1.00
C108   C     0.47314   0.16656   0.35225   0.00000  Uiso   1.00
C109   C     0.52878   0.01993   0.20013   0.00000  Uiso   1.00
C110   C     0.50223   0.04282   0.24766   0.00000  Uiso   1.00
C111   C     0.47234   0.02404   0.29337   0.00000  Uiso   1.00
C112   C     0.46863   0.31444   0.29254   0.00000  Uiso   1.00
C113   C     0.49883   0.29079   0.24736   0.00000  Uiso   1.00
C114   C     0.65289   0.13590   0.22163   0.00000  Uiso   1.00
C115   C     0.36814   0.13710   0.21990   0.00000  Uiso   1.00
C116   C     0.34678   0.19554   0.28080   0.00000  Uiso   1.00
C117   C     0.63222   0.19593   0.28063   0.00000  Uiso   1.00
C118   C     0.50094   0.08687   0.24875   0.00000  Uiso   1.00
C119   C     0.52696   0.16604   0.14778   0.00000  Uiso   1.00
C120   C     0.59198   0.12405   0.00595   0.00000  Uiso   1.00
C121   C     0.54428   0.16197   0.08868   0.00000  Uiso   1.00
C122   C     0.41791   0.20078   0.43799   0.00000  Uiso   1.00
C123   C     0.41818   0.22361   0.48431   0.00000  Uiso   1.00
C124   C     0.45538   0.21594   0.00464   0.00000  Uiso   1.00
H125   H     0.45001   0.04294   0.32847   0.00000  Uiso   1.00
H126   H     0.35645   0.21814   0.30603   0.00000  Uiso   1.00
H127   H     0.62257   0.10327   0.48448   0.00000  Uiso   1.00
H128   H     0.47900   0.19078   0.08892   0.00000  Uiso   1.00
H129   H     0.52018   0.10577   0.38078   0.00000  Uiso   1.00
N130   N     0.38093   0.16668   0.25002   0.00000  Uiso   1.00
N131   N     0.61906   0.16665   0.25001   0.00000  Uiso   1.00
O132   O     0.46179   0.22775   0.25001   0.00000  Uiso   1.00
O133   O     0.53823   0.22774   0.25001   0.00000  Uiso   1.00
O134   O     0.44280   0.16666   0.32681   0.00000  Uiso   1.00
O135   O     0.51924   0.16665   0.32681   0.00000  Uiso   1.00
O136   O     0.46177   0.10559   0.25000   0.00000  Uiso   1.00
O137   O     0.53821   0.10558   0.25000   0.00000  Uiso   1.00
O138   O     0.48076   0.16668   0.17319   0.00000  Uiso   1.00
O139   O     0.55720   0.16667   0.17319   0.00000  Uiso   1.00
Zn140  Zn    0.44896   0.16667   0.25000   0.00000  Uiso   1.00
Zn141  Zn    0.55104   0.16666   0.25000   0.00000  Uiso   1.00
N142   N     0.62194   0.12752   0.08093   0.00000  Uiso   1.00
H143   H     0.63873   0.09839   0.06770   0.00000  Uiso   1.00
C144   C     0.65608   0.15962   0.07754   0.00000  Uiso   1.00
H145   H     0.34871   0.16063   0.03553   0.00000  Uiso   1.00
H146   H     0.34280   0.15237   0.10472   0.00000  Uiso   1.00
H147   H     0.63752   0.19084   0.09054   0.00000  Uiso   1.00
Cl148  Cl    0.55982   0.04571   0.13999   0.00000  Uiso   1.00
N149   N     0.43193   0.29562   0.33484   0.00000  Uiso   1.00
H150   H     0.43188   0.30443   0.37274   0.00000  Uiso   1.00
C151   C     0.38503   0.30245   0.33055   0.00000  Uiso   1.00
H152   H     0.37424   0.00316   0.33578   0.00000  Uiso   1.00
H153   H     0.35767   0.28568   0.36237   0.00000  Uiso   1.00
H154   H     0.38549   0.29063   0.29035   0.00000  Uiso   1.00
N155   N     0.63973   0.10200   0.19445   0.00000  Uiso   1.00
H156   H     0.61309   0.10819   0.17908   0.00000  Uiso   1.00
C157   C     0.64032   0.06056   0.21616   0.00000  Uiso   1.00
H158   H     0.60389   0.04806   0.23024   0.00000  Uiso   1.00
H159   H     0.65289   0.06103   0.25124   0.00000  Uiso   1.00
H160   H     0.66427   0.03875   0.18388   0.00000  Uiso   1.00
N161   N     0.40383   0.10695   0.18826   0.00000  Uiso   1.00
H162   H     0.40005   0.07694   0.20251   0.00000  Uiso   1.00
C163   C     0.41694   0.10845   0.13011   0.00000  Uiso   1.00
H164   H     0.39119   0.09112   0.11639   0.00000  Uiso   1.00
H165   H     0.45325   0.09332   0.11031   0.00000  Uiso   1.00
H166   H     0.41792   0.14147   0.11733   0.00000  Uiso   1.00
N167   N     0.59662   0.22427   0.31599   0.00000  Uiso   1.00
H168   H     0.59017   0.21883   0.35629   0.00000  Uiso   1.00
C169   C     0.60299   0.26830   0.30424   0.00000  Uiso   1.00
H170   H     0.63293   0.28009   0.31558   0.00000  Uiso   1.00
H171   H     0.56964   0.28671   0.32806   0.00000  Uiso   1.00
H172   H     0.61040   0.27331   0.26064   0.00000  Uiso   1.00
Cl173  Cl    0.60168   0.07586   0.39922   0.00000  Uiso   1.00
N174   N     0.38342   0.21120   0.41354   0.00000  Uiso   1.00
H175   H     0.37096   0.24202   0.41957   0.00000  Uiso   1.00
C176   C     0.34479   0.18250   0.42425   0.00000  Uiso   1.00
H177   H     0.65643   0.18981   0.39862   0.00000  Uiso   1.00
H178   H     0.65432   0.18635   0.46723   0.00000  Uiso   1.00
H179   H     0.35905   0.14942   0.41499   0.00000  Uiso   1.00
Cl180  Cl    0.46544   0.25670   0.04620   0.00000  Uiso   1.00
N181   N     0.38149   0.25497   0.01023   0.00000  Uiso   1.00
H182   H     0.34717   0.24678   0.01431   0.00000  Uiso   1.00
C183   C     0.39172   0.29784   0.49392   0.00000  Uiso   1.00
H184   H     0.38247   0.31884   0.03066   0.00000  Uiso   1.00
H185   H     0.36960   0.30821   0.46982   0.00000  Uiso   1.00
H186   H     0.43025   0.30118   0.46931   0.00000  Uiso   1.00
N187   N     0.55435   0.28479   0.15290   0.00000  Uiso   1.00
H188   H     0.54792   0.29464   0.11897   0.00000  Uiso   1.00
C189   C     0.60504   0.27806   0.14320   0.00000  Uiso   1.00
H190   H     0.61046   0.25707   0.17365   0.00000  Uiso   1.00
H191   H     0.62233   0.30835   0.14434   0.00000  Uiso   1.00
H192   H     0.62283   0.26278   0.10261   0.00000  Uiso   1.00
C193   C     0.83292   0.24654   0.24931   0.00000  Uiso   1.00
C194   C     0.82064   0.17988   0.48527   0.00000  Uiso   1.00
C195   C     0.82087   0.15808   0.43796   0.00000  Uiso   1.00
C196   C     0.85338   0.16529   0.00993   0.00000  Uiso   1.00
C197   C     0.89097   0.13525   0.48259   0.00000  Uiso   1.00
C198   C     0.89138   0.11515   0.43460   0.00000  Uiso   1.00
C199   C     0.85462   0.12442   0.41523   0.00000  Uiso   1.00
C200   C     0.84589   0.17565   0.06384   0.00000  Uiso   1.00
C201   C     0.92000   0.13886   0.05816   0.00000  Uiso   1.00
C202   C     0.78962   0.17184   0.41154   0.00000  Uiso   1.00
C203   C     0.86200   0.30962   0.20056   0.00000  Uiso   1.00
C204   C     0.80648   0.16656   0.35225   0.00000  Uiso   1.00
C205   C     0.86211   0.01993   0.20013   0.00000  Uiso   1.00
C206   C     0.83556   0.04282   0.24766   0.00000  Uiso   1.00
C207   C     0.80567   0.02404   0.29337   0.00000  Uiso   1.00
C208   C     0.80197   0.31444   0.29254   0.00000  Uiso   1.00
C209   C     0.83217   0.29079   0.24736   0.00000  Uiso   1.00
C210   C     0.98623   0.13590   0.22163   0.00000  Uiso   1.00
C211   C     0.70147   0.13710   0.21990   0.00000  Uiso   1.00
C212   C     0.68011   0.19554   0.28080   0.00000  Uiso   1.00
C213   C     0.96556   0.19593   0.28063   0.00000  Uiso   1.00
C214   C     0.83428   0.08687   0.24875   0.00000  Uiso   1.00
C215   C     0.86029   0.16604   0.14778   0.00000  Uiso   1.00
C216   C     0.92531   0.12405   0.00595   0.00000  Uiso   1.00
C217   C     0.87761   0.16197   0.08868   0.00000  Uiso   1.00
C218   C     0.75124   0.20078   0.43799   0.00000  Uiso   1.00
C219   C     0.75151   0.22361   0.48431   0.00000  Uiso   1.00
C220   C     0.78871   0.21594   0.00464   0.00000  Uiso   1.00
H221   H     0.78334   0.04294   0.32847   0.00000  Uiso   1.00
H222   H     0.68979   0.21814   0.30603   0.00000  Uiso   1.00
H223   H     0.95591   0.10327   0.48448   0.00000  Uiso   1.00
H224   H     0.81234   0.19078   0.08892   0.00000  Uiso   1.00
H225   H     0.85351   0.10577   0.38078   0.00000  Uiso   1.00
N226   N     0.71426   0.16668   0.25002   0.00000  Uiso   1.00
N227   N     0.95239   0.16665   0.25001   0.00000  Uiso   1.00
O228   O     0.79512   0.22775   0.25001   0.00000  Uiso   1.00
O229   O     0.87157   0.22774   0.25001   0.00000  Uiso   1.00
O230   O     0.77613   0.16666   0.32681   0.00000  Uiso   1.00
O231   O     0.85258   0.16665   0.32681   0.00000  Uiso   1.00
O232   O     0.79510   0.10559   0.25000   0.00000  Uiso   1.00
O233   O     0.87154   0.10558   0.25000   0.00000  Uiso   1.00
O234   O     0.81409   0.16668   0.17319   0.00000  Uiso   1.00
O235   O     0.89053   0.16667   0.17319   0.00000  Uiso   1.00
Zn236  Zn    0.78229   0.16667   0.25000   0.00000  Uiso   1.00
Zn237  Zn    0.88438   0.16666   0.25000   0.00000  Uiso   1.00
N238   N     0.95527   0.12752   0.08093   0.00000  Uiso   1.00
H239   H     0.97206   0.09839   0.06770   0.00000  Uiso   1.00
C240   C     0.98941   0.15962   0.07754   0.00000  Uiso   1.00
H241   H     0.68204   0.16063   0.03553   0.00000  Uiso   1.00
H242   H     0.67613   0.15237   0.10472   0.00000  Uiso   1.00
H243   H     0.97085   0.19084   0.09054   0.00000  Uiso   1.00
Cl244  Cl    0.89315   0.04571   0.13999   0.00000  Uiso   1.00
N245   N     0.76526   0.29562   0.33484   0.00000  Uiso   1.00
H246   H     0.76522   0.30443   0.37274   0.00000  Uiso   1.00
C247   C     0.71836   0.30245   0.33055   0.00000  Uiso   1.00
H248   H     0.70757   0.00316   0.33578   0.00000  Uiso   1.00
H249   H     0.69101   0.28568   0.36237   0.00000  Uiso   1.00
H250   H     0.71882   0.29063   0.29035   0.00000  Uiso   1.00
N251   N     0.97306   0.10200   0.19445   0.00000  Uiso   1.00
H252   H     0.94642   0.10819   0.17908   0.00000  Uiso   1.00
C253   C     0.97365   0.06056   0.21616   0.00000  Uiso   1.00
H254   H     0.93722   0.04806   0.23024   0.00000  Uiso   1.00
H255   H     0.98623   0.06103   0.25124   0.00000  Uiso   1.00
H256   H     0.99761   0.03875   0.18388   0.00000  Uiso   1.00
N257   N     0.73717   0.10695   0.18826   0.00000  Uiso   1.00
H258   H     0.73338   0.07694   0.20251   0.00000  Uiso   1.00
C259   C     0.75027   0.10845   0.13011   0.00000  Uiso   1.00
H260   H     0.72452   0.09112   0.11639   0.00000  Uiso   1.00
H261   H     0.78658   0.09332   0.11031   0.00000  Uiso   1.00
H262   H     0.75125   0.14147   0.11733   0.00000  Uiso   1.00
N263   N     0.92995   0.22427   0.31599   0.00000  Uiso   1.00
H264   H     0.92350   0.21883   0.35629   0.00000  Uiso   1.00
C265   C     0.93633   0.26830   0.30424   0.00000  Uiso   1.00
H266   H     0.96627   0.28009   0.31558   0.00000  Uiso   1.00
H267   H     0.90297   0.28671   0.32806   0.00000  Uiso   1.00
H268   H     0.94373   0.27331   0.26064   0.00000  Uiso   1.00
Cl269  Cl    0.93501   0.07586   0.39922   0.00000  Uiso   1.00
N270   N     0.71675   0.21120   0.41354   0.00000  Uiso   1.00
H271   H     0.70429   0.24202   0.41957   0.00000  Uiso   1.00
C272   C     0.67812   0.18250   0.42425   0.00000  Uiso   1.00
H273   H     0.98977   0.18981   0.39862   0.00000  Uiso   1.00
H274   H     0.98765   0.18635   0.46723   0.00000  Uiso   1.00
H275   H     0.69238   0.14942   0.41499   0.00000  Uiso   1.00
Cl276  Cl    0.79878   0.25670   0.04620   0.00000  Uiso   1.00
N277   N     0.71482   0.25497   0.01023   0.00000  Uiso   1.00
H278   H     0.68050   0.24678   0.01431   0.00000  Uiso   1.00
C279   C     0.72505   0.29784   0.49392   0.00000  Uiso   1.00
H280   H     0.71581   0.31884   0.03066   0.00000  Uiso   1.00
H281   H     0.70294   0.30821   0.46982   0.00000  Uiso   1.00
H282   H     0.76358   0.30118   0.46931   0.00000  Uiso   1.00
N283   N     0.88768   0.28479   0.15290   0.00000  Uiso   1.00
H284   H     0.88126   0.29464   0.11897   0.00000  Uiso   1.00
C285   C     0.93837   0.27806   0.14320   0.00000  Uiso   1.00
H286   H     0.94380   0.25707   0.17365   0.00000  Uiso   1.00
H287   H     0.95566   0.30835   0.14434   0.00000  Uiso   1.00
H288   H     0.95616   0.26278   0.10261   0.00000  Uiso   1.00
C289   C     0.16625   0.57987   0.24931   0.00000  Uiso   1.00
C290   C     0.15397   0.51322   0.48527   0.00000  Uiso   1.00
C291   C     0.15421   0.49141   0.43796   0.00000  Uiso   1.00
C292   C     0.18672   0.49862   0.00993   0.00000  Uiso   1.00
C293   C     0.22430   0.46858   0.48259   0.00000  Uiso   1.00
C294   C     0.22471   0.44848   0.43460   0.00000  Uiso   1.00
C295   C     0.18795   0.45776   0.41523   0.00000  Uiso   1.00
C296   C     0.17922   0.50899   0.06384   0.00000  Uiso   1.00
C297   C     0.25334   0.47219   0.05816   0.00000  Uiso   1.00
C298   C     0.12296   0.50517   0.41154   0.00000  Uiso   1.00
C299   C     0.19533   0.64296   0.20056   0.00000  Uiso   1.00
C300   C     0.13981   0.49989   0.35225   0.00000  Uiso   1.00
C301   C     0.19545   0.35327   0.20013   0.00000  Uiso   1.00
C302   C     0.16889   0.37615   0.24766   0.00000  Uiso   1.00
C303   C     0.13900   0.35737   0.29337   0.00000  Uiso   1.00
C304   C     0.13530   0.64777   0.29254   0.00000  Uiso   1.00
C305   C     0.16550   0.62413   0.24736   0.00000  Uiso   1.00
C306   C     0.31956   0.46923   0.22163   0.00000  Uiso   1.00
C307   C     0.03481   0.47043   0.21990   0.00000  Uiso   1.00
C308   C     0.01344   0.52887   0.28080   0.00000  Uiso   1.00
C309   C     0.29889   0.52927   0.28063   0.00000  Uiso   1.00
C310   C     0.16761   0.42020   0.24875   0.00000  Uiso   1.00
C311   C     0.19363   0.49938   0.14778   0.00000  Uiso   1.00
C312   C     0.25864   0.45739   0.00595   0.00000  Uiso   1.00
C313   C     0.21094   0.49531   0.08868   0.00000  Uiso   1.00
C314   C     0.08458   0.53411   0.43799   0.00000  Uiso   1.00
C315   C     0.08485   0.55694   0.48431   0.00000  Uiso   1.00
C316   C     0.12204   0.54927   0.00464   0.00000  Uiso   1.00
H317   H     0.11668   0.37627   0.32847   0.00000  Uiso   1.00
H318   H     0.02312   0.55148   0.30603   0.00000  Uiso   1.00
H319   H     0.28924   0.43660   0.48448   0.00000  Uiso   1.00
H320   H     0.14567   0.52412   0.08892   0.00000  Uiso   1.00
H321   H     0.18685   0.43910   0.38078   0.00000  Uiso   1.00
N322   N     0.04760   0.50001   0.25002   0.00000  Uiso   1.00
N323   N     0.28573   0.49998   0.25001   0.00000  Uiso   1.00
O324   O     0.12846   0.56108   0.25001   0.00000  Uiso   1.00
O325   O     0.20490   0.56107   0.25001   0.00000  Uiso   1.00
O326   O     0.10947   0.50000   0.32681   0.00000  Uiso   1.00
O327   O     0.18591   0.49999   0.32681   0.00000  Uiso   1.00
O328   O     0.12843   0.43893   0.25000   0.00000  Uiso   1.00
O329   O     0.20488   0.43892   0.25000   0.00000  Uiso   1.00
O330   O     0.14742   0.50001   0.17319   0.00000  Uiso   1.00
O331   O     0.22387   0.50000   0.17319   0.00000  Uiso   1.00
Zn332  Zn    0.11562   0.50001   0.25000   0.00000  Uiso   1.00
Zn333  Zn    0.21771   0.49999   0.25000   0.00000  Uiso   1.00
N334   N     0.28861   0.46085   0.08093   0.00000  Uiso   1.00
H335   H     0.30539   0.43172   0.06770   0.00000  Uiso   1.00
C336   C     0.32275   0.49295   0.07754   0.00000  Uiso   1.00
H337   H     0.01537   0.49396   0.03553   0.00000  Uiso   1.00
H338   H     0.00946   0.48570   0.10472   0.00000  Uiso   1.00
H339   H     0.30418   0.52417   0.09054   0.00000  Uiso   1.00
Cl340  Cl    0.22648   0.37904   0.13999   0.00000  Uiso   1.00
N341   N     0.09859   0.62895   0.33484   0.00000  Uiso   1.00
H342   H     0.09855   0.63777   0.37274   0.00000  Uiso   1.00
C343   C     0.05170   0.63579   0.33055   0.00000  Uiso   1.00
H344   H     0.04090   0.33649   0.33578   0.00000  Uiso   1.00
H345   H     0.02434   0.61901   0.36237   0.00000  Uiso   1.00
H346   H     0.05216   0.62397   0.29035   0.00000  Uiso   1.00
N347   N     0.30639   0.43533   0.19445   0.00000  Uiso   1.00
H348   H     0.27976   0.44152   0.17908   0.00000  Uiso   1.00
C349   C     0.30698   0.39389   0.21616   0.00000  Uiso   1.00
H350   H     0.27056   0.38139   0.23024   0.00000  Uiso   1.00
H351   H     0.31956   0.39436   0.25124   0.00000  Uiso   1.00
H352   H     0.33094   0.37209   0.18388   0.00000  Uiso   1.00
N353   N     0.07050   0.44028   0.18826   0.00000  Uiso   1.00
H354   H     0.06672   0.41027   0.20251   0.00000  Uiso   1.00
C355   C     0.08360   0.44178   0.13011   0.00000  Uiso   1.00
H356   H     0.05785   0.42445   0.11639   0.00000  Uiso   1.00
H357   H     0.11991   0.42665   0.11031   0.00000  Uiso   1.00
H358   H     0.08458   0.47480   0.11733   0.00000  Uiso   1.00
N359   N     0.26329   0.55761   0.31599   0.00000  Uiso   1.00
H360   H     0.25683   0.55217   0.35629   0.00000  Uiso   1.00
C361   C     0.26966   0.60164   0.30424   0.00000  Uiso   1.00
H362   H     0.29960   0.61343   0.31558   0.00000  Uiso   1.00
H363   H     0.23631   0.62004   0.32806   0.00000  Uiso   1.00
H364   H     0.27707   0.60664   0.26064   0.00000  Uiso   1.00
Cl365  Cl    0.26835   0.40920   0.39922   0.00000  Uiso   1.00
N366   N     0.05008   0.54453   0.41354   0.00000  Uiso   1.00
H367   H     0.03762   0.57535   0.41957   0.00000  Uiso   1.00
C368   C     0.01146   0.51583   0.42425   0.00000  Uiso   1.00
H369   H     0.32310   0.52315   0.39862   0.00000  Uiso   1.00
H370   H     0.32099   0.51968   0.46723   0.00000  Uiso   1.00
H371   H     0.02571   0.48276   0.41499   0.00000  Uiso   1.00
Cl372  Cl    0.13211   0.59003   0.04620   0.00000  Uiso   1.00
N373   N     0.04815   0.58830   0.01023   0.00000  Uiso   1.00
H374   H     0.01384   0.58011   0.01431   0.00000  Uiso   1.00
C375   C     0.05838   0.63118   0.49392   0.00000  Uiso   1.00
H376   H     0.04914   0.65217   0.03066   0.00000  Uiso   1.00
H377   H     0.03627   0.64155   0.46982   0.00000  Uiso   1.00
H378   H     0.09691   0.63452   0.46931   0.00000  Uiso   1.00
N379   N     0.22101   0.61812   0.15290   0.00000  Uiso   1.00
H380   H     0.21459   0.62797   0.11897   0.00000  Uiso   1.00
C381   C     0.27170   0.61139   0.14320   0.00000  Uiso   1.00
H382   H     0.27713   0.59040   0.17365   0.00000  Uiso   1.00
H383   H     0.28899   0.64168   0.14434   0.00000  Uiso   1.00
H384   H     0.28949   0.59612   0.10261   0.00000  Uiso   1.00
C385   C     0.49958   0.57987   0.24931   0.00000  Uiso   1.00
C386   C     0.48730   0.51322   0.48527   0.00000  Uiso   1.00
C387   C     0.48754   0.49141   0.43796   0.00000  Uiso   1.00
C388   C     0.52005   0.49862   0.00993   0.00000  Uiso   1.00
C389   C     0.55764   0.46858   0.48259   0.00000  Uiso   1.00
C390   C     0.55805   0.44848   0.43460   0.00000  Uiso   1.00
C391   C     0.52129   0.45776   0.41523   0.00000  Uiso   1.00
C392   C     0.51256   0.50899   0.06384   0.00000  Uiso   1.00
C393   C     0.58667   0.47219   0.05816   0.00000  Uiso   1.00
C394   C     0.45629   0.50517   0.41154   0.00000  Uiso   1.00
C395   C     0.52866   0.64296   0.20056   0.00000  Uiso   1.00
C396   C     0.47314   0.49989   0.35225   0.00000  Uiso   1.00
C397   C     0.52878   0.35327   0.20013   0.00000  Uiso   1.00
C398   C     0.50223   0.37615   0.24766   0.00000  Uiso   1.00
C399   C     0.47234   0.35737   0.29337   0.00000  Uiso   1.00
C400   C     0.46863   0.64777   0.29254   0.00000  Uiso   1.00
C401   C     0.49883   0.62413   0.24736   0.00000  Uiso   1.00
C402   C     0.65289   0.46923   0.22163   0.00000  Uiso   1.00
C403   C     0.36814   0.47043   0.21990   0.00000  Uiso   1.00
C404   C     0.34678   0.52887   0.28080   0.00000  Uiso   1.00
C405   C     0.63222   0.52927   0.28063   0.00000  Uiso   1.00
C406   C     0.50094   0.42020   0.24875   0.00000  Uiso   1.00
C407   C     0.52696   0.49938   0.14778   0.00000  Uiso   1.00
C408   C     0.59198   0.45739   0.00595   0.00000  Uiso   1.00
C409   C     0.54428   0.49531   0.08868   0.00000  Uiso   1.00
C410   C     0.41791   0.53411   0.43799   0.00000  Uiso   1.00
C411   C     0.41818   0.55694   0.48431   0.00000  Uiso   1.00
C412   C     0.45538   0.54927   0.00464   0.00000  Uiso   1.00
H413   H     0.45001   0.37627   0.32847   0.00000  Uiso   1.00
H414   H     0.35645   0.55148   0.30603   0.00000  Uiso   1.00
H415   H     0.62257   0.43660   0.48448   0.00000  Uiso   1.00
H416   H     0.47900   0.52412   0.08892   0.00000  Uiso   1.00
H417   H     0.52018   0.43910   0.38078   0.00000  Uiso   1.00
N418   N     0.38093   0.50001   0.25002   0.00000  Uiso   1.00
N419   N     0.61906   0.49998   0.25001   0.00000  Uiso   1.00
O420   O     0.46179   0.56108   0.25001   0.00000  Uiso   1.00
O421   O     0.53823   0.56107   0.25001   0.00000  Uiso   1.00
O422   O     0.44280   0.50000   0.32681   0.00000  Uiso   1.00
O423   O     0.51924   0.49999   0.32681   0.00000  Uiso   1.00
O424   O     0.46177   0.43893   0.25000   0.00000  Uiso   1.00
O425   O     0.53821   0.43892   0.25000   0.00000  Uiso   1.00
O426   O     0.48076   0.50001   0.17319   0.00000  Uiso   1.00
O427   O     0.55720   0.50000   0.17319   0.00000  Uiso   1.00
Zn428  Zn    0.44896   0.50001   0.25000   0.00000  Uiso   1.00
Zn429  Zn    0.55104   0.49999   0.25000   0.00000  Uiso   1.00
N430   N     0.62194   0.46085   0.08093   0.00000  Uiso   1.00
H431   H     0.63873   0.43172   0.06770   0.00000  Uiso   1.00
C432   C     0.65608   0.49295   0.07754   0.00000  Uiso   1.00
H433   H     0.34871   0.49396   0.03553   0.00000  Uiso   1.00
H434   H     0.34280   0.48570   0.10472   0.00000  Uiso   1.00
H435   H     0.63752   0.52417   0.09054   0.00000  Uiso   1.00
Cl436  Cl    0.55982   0.37904   0.13999   0.00000  Uiso   1.00
N437   N     0.43193   0.62895   0.33484   0.00000  Uiso   1.00
H438   H     0.43188   0.63777   0.37274   0.00000  Uiso   1.00
C439   C     0.38503   0.63579   0.33055   0.00000  Uiso   1.00
H440   H     0.37424   0.33649   0.33578   0.00000  Uiso   1.00
H441   H     0.35767   0.61901   0.36237   0.00000  Uiso   1.00
H442   H     0.38549   0.62397   0.29035   0.00000  Uiso   1.00
N443   N     0.63973   0.43533   0.19445   0.00000  Uiso   1.00
H444   H     0.61309   0.44152   0.17908   0.00000  Uiso   1.00
C445   C     0.64032   0.39389   0.21616   0.00000  Uiso   1.00
H446   H     0.60389   0.38139   0.23024   0.00000  Uiso   1.00
H447   H     0.65289   0.39436   0.25124   0.00000  Uiso   1.00
H448   H     0.66427   0.37209   0.18388   0.00000  Uiso   1.00
N449   N     0.40383   0.44028   0.18826   0.00000  Uiso   1.00
H450   H     0.40005   0.41027   0.20251   0.00000  Uiso   1.00
C451   C     0.41694   0.44178   0.13011   0.00000  Uiso   1.00
H452   H     0.39119   0.42445   0.11639   0.00000  Uiso   1.00
H453   H     0.45325   0.42665   0.11031   0.00000  Uiso   1.00
H454   H     0.41792   0.47480   0.11733   0.00000  Uiso   1.00
N455   N     0.59662   0.55761   0.31599   0.00000  Uiso   1.00
H456   H     0.59017   0.55217   0.35629   0.00000  Uiso   1.00
C457   C     0.60299   0.60164   0.30424   0.00000  Uiso   1.00
H458   H     0.63293   0.61343   0.31558   0.00000  Uiso   1.00
H459   H     0.56964   0.62004   0.32806   0.00000  Uiso   1.00
H460   H     0.61040   0.60664   0.26064   0.00000  Uiso   1.00
Cl461  Cl    0.60168   0.40920   0.39922   0.00000  Uiso   1.00
N462   N     0.38342   0.54453   0.41354   0.00000  Uiso   1.00
H463   H     0.37096   0.57535   0.41957   0.00000  Uiso   1.00
C464   C     0.34479   0.51583   0.42425   0.00000  Uiso   1.00
H465   H     0.65643   0.52315   0.39862   0.00000  Uiso   1.00
H466   H     0.65432   0.51968   0.46723   0.00000  Uiso   1.00
H467   H     0.35905   0.48276   0.41499   0.00000  Uiso   1.00
Cl468  Cl    0.46544   0.59003   0.04620   0.00000  Uiso   1.00
N469   N     0.38149   0.58830   0.01023   0.00000  Uiso   1.00
H470   H     0.34717   0.58011   0.01431   0.00000  Uiso   1.00
C471   C     0.39172   0.63118   0.49392   0.00000  Uiso   1.00
H472   H     0.38247   0.65217   0.03066   0.00000  Uiso   1.00
H473   H     0.36960   0.64155   0.46982   0.00000  Uiso   1.00
H474   H     0.43025   0.63452   0.46931   0.00000  Uiso   1.00
N475   N     0.55435   0.61812   0.15290   0.00000  Uiso   1.00
H476   H     0.54792   0.62797   0.11897   0.00000  Uiso   1.00
C477   C     0.60504   0.61139   0.14320   0.00000  Uiso   1.00
H478   H     0.61046   0.59040   0.17365   0.00000  Uiso   1.00
H479   H     0.62233   0.64168   0.14434   0.00000  Uiso   1.00
H480   H     0.62283   0.59612   0.10261   0.00000  Uiso   1.00
C481   C     0.83292   0.57987   0.24931   0.00000  Uiso   1.00
C482   C     0.82064   0.51322   0.48527   0.00000  Uiso   1.00
C483   C     0.82087   0.49141   0.43796   0.00000  Uiso   1.00
C484   C     0.85338   0.49862   0.00993   0.00000  Uiso   1.00
C485   C     0.89097   0.46858   0.48259   0.00000  Uiso   1.00
C486   C     0.89138   0.44848   0.43460   0.00000  Uiso   1.00
C487   C     0.85462   0.45776   0.41523   0.00000  Uiso   1.00
C488   C     0.84589   0.50899   0.06384   0.00000  Uiso   1.00
C489   C     0.92000   0.47219   0.05816   0.00000  Uiso   1.00
C490   C     0.78962   0.50517   0.41154   0.00000  Uiso   1.00
C491   C     0.86200   0.64296   0.20056   0.00000  Uiso   1.00
C492   C     0.80648   0.49989   0.35225   0.00000  Uiso   1.00
C493   C     0.86211   0.35327   0.20013   0.00000  Uiso   1.00
C494   C     0.83556   0.37615   0.24766   0.00000  Uiso   1.00
C495   C     0.80567   0.35737   0.29337   0.00000  Uiso   1.00
C496   C     0.80197   0.64777   0.29254   0.00000  Uiso   1.00
C497   C     0.83217   0.62413   0.24736   0.00000  Uiso   1.00
C498   C     0.98623   0.46923   0.22163   0.00000  Uiso   1.00
C499   C     0.70147   0.47043   0.21990   0.00000  Uiso   1.00
C500   C     0.68011   0.52887   0.28080   0.00000  Uiso   1.00
C501   C     0.96556   0.52927   0.28063   0.00000  Uiso   1.00
C502   C     0.83428   0.42020   0.24875   0.00000  Uiso   1.00
C503   C     0.86029   0.49938   0.14778   0.00000  Uiso   1.00
C504   C     0.92531   0.45739   0.00595   0.00000  Uiso   1.00
C505   C     0.87761   0.49531   0.08868   0.00000  Uiso   1.00
C506   C     0.75124   0.53411   0.43799   0.00000  Uiso   1.00
C507   C     0.75151   0.55694   0.48431   0.00000  Uiso   1.00
C508   C     0.78871   0.54927   0.00464   0.00000  Uiso   1.00
H509   H     0.78334   0.37627   0.32847   0.00000  Uiso   1.00
H510   H     0.68979   0.55148   0.30603   0.00000  Uiso   1.00
H511   H     0.95591   0.43660   0.48448   0.00000  Uiso   1.00
H512   H     0.81234   0.52412   0.08892   0.00000  Uiso   1.00
H513   H     0.85351   0.43910   0.38078   0.00000  Uiso   1.00
N514   N     0.71426   0.50001   0.25002   0.00000  Uiso   1.00
N515   N     0.95239   0.49998   0.25001   0.00000  Uiso   1.00
O516   O     0.79512   0.56108   0.25001   0.00000  Uiso   1.00
O517   O     0.87157   0.56107   0.25001   0.00000  Uiso   1.00
O518   O     0.77613   0.50000   0.32681   0.00000  Uiso   1.00
O519   O     0.85258   0.49999   0.32681   0.00000  Uiso   1.00
O520   O     0.79510   0.43893   0.25000   0.00000  Uiso   1.00
O521   O     0.87154   0.43892   0.25000   0.00000  Uiso   1.00
O522   O     0.81409   0.50001   0.17319   0.00000  Uiso   1.00
O523   O     0.89053   0.50000   0.17319   0.00000  Uiso   1.00
Zn524  Zn    0.78229   0.50001   0.25000   0.00000  Uiso   1.00
Zn525  Zn    0.88438   0.49999   0.25000   0.00000  Uiso   1.00
N526   N     0.95527   0.46085   0.08093   0.00000  Uiso   1.00
H527   H     0.97206   0.43172   0.06770   0.00000  Uiso   1.00
C528   C     0.98941   0.49295   0.07754   0.00000  Uiso   1.00
H529   H     0.68204   0.49396   0.03553   0.00000  Uiso   1.00
H530   H     0.67613   0.48570   0.10472   0.00000  Uiso   1.00
H531   H     0.97085   0.52417   0.09054   0.00000  Uiso   1.00
Cl532  Cl    0.89315   0.37904   0.13999   0.00000  Uiso   1.00
N533   N     0.76526   0.62895   0.33484   0.00000  Uiso   1.00
H534   H     0.76522   0.63777   0.37274   0.00000  Uiso   1.00
C535   C     0.71836   0.63579   0.33055   0.00000  Uiso   1.00
H536   H     0.70757   0.33649   0.33578   0.00000  Uiso   1.00
H537   H     0.69101   0.61901   0.36237   0.00000  Uiso   1.00
H538   H     0.71882   0.62397   0.29035   0.00000  Uiso   1.00
N539   N     0.97306   0.43533   0.19445   0.00000  Uiso   1.00
H540   H     0.94642   0.44152   0.17908   0.00000  Uiso   1.00
C541   C     0.97365   0.39389   0.21616   0.00000  Uiso   1.00
H542   H     0.93722   0.38139   0.23024   0.00000  Uiso   1.00
H543   H     0.98623   0.39436   0.25124   0.00000  Uiso   1.00
H544   H     0.99761   0.37209   0.18388   0.00000  Uiso   1.00
N545   N     0.73717   0.44028   0.18826   0.00000  Uiso   1.00
H546   H     0.73338   0.41027   0.20251   0.00000  Uiso   1.00
C547   C     0.75027   0.44178   0.13011   0.00000  Uiso   1.00
H548   H     0.72452   0.42445   0.11639   0.00000  Uiso   1.00
H549   H     0.78658   0.42665   0.11031   0.00000  Uiso   1.00
H550   H     0.75125   0.47480   0.11733   0.00000  Uiso   1.00
N551   N     0.92995   0.55761   0.31599   0.00000  Uiso   1.00
H552   H     0.92350   0.55217   0.35629   0.00000  Uiso   1.00
C553   C     0.93633   0.60164   0.30424   0.00000  Uiso   1.00
H554   H     0.96627   0.61343   0.31558   0.00000  Uiso   1.00
H555   H     0.90297   0.62004   0.32806   0.00000  Uiso   1.00
H556   H     0.94373   0.60664   0.26064   0.00000  Uiso   1.00
Cl557  Cl    0.93501   0.40920   0.39922   0.00000  Uiso   1.00
N558   N     0.71675   0.54453   0.41354   0.00000  Uiso   1.00
H559   H     0.70429   0.57535   0.41957   0.00000  Uiso   1.00
C560   C     0.67812   0.51583   0.42425   0.00000  Uiso   1.00
H561   H     0.98977   0.52315   0.39862   0.00000  Uiso   1.00
H562   H     0.98765   0.51968   0.46723   0.00000  Uiso   1.00
H563   H     0.69238   0.48276   0.41499   0.00000  Uiso   1.00
Cl564  Cl    0.79878   0.59003   0.04620   0.00000  Uiso   1.00
N565   N     0.71482   0.58830   0.01023   0.00000  Uiso   1.00
H566   H     0.68050   0.58011   0.01431   0.00000  Uiso   1.00
C567   C     0.72505   0.63118   0.49392   0.00000  Uiso   1.00
H568   H     0.71581   0.65217   0.03066   0.00000  Uiso   1.00
H569   H     0.70294   0.64155   0.46982   0.00000  Uiso   1.00
H570   H     0.76358   0.63452   0.46931   0.00000  Uiso   1.00
N571   N     0.88768   0.61812   0.15290   0.00000  Uiso   1.00
H572   H     0.88126   0.62797   0.11897   0.00000  Uiso   1.00
C573   C     0.93837   0.61139   0.14320   0.00000  Uiso   1.00
H574   H     0.94380   0.59040   0.17365   0.00000  Uiso   1.00
H575   H     0.95566   0.64168   0.14434   0.00000  Uiso   1.00
H576   H     0.95616   0.59612   0.10261   0.00000  Uiso   1.00
C577   C     0.16625   0.91320   0.24931   0.00000  Uiso   1.00
C578   C     0.15397   0.84655   0.48527   0.00000  Uiso   1.00
C579   C     0.15421   0.82475   0.43796   0.00000  Uiso   1.00
C580   C     0.18672   0.83195   0.00993   0.00000  Uiso   1.00
C581   C     0.22430   0.80191   0.48259   0.00000  Uiso   1.00
C582   C     0.22471   0.78182   0.43460   0.00000  Uiso   1.00
C583   C     0.18795   0.79109   0.41523   0.00000  Uiso   1.00
C584   C     0.17922   0.84232   0.06384   0.00000  Uiso   1.00
C585   C     0.25334   0.80553   0.05816   0.00000  Uiso   1.00
C586   C     0.12296   0.83851   0.41154   0.00000  Uiso   1.00
C587   C     0.19533   0.97629   0.20056   0.00000  Uiso   1.00
C588   C     0.13981   0.83322   0.35225   0.00000  Uiso   1.00
C589   C     0.19545   0.68660   0.20013   0.00000  Uiso   1.00
C590   C     0.16889   0.70948   0.24766   0.00000  Uiso   1.00
C591   C     0.13900   0.69070   0.29337   0.00000  Uiso   1.00
C592   C     0.13530   0.98111   0.29254   0.00000  Uiso   1.00
C593   C     0.16550   0.95746   0.24736   0.00000  Uiso   1.00
C594   C     0.31956   0.80257   0.22163   0.00000  Uiso   1.00
C595   C     0.03481   0.80377   0.21990   0.00000  Uiso   1.00
C596   C     0.01344   0.86221   0.28080   0.00000  Uiso   1.00
C597   C     0.29889   0.86260   0.28063   0.00000  Uiso   1.00
C598   C     0.16761   0.75354   0.24875   0.00000  Uiso   1.00
C599   C     0.19363   0.83271   0.14778   0.00000  Uiso   1.00
C600   C     0.25864   0.79072   0.00595   0.00000  Uiso   1.00
C601   C     0.21094   0.82864   0.08868   0.00000  Uiso   1.00
C602   C     0.08458   0.86745   0.43799   0.00000  Uiso   1.00
C603   C     0.08485   0.89027   0.48431   0.00000  Uiso   1.00
C604   C     0.12204   0.88260   0.00464   0.00000  Uiso   1.00
H605   H     0.11668   0.70961   0.32847   0.00000  Uiso   1.00
H606   H     0.02312   0.88481   0.30603   0.00000  Uiso   1.00
H607   H     0.28924   0.76993   0.48448   0.00000  Uiso   1.00
H608   H     0.14567   0.85745   0.08892   0.00000  Uiso   1.00
H609   H     0.18685   0.77244   0.38078   0.00000  Uiso   1.00
N610   N     0.04760   0.83334   0.25002   0.00000  Uiso   1.00
N611   N     0.28573   0.83331   0.25001   0.00000  Uiso   1.00
O612   O     0.12846   0.89442   0.25001   0.00000  Uiso   1.00
O613   O     0.20490   0.89441   0.25001   0.00000  Uiso   1.00
O614   O     0.10947   0.83333   0.32681   0.00000  Uiso   1.00
O615   O     0.18591   0.83332   0.32681   0.00000  Uiso   1.00
O616   O     0.12843   0.77226   0.25000   0.00000  Uiso   1.00
O617   O     0.20488   0.77225   0.25000   0.00000  Uiso   1.00
O618   O     0.14742   0.83335   0.17319   0.00000  Uiso   1.00
O619   O     0.22387   0.83334   0.17319   0.00000  Uiso   1.00
Zn620  Zn    0.11562   0.83334   0.25000   0.00000  Uiso   1.00
Zn621  Zn    0.21771   0.83333   0.25000   0.00000  Uiso   1.00
N622   N     0.28861   0.79418   0.08093   0.00000  Uiso   1.00
H623   H     0.30539   0.76505   0.06770   0.00000  Uiso   1.00
C624   C     0.32275   0.82629   0.07754   0.00000  Uiso   1.00
H625   H     0.01537   0.82729   0.03553   0.00000  Uiso   1.00
H626   H     0.00946   0.81903   0.10472   0.00000  Uiso   1.00
H627   H     0.30418   0.85751   0.09054   0.00000  Uiso   1.00
Cl628  Cl    0.22648   0.71237   0.13999   0.00000  Uiso   1.00
N629   N     0.09859   0.96229   0.33484   0.00000  Uiso   1.00
H630   H     0.09855   0.97110   0.37274   0.00000  Uiso   1.00
C631   C     0.05170   0.96912   0.33055   0.00000  Uiso   1.00
H632   H     0.04090   0.66983   0.33578   0.00000  Uiso   1.00
H633   H     0.02434   0.95235   0.36237   0.00000  Uiso   1.00
H634   H     0.05216   0.95730   0.29035   0.00000  Uiso   1.00
N635   N     0.30639   0.76866   0.19445   0.00000  Uiso   1.00
H636   H     0.27976   0.77486   0.17908   0.00000  Uiso   1.00
C637   C     0.30698   0.72723   0.21616   0.00000  Uiso   1.00
H638   H     0.27056   0.71473   0.23024   0.00000  Uiso   1.00
H639   H     0.31956   0.72770   0.25124   0.00000  Uiso   1.00
H640   H     0.33094   0.70542   0.18388   0.00000  Uiso   1.00
N641   N     0.07050   0.77361   0.18826   0.00000  Uiso   1.00
H642   H     0.06672   0.74360   0.20251   0.00000  Uiso   1.00
C643   C     0.08360   0.77511   0.13011   0.00000  Uiso   1.00
H644   H     0.05785   0.75779   0.11639   0.00000  Uiso   1.00
H645   H     0.11991   0.75999   0.11031   0.00000  Uiso   1.00
H646   H     0.08458   0.80813   0.11733   0.00000  Uiso   1.00
N647   N     0.26329   0.89094   0.31599   0.00000  Uiso   1.00
H648   H     0.25683   0.88550   0.35629   0.00000  Uiso   1.00
C649   C     0.26966   0.93497   0.30424   0.00000  Uiso   1.00
H650   H     0.29960   0.94676   0.31558   0.00000  Uiso   1.00
H651   H     0.23631   0.95337   0.32806   0.00000  Uiso   1.00
H652   H     0.27707   0.93998   0.26064   0.00000  Uiso   1.00
Cl653  Cl    0.26835   0.74253   0.39922   0.00000  Uiso   1.00
N654   N     0.05008   0.87786   0.41354   0.00000  Uiso   1.00
H655   H     0.03762   0.90869   0.41957   0.00000  Uiso   1.00
C656   C     0.01146   0.84916   0.42425   0.00000  Uiso   1.00
H657   H     0.32310   0.85648   0.39862   0.00000  Uiso   1.00
H658   H     0.32099   0.85301   0.46723   0.00000  Uiso   1.00
H659   H     0.02571   0.81609   0.41499   0.00000  Uiso   1.00
Cl660  Cl    0.13211   0.92336   0.04620   0.00000  Uiso   1.00
N661   N     0.04815   0.92163   0.01023   0.00000  Uiso   1.00
H662   H     0.01384   0.91344   0.01431   0.00000  Uiso   1.00
C663   C     0.05838   0.96451   0.49392   0.00000  Uiso   1.00
H664   H     0.04914   0.98550   0.03066   0.00000  Uiso   1.00
H665   H     0.03627   0.97488   0.46982   0.00000  Uiso   1.00
H666   H     0.09691   0.96785   0.46931   0.00000  Uiso   1.00
N667   N     0.22101   0.95146   0.15290   0.00000  Uiso   1.00
H668   H     0.21459   0.96130   0.11897   0.00000  Uiso   1.00
C669   C     0.27170   0.94473   0.14320   0.00000  Uiso   1.00
H670   H     0.27713   0.92373   0.17365   0.00000  Uiso   1.00
H671   H     0.28899   0.97501   0.14434   0.00000  Uiso   1.00
H672   H     0.28949   0.92945   0.10261   0.00000  Uiso   1.00
C673   C     0.49958   0.91320   0.24931   0.00000  Uiso   1.00
C674   C     0.48730   0.84655   0.48527   0.00000  Uiso   1.00
C675   C     0.48754   0.82475   0.43796   0.00000  Uiso   1.00
C676   C     0.52005   0.83195   0.00993   0.00000  Uiso   1.00
C677   C     0.55764   0.80191   0.48259   0.00000  Uiso   1.00
C678   C     0.55805   0.78182   0.43460   0.00000  Uiso   1.00
C679   C     0.52129   0.79109   0.41523   0.00000  Uiso   1.00
C680   C     0.51256   0.84232   0.06384   0.00000  Uiso   1.00
C681   C     0.58667   0.80553   0.05816   0.00000  Uiso   1.00
C682   C     0.45629   0.83851   0.41154   0.00000  Uiso   1.00
C683   C     0.52866   0.97629   0.20056   0.00000  Uiso   1.00
C684   C     0.47314   0.83322   0.35225   0.00000  Uiso   1.00
C685   C     0.52878   0.68660   0.20013   0.00000  Uiso   1.00
C686   C     0.50223   0.70948   0.24766   0.00000  Uiso   1.00
C687   C     0.47234   0.69070   0.29337   0.00000  Uiso   1.00
C688   C     0.46863   0.98111   0.29254   0.00000  Uiso   1.00
C689   C     0.49883   0.95746   0.24736   0.00000  Uiso   1.00
C690   C     0.65289   0.80257   0.22163   0.00000  Uiso   1.00
C691   C     0.36814   0.80377   0.21990   0.00000  Uiso   1.00
C692   C     0.34678   0.86221   0.28080   0.00000  Uiso   1.00
C693   C     0.63222   0.86260   0.28063   0.00000  Uiso   1.00
C694   C     0.50094   0.75354   0.24875   0.00000  Uiso   1.00
C695   C     0.52696   0.83271   0.14778   0.00000  Uiso   1.00
C696   C     0.59198   0.79072   0.00595   0.00000  Uiso   1.00
C697   C     0.54428   0.82864   0.08868   0.00000  Uiso   1.00
C698   C     0.41791   0.86745   0.43799   0.00000  Uiso   1.00
C699   C     0.41818   0.89027   0.48431   0.00000  Uiso   1.00
C700   C     0.45538   0.88260   0.00464   0.00000  Uiso   1.00
H701   H     0.45001   0.70961   0.32847   0.00000  Uiso   1.00
H702   H     0.35645   0.88481   0.30603   0.00000  Uiso   1.00
H703   H     0.62257   0.76993   0.48448   0.00000  Uiso   1.00
H704   H     0.47900   0.85745   0.08892   0.00000  Uiso   1.00
H705   H     0.52018   0.77244   0.38078   0.00000  Uiso   1.00
N706   N     0.38093   0.83334   0.25002   0.00000  Uiso   1.00
N707   N     0.61906   0.83331   0.25001   0.00000  Uiso   1.00
O708   O     0.46179   0.89442   0.25001   0.00000  Uiso   1.00
O709   O     0.53823   0.89441   0.25001   0.00000  Uiso   1.00
O710   O     0.44280   0.83333   0.32681   0.00000  Uiso   1.00
O711   O     0.51924   0.83332   0.32681   0.00000  Uiso   1.00
O712   O     0.46177   0.77226   0.25000   0.00000  Uiso   1.00
O713   O     0.53821   0.77225   0.25000   0.00000  Uiso   1.00
O714   O     0.48076   0.83335   0.17319   0.00000  Uiso   1.00
O715   O     0.55720   0.83334   0.17319   0.00000  Uiso   1.00
Zn716  Zn    0.44896   0.83334   0.25000   0.00000  Uiso   1.00
Zn717  Zn    0.55104   0.83333   0.25000   0.00000  Uiso   1.00
N718   N     0.62194   0.79418   0.08093   0.00000  Uiso   1.00
H719   H     0.63873   0.76505   0.06770   0.00000  Uiso   1.00
C720   C     0.65608   0.82629   0.07754   0.00000  Uiso   1.00
H721   H     0.34871   0.82729   0.03553   0.00000  Uiso   1.00
H722   H     0.34280   0.81903   0.10472   0.00000  Uiso   1.00
H723   H     0.63752   0.85751   0.09054   0.00000  Uiso   1.00
Cl724  Cl    0.55982   0.71237   0.13999   0.00000  Uiso   1.00
N725   N     0.43193   0.96229   0.33484   0.00000  Uiso   1.00
H726   H     0.43188   0.97110   0.37274   0.00000  Uiso   1.00
C727   C     0.38503   0.96912   0.33055   0.00000  Uiso   1.00
H728   H     0.37424   0.66983   0.33578   0.00000  Uiso   1.00
H729   H     0.35767   0.95235   0.36237   0.00000  Uiso   1.00
H730   H     0.38549   0.95730   0.29035   0.00000  Uiso   1.00
N731   N     0.63973   0.76866   0.19445   0.00000  Uiso   1.00
H732   H     0.61309   0.77486   0.17908   0.00000  Uiso   1.00
C733   C     0.64032   0.72723   0.21616   0.00000  Uiso   1.00
H734   H     0.60389   0.71473   0.23024   0.00000  Uiso   1.00
H735   H     0.65289   0.72770   0.25124   0.00000  Uiso   1.00
H736   H     0.66427   0.70542   0.18388   0.00000  Uiso   1.00
N737   N     0.40383   0.77361   0.18826   0.00000  Uiso   1.00
H738   H     0.40005   0.74360   0.20251   0.00000  Uiso   1.00
C739   C     0.41694   0.77511   0.13011   0.00000  Uiso   1.00
H740   H     0.39119   0.75779   0.11639   0.00000  Uiso   1.00
H741   H     0.45325   0.75999   0.11031   0.00000  Uiso   1.00
H742   H     0.41792   0.80813   0.11733   0.00000  Uiso   1.00
N743   N     0.59662   0.89094   0.31599   0.00000  Uiso   1.00
H744   H     0.59017   0.88550   0.35629   0.00000  Uiso   1.00
C745   C     0.60299   0.93497   0.30424   0.00000  Uiso   1.00
H746   H     0.63293   0.94676   0.31558   0.00000  Uiso   1.00
H747   H     0.56964   0.95337   0.32806   0.00000  Uiso   1.00
H748   H     0.61040   0.93998   0.26064   0.00000  Uiso   1.00
Cl749  Cl    0.60168   0.74253   0.39922   0.00000  Uiso   1.00
N750   N     0.38342   0.87786   0.41354   0.00000  Uiso   1.00
H751   H     0.37096   0.90869   0.41957   0.00000  Uiso   1.00
C752   C     0.34479   0.84916   0.42425   0.00000  Uiso   1.00
H753   H     0.65643   0.85648   0.39862   0.00000  Uiso   1.00
H754   H     0.65432   0.85301   0.46723   0.00000  Uiso   1.00
H755   H     0.35905   0.81609   0.41499   0.00000  Uiso   1.00
Cl756  Cl    0.46544   0.92336   0.04620   0.00000  Uiso   1.00
N757   N     0.38149   0.92163   0.01023   0.00000  Uiso   1.00
H758   H     0.34717   0.91344   0.01431   0.00000  Uiso   1.00
C759   C     0.39172   0.96451   0.49392   0.00000  Uiso   1.00
H760   H     0.38247   0.98550   0.03066   0.00000  Uiso   1.00
H761   H     0.36960   0.97488   0.46982   0.00000  Uiso   1.00
H762   H     0.43025   0.96785   0.46931   0.00000  Uiso   1.00
N763   N     0.55435   0.95146   0.15290   0.00000  Uiso   1.00
H764   H     0.54792   0.96130   0.11897   0.00000  Uiso   1.00
C765   C     0.60504   0.94473   0.14320   0.00000  Uiso   1.00
H766   H     0.61046   0.92373   0.17365   0.00000  Uiso   1.00
H767   H     0.62233   0.97501   0.14434   0.00000  Uiso   1.00
H768   H     0.62283   0.92945   0.10261   0.00000  Uiso   1.00
C769   C     0.83292   0.91320   0.24931   0.00000  Uiso   1.00
C770   C     0.82064   0.84655   0.48527   0.00000  Uiso   1.00
C771   C     0.82087   0.82475   0.43796   0.00000  Uiso   1.00
C772   C     0.85338   0.83195   0.00993   0.00000  Uiso   1.00
C773   C     0.89097   0.80191   0.48259   0.00000  Uiso   1.00
C774   C     0.89138   0.78182   0.43460   0.00000  Uiso   1.00
C775   C     0.85462   0.79109   0.41523   0.00000  Uiso   1.00
C776   C     0.84589   0.84232   0.06384   0.00000  Uiso   1.00
C777   C     0.92000   0.80553   0.05816   0.00000  Uiso   1.00
C778   C     0.78962   0.83851   0.41154   0.00000  Uiso   1.00
C779   C     0.86200   0.97629   0.20056   0.00000  Uiso   1.00
C780   C     0.80648   0.83322   0.35225   0.00000  Uiso   1.00
C781   C     0.86211   0.68660   0.20013   0.00000  Uiso   1.00
C782   C     0.83556   0.70948   0.24766   0.00000  Uiso   1.00
C783   C     0.80567   0.69070   0.29337   0.00000  Uiso   1.00
C784   C     0.80197   0.98111   0.29254   0.00000  Uiso   1.00
C785   C     0.83217   0.95746   0.24736   0.00000  Uiso   1.00
C786   C     0.98623   0.80257   0.22163   0.00000  Uiso   1.00
C787   C     0.70147   0.80377   0.21990   0.00000  Uiso   1.00
C788   C     0.68011   0.86221   0.28080   0.00000  Uiso   1.00
C789   C     0.96556   0.86260   0.28063   0.00000  Uiso   1.00
C790   C     0.83428   0.75354   0.24875   0.00000  Uiso   1.00
C791   C     0.86029   0.83271   0.14778   0.00000  Uiso   1.00
C792   C     0.92531   0.79072   0.00595   0.00000  Uiso   1.00
C793   C     0.87761   0.82864   0.08868   0.00000  Uiso   1.00
C794   C     0.75124   0.86745   0.43799   0.00000  Uiso   1.00
C795   C     0.75151   0.89027   0.48431   0.00000  Uiso   1.00
C796   C     0.78871   0.88260   0.00464   0.00000  Uiso   1.00
H797   H     0.78334   0.70961   0.32847   0.00000  Uiso   1.00
H798   H     0.68979   0.88481   0.30603   0.00000  Uiso   1.00
H799   H     0.95591   0.76993   0.48448   0.00000  Uiso   1.00
H800   H     0.81234   0.85745   0.08892   0.00000  Uiso   1.00
H801   H     0.85351   0.77244   0.38078   0.00000  Uiso   1.00
N802   N     0.71426   0.83334   0.25002   0.00000  Uiso   1.00
N803   N     0.95239   0.83331   0.25001   0.00000  Uiso   1.00
O804   O     0.79512   0.89442   0.25001   0.00000  Uiso   1.00
O805   O     0.87157   0.89441   0.25001   0.00000  Uiso   1.00
O806   O     0.77613   0.83333   0.32681   0.00000  Uiso   1.00
O807   O     0.85258   0.83332   0.32681   0.00000  Uiso   1.00
O808   O     0.79510   0.77226   0.25000   0.00000  Uiso   1.00
O809   O     0.87154   0.77225   0.25000   0.00000  Uiso   1.00
O810   O     0.81409   0.83335   0.17319   0.00000  Uiso   1.00
O811   O     0.89053   0.83334   0.17319   0.00000  Uiso   1.00
Zn812  Zn    0.78229   0.83334   0.25000   0.00000  Uiso   1.00
Zn813  Zn    0.88438   0.83333   0.25000   0.00000  Uiso   1.00
N814   N     0.95527   0.79418   0.08093   0.00000  Uiso   1.00
H815   H     0.97206   0.76505   0.06770   0.00000  Uiso   1.00
C816   C     0.98941   0.82629   0.07754   0.00000  Uiso   1.00
H817   H     0.68204   0.82729   0.03553   0.00000  Uiso   1.00
H818   H     0.67613   0.81903   0.10472   0.00000  Uiso   1.00
H819   H     0.97085   0.85751   0.09054   0.00000  Uiso   1.00
Cl820  Cl    0.89315   0.71237   0.13999   0.00000  Uiso   1.00
N821   N     0.76526   0.96229   0.33484   0.00000  Uiso   1.00
H822   H     0.76522   0.97110   0.37274   0.00000  Uiso   1.00
C823   C     0.71836   0.96912   0.33055   0.00000  Uiso   1.00
H824   H     0.70757   0.66983   0.33578   0.00000  Uiso   1.00
H825   H     0.69101   0.95235   0.36237   0.00000  Uiso   1.00
H826   H     0.71882   0.95730   0.29035   0.00000  Uiso   1.00
N827   N     0.97306   0.76866   0.19445   0.00000  Uiso   1.00
H828   H     0.94642   0.77486   0.17908   0.00000  Uiso   1.00
C829   C     0.97365   0.72723   0.21616   0.00000  Uiso   1.00
H830   H     0.93722   0.71473   0.23024   0.00000  Uiso   1.00
H831   H     0.98623   0.72770   0.25124   0.00000  Uiso   1.00
H832   H     0.99761   0.70542   0.18388   0.00000  Uiso   1.00
N833   N     0.73717   0.77361   0.18826   0.00000  Uiso   1.00
H834   H     0.73338   0.74360   0.20251   0.00000  Uiso   1.00
C835   C     0.75027   0.77511   0.13011   0.00000  Uiso   1.00
H836   H     0.72452   0.75779   0.11639   0.00000  Uiso   1.00
H837   H     0.78658   0.75999   0.11031   0.00000  Uiso   1.00
H838   H     0.75125   0.80813   0.11733   0.00000  Uiso   1.00
N839   N     0.92995   0.89094   0.31599   0.00000  Uiso   1.00
H840   H     0.92350   0.88550   0.35629   0.00000  Uiso   1.00
C841   C     0.93633   0.93497   0.30424   0.00000  Uiso   1.00
H842   H     0.96627   0.94676   0.31558   0.00000  Uiso   1.00
H843   H     0.90297   0.95337   0.32806   0.00000  Uiso   1.00
H844   H     0.94373   0.93998   0.26064   0.00000  Uiso   1.00
Cl845  Cl    0.93501   0.74253   0.39922   0.00000  Uiso   1.00
N846   N     0.71675   0.87786   0.41354   0.00000  Uiso   1.00
H847   H     0.70429   0.90869   0.41957   0.00000  Uiso   1.00
C848   C     0.67812   0.84916   0.42425   0.00000  Uiso   1.00
H849   H     0.98977   0.85648   0.39862   0.00000  Uiso   1.00
H850   H     0.98765   0.85301   0.46723   0.00000  Uiso   1.00
H851   H     0.69238   0.81609   0.41499   0.00000  Uiso   1.00
Cl852  Cl    0.79878   0.92336   0.04620   0.00000  Uiso   1.00
N853   N     0.71482   0.92163   0.01023   0.00000  Uiso   1.00
H854   H     0.68050   0.91344   0.01431   0.00000  Uiso   1.00
C855   C     0.72505   0.96451   0.49392   0.00000  Uiso   1.00
H856   H     0.71581   0.98550   0.03066   0.00000  Uiso   1.00
H857   H     0.70294   0.97488   0.46982   0.00000  Uiso   1.00
H858   H     0.76358   0.96785   0.46931   0.00000  Uiso   1.00
N859   N     0.88768   0.95146   0.15290   0.00000  Uiso   1.00
H860   H     0.88126   0.96130   0.11897   0.00000  Uiso   1.00
C861   C     0.93837   0.94473   0.14320   0.00000  Uiso   1.00
H862   H     0.94380   0.92373   0.17365   0.00000  Uiso   1.00
H863   H     0.95566   0.97501   0.14434   0.00000  Uiso   1.00
H864   H     0.95616   0.92945   0.10261   0.00000  Uiso   1.00
C865   C     0.16625   0.24654   0.74931   0.00000  Uiso   1.00
C866   C     0.15397   0.17988   0.98527   0.00000  Uiso   1.00
C867   C     0.15421   0.15808   0.93796   0.00000  Uiso   1.00
C868   C     0.18672   0.16529   0.50993   0.00000  Uiso   1.00
C869   C     0.22430   0.13525   0.98259   0.00000  Uiso   1.00
C870   C     0.22471   0.11515   0.93460   0.00000  Uiso   1.00
C871   C     0.18795   0.12442   0.91523   0.00000  Uiso   1.00
C872   C     0.17922   0.17565   0.56384   0.00000  Uiso   1.00
C873   C     0.25334   0.13886   0.55816   0.00000  Uiso   1.00
C874   C     0.12296   0.17184   0.91154   0.00000  Uiso   1.00
C875   C     0.19533   0.30962   0.70056   0.00000  Uiso   1.00
C876   C     0.13981   0.16656   0.85225   0.00000  Uiso   1.00
C877   C     0.19545   0.01993   0.70013   0.00000  Uiso   1.00
C878   C     0.16889   0.04282   0.74766   0.00000  Uiso   1.00
C879   C     0.13900   0.02404   0.79337   0.00000  Uiso   1.00
C880   C     0.13530   0.31444   0.79254   0.00000  Uiso   1.00
C881   C     0.16550   0.29079   0.74736   0.00000  Uiso   1.00
C882   C     0.31956   0.13590   0.72163   0.00000  Uiso   1.00
C883   C     0.03481   0.13710   0.71990   0.00000  Uiso   1.00
C884   C     0.01344   0.19554   0.78080   0.00000  Uiso   1.00
C885   C     0.29889   0.19593   0.78063   0.00000  Uiso   1.00
C886   C     0.16761   0.08687   0.74875   0.00000  Uiso   1.00
C887   C     0.19363   0.16604   0.64778   0.00000  Uiso   1.00
C888   C     0.25864   0.12405   0.50595   0.00000  Uiso   1.00
C889   C     0.21094   0.16197   0.58868   0.00000  Uiso   1.00
C890   C     0.08458   0.20078   0.93799   0.00000  Uiso   1.00
C891   C     0.08485   0.22361   0.98431   0.00000  Uiso   1.00
C892   C     0.12204   0.21594   0.50464   0.00000  Uiso   1.00
H893   H     0.11668   0.04294   0.82847   0.00000  Uiso   1.00
H894   H     0.02312   0.21814   0.80603   0.00000  Uiso   1.00
H895   H     0.28924   0.10327   0.98448   0.00000  Uiso   1.00
H896   H     0.14567   0.19078   0.58892   0.00000  Uiso   1.00
H897   H     0.18685   0.10577   0.88078   0.00000  Uiso   1.00
N898   N     0.04760   0.16668   0.75002   0.00000  Uiso   1.00
N899   N     0.28573   0.16665   0.75001   0.00000  Uiso   1.00
O900   O     0.12846   0.22775   0.75001   0.00000  Uiso   1.00
O901   O     0.20490   0.22774   0.75001   0.00000  Uiso   1.00
O902   O     0.10947   0.16666   0.82681   0.00000  Uiso   1.00
O903   O     0.18591   0.16665   0.82681   0.00000  Uiso   1.00
O904   O     0.12843   0.10559   0.75000   0.00000  Uiso   1.00
O905   O     0.20488   0.10558   0.75000   0.00000  Uiso   1.00
O906   O     0.14742   0.16668   0.67319   0.00000  Uiso   1.00
O907   O     0.22387   0.16667   0.67319   0.00000  Uiso   1.00
Zn908  Zn    0.11562   0.16667   0.75000   0.00000  Uiso   1.00
Zn909  Zn    0.21771   0.16666   0.75000   0.00000  Uiso   1.00
N910   N     0.28861   0.12752   0.58093   0.00000  Uiso   1.00
H911   H     0.30539   0.09839   0.56770   0.00000  Uiso   1.00
C912   C     0.32275   0.15962   0.57754   0.00000  Uiso   1.00
H913   H     0.01537   0.16063   0.53553   0.00000  Uiso   1.00
H914   H     0.00946   0.15237   0.60472   0.00000  Uiso   1.00
H915   H     0.30418   0.19084   0.59054   0.00000  Uiso   1.00
Cl916  Cl    0.22648   0.04571   0.63999   0.00000  Uiso   1.00
N917   N     0.09859   0.29562   0.83484   0.00000  Uiso   1.00
H918   H     0.09855   0.30443   0.87274   0.00000  Uiso   1.00
C919   C     0.05170   0.30245   0.83055   0.00000  Uiso   1.00
H920   H     0.04090   0.00316   0.83578   0.00000  Uiso   1.00
H921   H     0.02434   0.28568   0.86237   0.00000  Uiso   1.00
H922   H     0.05216   0.29063   0.79035   0.00000  Uiso   1.00
N923   N     0.30639   0.10200   0.69445   0.00000  Uiso   1.00
H924   H     0.27976   0.10819   0.67908   0.00000  Uiso   1.00
C925   C     0.30698   0.06056   0.71616   0.00000  Uiso   1.00
H926   H     0.27056   0.04806   0.73024   0.00000  Uiso   1.00
H927   H     0.31956   0.06103   0.75124   0.00000  Uiso   1.00
H928   H     0.33094   0.03875   0.68388   0.00000  Uiso   1.00
N929   N     0.07050   0.10695   0.68826   0.00000  Uiso   1.00
H930   H     0.06672   0.07694   0.70251   0.00000  Uiso   1.00
C931   C     0.08360   0.10845   0.63011   0.00000  Uiso   1.00
H932   H     0.05785   0.09112   0.61639   0.00000  Uiso   1.00
H933   H     0.11991   0.09332   0.61031   0.00000  Uiso   1.00
H934   H     0.08458   0.14147   0.61733   0.00000  Uiso   1.00
N935   N     0.26329   0.22427   0.81599   0.00000  Uiso   1.00
H936   H     0.25683   0.21883   0.85629   0.00000  Uiso   1.00
C937   C     0.26966   0.26830   0.80424   0.00000  Uiso   1.00
H938   H     0.29960   0.28009   0.81558   0.00000  Uiso   1.00
H939   H     0.23631   0.28671   0.82806   0.00000  Uiso   1.00
H940   H     0.27707   0.27331   0.76064   0.00000  Uiso   1.00
Cl941  Cl    0.26835   0.07586   0.89922   0.00000  Uiso   1.00
N942   N     0.05008   0.21120   0.91354   0.00000  Uiso   1.00
H943   H     0.03762   0.24202   0.91957   0.00000  Uiso   1.00
C944   C     0.01146   0.18250   0.92425   0.00000  Uiso   1.00
H945   H     0.32310   0.18981   0.89862   0.00000  Uiso   1.00
H946   H     0.32099   0.18635   0.96723   0.00000  Uiso   1.00
H947   H     0.02571   0.14942   0.91499   0.00000  Uiso   1.00
Cl948  Cl    0.13211   0.25670   0.54620   0.00000  Uiso   1.00
N949   N     0.04815   0.25497   0.51023   0.00000  Uiso   1.00
H950   H     0.01384   0.24678   0.51431   0.00000  Uiso   1.00
C951   C     0.05838   0.29784   0.99392   0.00000  Uiso   1.00
H952   H     0.04914   0.31884   0.53066   0.00000  Uiso   1.00
H953   H     0.03627   0.30821   0.96982   0.00000  Uiso   1.00
H954   H     0.09691   0.30118   0.96931   0.00000  Uiso   1.00
N955   N     0.22101   0.28479   0.65290   0.00000  Uiso   1.00
H956   H     0.21459   0.29464   0.61897   0.00000  Uiso   1.00
C957   C     0.27170   0.27806   0.64320   0.00000  Uiso   1.00
H958   H     0.27713   0.25707   0.67365   0.00000  Uiso   1.00
H959   H     0.28899   0.30835   0.64434   0.00000  Uiso   1.00
H960   H     0.28949   0.26278   0.60261   0.00000  Uiso   1.00
C961   C     0.49958   0.24654   0.74931   0.00000  Uiso   1.00
C962   C     0.48730   0.17988   0.98527   0.00000  Uiso   1.00
C963   C     0.48754   0.15808   0.93796   0.00000  Uiso   1.00
C964   C     0.52005   0.16529   0.50993   0.00000  Uiso   1.00
C965   C     0.55764   0.13525   0.98259   0.00000  Uiso   1.00
C966   C     0.55805   0.11515   0.93460   0.00000  Uiso   1.00
C967   C     0.52129   0.12442   0.91523   0.00000  Uiso   1.00
C968   C     0.51256   0.17565   0.56384   0.00000  Uiso   1.00
C969   C     0.58667   0.13886   0.55816   0.00000  Uiso   1.00
C970   C     0.45629   0.17184   0.91154   0.00000  Uiso   1.00
C971   C     0.52866   0.30962   0.70056   0.00000  Uiso   1.00
C972   C     0.47314   0.16656   0.85225   0.00000  Uiso   1.00
C973   C     0.52878   0.01993   0.70013   0.00000  Uiso   1.00
C974   C     0.50223   0.04282   0.74766   0.00000  Uiso   1.00
C975   C     0.47234   0.02404   0.79337   0.00000  Uiso   1.00
C976   C     0.46863   0.31444   0.79254   0.00000  Uiso   1.00
C977   C     0.49883   0.29079   0.74736   0.00000  Uiso   1.00
C978   C     0.65289   0.13590   0.72163   0.00000  Uiso   1.00
C979   C     0.36814   0.13710   0.71990   0.00000  Uiso   1.00
C980   C     0.34678   0.19554   0.78080   0.00000  Uiso   1.00
C981   C     0.63222   0.19593   0.78063   0.00000  Uiso   1.00
C982   C     0.50094   0.08687   0.74875   0.00000  Uiso   1.00
C983   C     0.52696   0.16604   0.64778   0.00000  Uiso   1.00
C984   C     0.59198   0.12405   0.50595   0.00000  Uiso   1.00
C985   C     0.54428   0.16197   0.58868   0.00000  Uiso   1.00
C986   C     0.41791   0.20078   0.93799   0.00000  Uiso   1.00
C987   C     0.41818   0.22361   0.98431   0.00000  Uiso   1.00
C988   C     0.45538   0.21594   0.50464   0.00000  Uiso   1.00
H989   H     0.45001   0.04294   0.82847   0.00000  Uiso   1.00
H990   H     0.35645   0.21814   0.80603   0.00000  Uiso   1.00
H991   H     0.62257   0.10327   0.98448   0.00000  Uiso   1.00
H992   H     0.47900   0.19078   0.58892   0.00000  Uiso   1.00
H993   H     0.52018   0.10577   0.88078   0.00000  Uiso   1.00
N994   N     0.38093   0.16668   0.75002   0.00000  Uiso   1.00
N995   N     0.61906   0.16665   0.75001   0.00000  Uiso   1.00
O996   O     0.46179   0.22775   0.75001   0.00000  Uiso   1.00
O997   O     0.53823   0.22774   0.75001   0.00000  Uiso   1.00
O998   O     0.44280   0.16666   0.82681   0.00000  Uiso   1.00
O999   O     0.51924   0.16665   0.82681   0.00000  Uiso   1.00
O1000  O     0.46177   0.10559   0.75000   0.00000  Uiso   1.00
O1001  O     0.53821   0.10558   0.75000   0.00000  Uiso   1.00
O1002  O     0.48076   0.16668   0.67319   0.00000  Uiso   1.00
O1003  O     0.55720   0.16667   0.67319   0.00000  Uiso   1.00
Zn1004 Zn    0.44896   0.16667   0.75000   0.00000  Uiso   1.00
Zn1005 Zn    0.55104   0.16666   0.75000   0.00000  Uiso   1.00
N1006  N     0.62194   0.12752   0.58093   0.00000  Uiso   1.00
H1007  H     0.63873   0.09839   0.56770   0.00000  Uiso   1.00
C1008  C     0.65608   0.15962   0.57754   0.00000  Uiso   1.00
H1009  H     0.34871   0.16063   0.53553   0.00000  Uiso   1.00
H1010  H     0.34280   0.15237   0.60472   0.00000  Uiso   1.00
H1011  H     0.63752   0.19084   0.59054   0.00000  Uiso   1.00
Cl1012 Cl    0.55982   0.04571   0.63999   0.00000  Uiso   1.00
N1013  N     0.43193   0.29562   0.83484   0.00000  Uiso   1.00
H1014  H     0.43188   0.30443   0.87274   0.00000  Uiso   1.00
C1015  C     0.38503   0.30245   0.83055   0.00000  Uiso   1.00
H1016  H     0.37424   0.00316   0.83578   0.00000  Uiso   1.00
H1017  H     0.35767   0.28568   0.86237   0.00000  Uiso   1.00
H1018  H     0.38549   0.29063   0.79035   0.00000  Uiso   1.00
N1019  N     0.63973   0.10200   0.69445   0.00000  Uiso   1.00
H1020  H     0.61309   0.10819   0.67908   0.00000  Uiso   1.00
C1021  C     0.64032   0.06056   0.71616   0.00000  Uiso   1.00
H1022  H     0.60389   0.04806   0.73024   0.00000  Uiso   1.00
H1023  H     0.65289   0.06103   0.75124   0.00000  Uiso   1.00
H1024  H     0.66427   0.03875   0.68388   0.00000  Uiso   1.00
N1025  N     0.40383   0.10695   0.68826   0.00000  Uiso   1.00
H1026  H     0.40005   0.07694   0.70251   0.00000  Uiso   1.00
C1027  C     0.41694   0.10845   0.63011   0.00000  Uiso   1.00
H1028  H     0.39119   0.09112   0.61639   0.00000  Uiso   1.00
H1029  H     0.45325   0.09332   0.61031   0.00000  Uiso   1.00
H1030  H     0.41792   0.14147   0.61733   0.00000  Uiso   1.00
N1031  N     0.59662   0.22427   0.81599   0.00000  Uiso   1.00
H1032  H     0.59017   0.21883   0.85629   0.00000  Uiso   1.00
C1033  C     0.60299   0.26830   0.80424   0.00000  Uiso   1.00
H1034  H     0.63293   0.28009   0.81558   0.00000  Uiso   1.00
H1035  H     0.56964   0.28671   0.82806   0.00000  Uiso   1.00
H1036  H     0.61040   0.27331   0.76064   0.00000  Uiso   1.00
Cl1037 Cl    0.60168   0.07586   0.89922   0.00000  Uiso   1.00
N1038  N     0.38342   0.21120   0.91354   0.00000  Uiso   1.00
H1039  H     0.37096   0.24202   0.91957   0.00000  Uiso   1.00
C1040  C     0.34479   0.18250   0.92425   0.00000  Uiso   1.00
H1041  H     0.65643   0.18981   0.89862   0.00000  Uiso   1.00
H1042  H     0.65432   0.18635   0.96723   0.00000  Uiso   1.00
H1043  H     0.35905   0.14942   0.91499   0.00000  Uiso   1.00
Cl1044 Cl    0.46544   0.25670   0.54620   0.00000  Uiso   1.00
N1045  N     0.38149   0.25497   0.51023   0.00000  Uiso   1.00
H1046  H     0.34717   0.24678   0.51431   0.00000  Uiso   1.00
C1047  C     0.39172   0.29784   0.99392   0.00000  Uiso   1.00
H1048  H     0.38247   0.31884   0.53066   0.00000  Uiso   1.00
H1049  H     0.36960   0.30821   0.96982   0.00000  Uiso   1.00
H1050  H     0.43025   0.30118   0.96931   0.00000  Uiso   1.00
N1051  N     0.55435   0.28479   0.65290   0.00000  Uiso   1.00
H1052  H     0.54792   0.29464   0.61897   0.00000  Uiso   1.00
C1053  C     0.60504   0.27806   0.64320   0.00000  Uiso   1.00
H1054  H     0.61046   0.25707   0.67365   0.00000  Uiso   1.00
H1055  H     0.62233   0.30835   0.64434   0.00000  Uiso   1.00
H1056  H     0.62283   0.26278   0.60261   0.00000  Uiso   1.00
C1057  C     0.83292   0.24654   0.74931   0.00000  Uiso   1.00
C1058  C     0.82064   0.17988   0.98527   0.00000  Uiso   1.00
C1059  C     0.82087   0.15808   0.93796   0.00000  Uiso   1.00
C1060  C     0.85338   0.16529   0.50993   0.00000  Uiso   1.00
C1061  C     0.89097   0.13525   0.98259   0.00000  Uiso   1.00
C1062  C     0.89138   0.11515   0.93460   0.00000  Uiso   1.00
C1063  C     0.85462   0.12442   0.91523   0.00000  Uiso   1.00
C1064  C     0.84589   0.17565   0.56384   0.00000  Uiso   1.00
C1065  C     0.92000   0.13886   0.55816   0.00000  Uiso   1.00
C1066  C     0.78962   0.17184   0.91154   0.00000  Uiso   1.00
C1067  C     0.86200   0.30962   0.70056   0.00000  Uiso   1.00
C1068  C     0.80648   0.16656   0.85225   0.00000  Uiso   1.00
C1069  C     0.86211   0.01993   0.70013   0.00000  Uiso   1.00
C1070  C     0.83556   0.04282   0.74766   0.00000  Uiso   1.00
C1071  C     0.80567   0.02404   0.79337   0.00000  Uiso   1.00
C1072  C     0.80197   0.31444   0.79254   0.00000  Uiso   1.00
C1073  C     0.83217   0.29079   0.74736   0.00000  Uiso   1.00
C1074  C     0.98623   0.13590   0.72163   0.00000  Uiso   1.00
C1075  C     0.70147   0.13710   0.71990   0.00000  Uiso   1.00
C1076  C     0.68011   0.19554   0.78080   0.00000  Uiso   1.00
C1077  C     0.96556   0.19593   0.78063   0.00000  Uiso   1.00
C1078  C     0.83428   0.08687   0.74875   0.00000  Uiso   1.00
C1079  C     0.86029   0.16604   0.64778   0.00000  Uiso   1.00
C1080  C     0.92531   0.12405   0.50595   0.00000  Uiso   1.00
C1081  C     0.87761   0.16197   0.58868   0.00000  Uiso   1.00
C1082  C     0.75124   0.20078   0.93799   0.00000  Uiso   1.00
C1083  C     0.75151   0.22361   0.98431   0.00000  Uiso   1.00
C1084  C     0.78871   0.21594   0.50464   0.00000  Uiso   1.00
H1085  H     0.78334   0.04294   0.82847   0.00000  Uiso   1.00
H1086  H     0.68979   0.21814   0.80603   0.00000  Uiso   1.00
H1087  H     0.95591   0.10327   0.98448   0.00000  Uiso   1.00
H1088  H     0.81234   0.19078   0.58892   0.00000  Uiso   1.00
H1089  H     0.85351   0.10577   0.88078   0.00000  Uiso   1.00
N1090  N     0.71426   0.16668   0.75002   0.00000  Uiso   1.00
N1091  N     0.95239   0.16665   0.75001   0.00000  Uiso   1.00
O1092  O     0.79512   0.22775   0.75001   0.00000  Uiso   1.00
O1093  O     0.87157   0.22774   0.75001   0.00000  Uiso   1.00
O1094  O     0.77613   0.16666   0.82681   0.00000  Uiso   1.00
O1095  O     0.85258   0.16665   0.82681   0.00000  Uiso   1.00
O1096  O     0.79510   0.10559   0.75000   0.00000  Uiso   1.00
O1097  O     0.87154   0.10558   0.75000   0.00000  Uiso   1.00
O1098  O     0.81409   0.16668   0.67319   0.00000  Uiso   1.00
O1099  O     0.89053   0.16667   0.67319   0.00000  Uiso   1.00
Zn1100 Zn    0.78229   0.16667   0.75000   0.00000  Uiso   1.00
Zn1101 Zn    0.88438   0.16666   0.75000   0.00000  Uiso   1.00
N1102  N     0.95527   0.12752   0.58093   0.00000  Uiso   1.00
H1103  H     0.97206   0.09839   0.56770   0.00000  Uiso   1.00
C1104  C     0.98941   0.15962   0.57754   0.00000  Uiso   1.00
H1105  H     0.68204   0.16063   0.53553   0.00000  Uiso   1.00
H1106  H     0.67613   0.15237   0.60472   0.00000  Uiso   1.00
H1107  H     0.97085   0.19084   0.59054   0.00000  Uiso   1.00
Cl1108 Cl    0.89315   0.04571   0.63999   0.00000  Uiso   1.00
N1109  N     0.76526   0.29562   0.83484   0.00000  Uiso   1.00
H1110  H     0.76522   0.30443   0.87274   0.00000  Uiso   1.00
C1111  C     0.71836   0.30245   0.83055   0.00000  Uiso   1.00
H1112  H     0.70757   0.00316   0.83578   0.00000  Uiso   1.00
H1113  H     0.69101   0.28568   0.86237   0.00000  Uiso   1.00
H1114  H     0.71882   0.29063   0.79035   0.00000  Uiso   1.00
N1115  N     0.97306   0.10200   0.69445   0.00000  Uiso   1.00
H1116  H     0.94642   0.10819   0.67908   0.00000  Uiso   1.00
C1117  C     0.97365   0.06056   0.71616   0.00000  Uiso   1.00
H1118  H     0.93722   0.04806   0.73024   0.00000  Uiso   1.00
H1119  H     0.98623   0.06103   0.75124   0.00000  Uiso   1.00
H1120  H     0.99761   0.03875   0.68388   0.00000  Uiso   1.00
N1121  N     0.73717   0.10695   0.68826   0.00000  Uiso   1.00
H1122  H     0.73338   0.07694   0.70251   0.00000  Uiso   1.00
C1123  C     0.75027   0.10845   0.63011   0.00000  Uiso   1.00
H1124  H     0.72452   0.09112   0.61639   0.00000  Uiso   1.00
H1125  H     0.78658   0.09332   0.61031   0.00000  Uiso   1.00
H1126  H     0.75125   0.14147   0.61733   0.00000  Uiso   1.00
N1127  N     0.92995   0.22427   0.81599   0.00000  Uiso   1.00
H1128  H     0.92350   0.21883   0.85629   0.00000  Uiso   1.00
C1129  C     0.93633   0.26830   0.80424   0.00000  Uiso   1.00
H1130  H     0.96627   0.28009   0.81558   0.00000  Uiso   1.00
H1131  H     0.90297   0.28671   0.82806   0.00000  Uiso   1.00
H1132  H     0.94373   0.27331   0.76064   0.00000  Uiso   1.00
Cl1133 Cl    0.93501   0.07586   0.89922   0.00000  Uiso   1.00
N1134  N     0.71675   0.21120   0.91354   0.00000  Uiso   1.00
H1135  H     0.70429   0.24202   0.91957   0.00000  Uiso   1.00
C1136  C     0.67812   0.18250   0.92425   0.00000  Uiso   1.00
H1137  H     0.98977   0.18981   0.89862   0.00000  Uiso   1.00
H1138  H     0.98765   0.18635   0.96723   0.00000  Uiso   1.00
H1139  H     0.69238   0.14942   0.91499   0.00000  Uiso   1.00
Cl1140 Cl    0.79878   0.25670   0.54620   0.00000  Uiso   1.00
N1141  N     0.71482   0.25497   0.51023   0.00000  Uiso   1.00
H1142  H     0.68050   0.24678   0.51431   0.00000  Uiso   1.00
C1143  C     0.72505   0.29784   0.99392   0.00000  Uiso   1.00
H1144  H     0.71581   0.31884   0.53066   0.00000  Uiso   1.00
H1145  H     0.70294   0.30821   0.96982   0.00000  Uiso   1.00
H1146  H     0.76358   0.30118   0.96931   0.00000  Uiso   1.00
N1147  N     0.88768   0.28479   0.65290   0.00000  Uiso   1.00
H1148  H     0.88126   0.29464   0.61897   0.00000  Uiso   1.00
C1149  C     0.93837   0.27806   0.64320   0.00000  Uiso   1.00
H1150  H     0.94380   0.25707   0.67365   0.00000  Uiso   1.00
H1151  H     0.95566   0.30835   0.64434   0.00000  Uiso   1.00
H1152  H     0.95616   0.26278   0.60261   0.00000  Uiso   1.00
C1153  C     0.16625   0.57987   0.74931   0.00000  Uiso   1.00
C1154  C     0.15397   0.51322   0.98527   0.00000  Uiso   1.00
C1155  C     0.15421   0.49141   0.93796   0.00000  Uiso   1.00
C1156  C     0.18672   0.49862   0.50993   0.00000  Uiso   1.00
C1157  C     0.22430   0.46858   0.98259   0.00000  Uiso   1.00
C1158  C     0.22471   0.44848   0.93460   0.00000  Uiso   1.00
C1159  C     0.18795   0.45776   0.91523   0.00000  Uiso   1.00
C1160  C     0.17922   0.50899   0.56384   0.00000  Uiso   1.00
C1161  C     0.25334   0.47219   0.55816   0.00000  Uiso   1.00
C1162  C     0.12296   0.50517   0.91154   0.00000  Uiso   1.00
C1163  C     0.19533   0.64296   0.70056   0.00000  Uiso   1.00
C1164  C     0.13981   0.49989   0.85225   0.00000  Uiso   1.00
C1165  C     0.19545   0.35327   0.70013   0.00000  Uiso   1.00
C1166  C     0.16889   0.37615   0.74766   0.00000  Uiso   1.00
C1167  C     0.13900   0.35737   0.79337   0.00000  Uiso   1.00
C1168  C     0.13530   0.64777   0.79254   0.00000  Uiso   1.00
C1169  C     0.16550   0.62413   0.74736   0.00000  Uiso   1.00
C1170  C     0.31956   0.46923   0.72163   0.00000  Uiso   1.00
C1171  C     0.03481   0.47043   0.71990   0.00000  Uiso   1.00
C1172  C     0.01344   0.52887   0.78080   0.00000  Uiso   1.00
C1173  C     0.29889   0.52927   0.78063   0.00000  Uiso   1.00
C1174  C     0.16761   0.42020   0.74875   0.00000  Uiso   1.00
C1175  C     0.19363   0.49938   0.64778   0.00000  Uiso   1.00
C1176  C     0.25864   0.45739   0.50595   0.00000  Uiso   1.00
C1177  C     0.21094   0.49531   0.58868   0.00000  Uiso   1.00
C1178  C     0.08458   0.53411   0.93799   0.00000  Uiso   1.00
C1179  C     0.08485   0.55694   0.98431   0.00000  Uiso   1.00
C1180  C     0.12204   0.54927   0.50464   0.00000  Uiso   1.00
H1181  H     0.11668   0.37627   0.82847   0.00000  Uiso   1.00
H1182  H     0.02312   0.55148   0.80603   0.00000  Uiso   1.00
H1183  H     0.28924   0.43660   0.98448   0.00000  Uiso   1.00
H1184  H     0.14567   0.52412   0.58892   0.00000  Uiso   1.00
H1185  H     0.18685   0.43910   0.88078   0.00000  Uiso   1.00
N1186  N     0.04760   0.50001   0.75002   0.00000  Uiso   1.00
N1187  N     0.28573   0.49998   0.75001   0.00000  Uiso   1.00
O1188  O     0.12846   0.56108   0.75001   0.00000  Uiso   1.00
O1189  O     0.20490   0.56107   0.75001   0.00000  Uiso   1.00
O1190  O     0.10947   0.50000   0.82681   0.00000  Uiso   1.00
O1191  O     0.18591   0.49999   0.82681   0.00000  Uiso   1.00
O1192  O     0.12843   0.43893   0.75000   0.00000  Uiso   1.00
O1193  O     0.20488   0.43892   0.75000   0.00000  Uiso   1.00
O1194  O     0.14742   0.50001   0.67319   0.00000  Uiso   1.00
O1195  O     0.22387   0.50000   0.67319   0.00000  Uiso   1.00
Zn1196 Zn    0.11562   0.50001   0.75000   0.00000  Uiso   1.00
Zn1197 Zn    0.21771   0.49999   0.75000   0.00000  Uiso   1.00
N1198  N     0.28861   0.46085   0.58093   0.00000  Uiso   1.00
H1199  H     0.30539   0.43172   0.56770   0.00000  Uiso   1.00
C1200  C     0.32275   0.49295   0.57754   0.00000  Uiso   1.00
H1201  H     0.01537   0.49396   0.53553   0.00000  Uiso   1.00
H1202  H     0.00946   0.48570   0.60472   0.00000  Uiso   1.00
H1203  H     0.30418   0.52417   0.59054   0.00000  Uiso   1.00
Cl1204 Cl    0.22648   0.37904   0.63999   0.00000  Uiso   1.00
N1205  N     0.09859   0.62895   0.83484   0.00000  Uiso   1.00
H1206  H     0.09855   0.63777   0.87274   0.00000  Uiso   1.00
C1207  C     0.05170   0.63579   0.83055   0.00000  Uiso   1.00
H1208  H     0.04090   0.33649   0.83578   0.00000  Uiso   1.00
H1209  H     0.02434   0.61901   0.86237   0.00000  Uiso   1.00
H1210  H     0.05216   0.62397   0.79035   0.00000  Uiso   1.00
N1211  N     0.30639   0.43533   0.69445   0.00000  Uiso   1.00
H1212  H     0.27976   0.44152   0.67908   0.00000  Uiso   1.00
C1213  C     0.30698   0.39389   0.71616   0.00000  Uiso   1.00
H1214  H     0.27056   0.38139   0.73024   0.00000  Uiso   1.00
H1215  H     0.31956   0.39436   0.75124   0.00000  Uiso   1.00
H1216  H     0.33094   0.37209   0.68388   0.00000  Uiso   1.00
N1217  N     0.07050   0.44028   0.68826   0.00000  Uiso   1.00
H1218  H     0.06672   0.41027   0.70251   0.00000  Uiso   1.00
C1219  C     0.08360   0.44178   0.63011   0.00000  Uiso   1.00
H1220  H     0.05785   0.42445   0.61639   0.00000  Uiso   1.00
H1221  H     0.11991   0.42665   0.61031   0.00000  Uiso   1.00
H1222  H     0.08458   0.47480   0.61733   0.00000  Uiso   1.00
N1223  N     0.26329   0.55761   0.81599   0.00000  Uiso   1.00
H1224  H     0.25683   0.55217   0.85629   0.00000  Uiso   1.00
C1225  C     0.26966   0.60164   0.80424   0.00000  Uiso   1.00
H1226  H     0.29960   0.61343   0.81558   0.00000  Uiso   1.00
H1227  H     0.23631   0.62004   0.82806   0.00000  Uiso   1.00
H1228  H     0.27707   0.60664   0.76064   0.00000  Uiso   1.00
Cl1229 Cl    0.26835   0.40920   0.89922   0.00000  Uiso   1.00
N1230  N     0.05008   0.54453   0.91354   0.00000  Uiso   1.00
H1231  H     0.03762   0.57535   0.91957   0.00000  Uiso   1.00
C1232  C     0.01146   0.51583   0.92425   0.00000  Uiso   1.00
H1233  H     0.32310   0.52315   0.89862   0.00000  Uiso   1.00
H1234  H     0.32099   0.51968   0.96723   0.00000  Uiso   1.00
H1235  H     0.02571   0.48276   0.91499   0.00000  Uiso   1.00
Cl1236 Cl    0.13211   0.59003   0.54620   0.00000  Uiso   1.00
N1237  N     0.04815   0.58830   0.51023   0.00000  Uiso   1.00
H1238  H     0.01384   0.58011   0.51431   0.00000  Uiso   1.00
C1239  C     0.05838   0.63118   0.99392   0.00000  Uiso   1.00
H1240  H     0.04914   0.65217   0.53066   0.00000  Uiso   1.00
H1241  H     0.03627   0.64155   0.96982   0.00000  Uiso   1.00
H1242  H     0.09691   0.63452   0.96931   0.00000  Uiso   1.00
N1243  N     0.22101   0.61812   0.65290   0.00000  Uiso   1.00
H1244  H     0.21459   0.62797   0.61897   0.00000  Uiso   1.00
C1245  C     0.27170   0.61139   0.64320   0.00000  Uiso   1.00
H1246  H     0.27713   0.59040   0.67365   0.00000  Uiso   1.00
H1247  H     0.28899   0.64168   0.64434   0.00000  Uiso   1.00
H1248  H     0.28949   0.59612   0.60261   0.00000  Uiso   1.00
C1249  C     0.49958   0.57987   0.74931   0.00000  Uiso   1.00
C1250  C     0.48730   0.51322   0.98527   0.00000  Uiso   1.00
C1251  C     0.48754   0.49141   0.93796   0.00000  Uiso   1.00
C1252  C     0.52005   0.49862   0.50993   0.00000  Uiso   1.00
C1253  C     0.55764   0.46858   0.98259   0.00000  Uiso   1.00
C1254  C     0.55805   0.44848   0.93460   0.00000  Uiso   1.00
C1255  C     0.52129   0.45776   0.91523   0.00000  Uiso   1.00
C1256  C     0.51256   0.50899   0.56384   0.00000  Uiso   1.00
C1257  C     0.58667   0.47219   0.55816   0.00000  Uiso   1.00
C1258  C     0.45629   0.50517   0.91154   0.00000  Uiso   1.00
C1259  C     0.52866   0.64296   0.70056   0.00000  Uiso   1.00
C1260  C     0.47314   0.49989   0.85225   0.00000  Uiso   1.00
C1261  C     0.52878   0.35327   0.70013   0.00000  Uiso   1.00
C1262  C     0.50223   0.37615   0.74766   0.00000  Uiso   1.00
C1263  C     0.47234   0.35737   0.79337   0.00000  Uiso   1.00
C1264  C     0.46863   0.64777   0.79254   0.00000  Uiso   1.00
C1265  C     0.49883   0.62413   0.74736   0.00000  Uiso   1.00
C1266  C     0.65289   0.46923   0.72163   0.00000  Uiso   1.00
C1267  C     0.36814   0.47043   0.71990   0.00000  Uiso   1.00
C1268  C     0.34678   0.52887   0.78080   0.00000  Uiso   1.00
C1269  C     0.63222   0.52927   0.78063   0.00000  Uiso   1.00
C1270  C     0.50094   0.42020   0.74875   0.00000  Uiso   1.00
C1271  C     0.52696   0.49938   0.64778   0.00000  Uiso   1.00
C1272  C     0.59198   0.45739   0.50595   0.00000  Uiso   1.00
C1273  C     0.54428   0.49531   0.58868   0.00000  Uiso   1.00
C1274  C     0.41791   0.53411   0.93799   0.00000  Uiso   1.00
C1275  C     0.41818   0.55694   0.98431   0.00000  Uiso   1.00
C1276  C     0.45538   0.54927   0.50464   0.00000  Uiso   1.00
H1277  H     0.45001   0.37627   0.82847   0.00000  Uiso   1.00
H1278  H     0.35645   0.55148   0.80603   0.00000  Uiso   1.00
H1279  H     0.62257   0.43660   0.98448   0.00000  Uiso   1.00
H1280  H     0.47900   0.52412   0.58892   0.00000  Uiso   1.00
H1281  H     0.52018   0.43910   0.88078   0.00000  Uiso   1.00
N1282  N     0.38093   0.50001   0.75002   0.00000  Uiso   1.00
N1283  N     0.61906   0.49998   0.75001   0.00000  Uiso   1.00
O1284  O     0.46179   0.56108   0.75001   0.00000  Uiso   1.00
O1285  O     0.53823   0.56107   0.75001   0.00000  Uiso   1.00
O1286  O     0.44280   0.50000   0.82681   0.00000  Uiso   1.00
O1287  O     0.51924   0.49999   0.82681   0.00000  Uiso   1.00
O1288  O     0.46177   0.43893   0.75000   0.00000  Uiso   1.00
O1289  O     0.53821   0.43892   0.75000   0.00000  Uiso   1.00
O1290  O     0.48076   0.50001   0.67319   0.00000  Uiso   1.00
O1291  O     0.55720   0.50000   0.67319   0.00000  Uiso   1.00
Zn1292 Zn    0.44896   0.50001   0.75000   0.00000  Uiso   1.00
Zn1293 Zn    0.55104   0.49999   0.75000   0.00000  Uiso   1.00
N1294  N     0.62194   0.46085   0.58093   0.00000  Uiso   1.00
H1295  H     0.63873   0.43172   0.56770   0.00000  Uiso   1.00
C1296  C     0.65608   0.49295   0.57754   0.00000  Uiso   1.00
H1297  H     0.34871   0.49396   0.53553   0.00000  Uiso   1.00
H1298  H     0.34280   0.48570   0.60472   0.00000  Uiso   1.00
H1299  H     0.63752   0.52417   0.59054   0.00000  Uiso   1.00
Cl1300 Cl    0.55982   0.37904   0.63999   0.00000  Uiso   1.00
N1301  N     0.43193   0.62895   0.83484   0.00000  Uiso   1.00
H1302  H     0.43188   0.63777   0.87274   0.00000  Uiso   1.00
C1303  C     0.38503   0.63579   0.83055   0.00000  Uiso   1.00
H1304  H     0.37424   0.33649   0.83578   0.00000  Uiso   1.00
H1305  H     0.35767   0.61901   0.86237   0.00000  Uiso   1.00
H1306  H     0.38549   0.62397   0.79035   0.00000  Uiso   1.00
N1307  N     0.63973   0.43533   0.69445   0.00000  Uiso   1.00
H1308  H     0.61309   0.44152   0.67908   0.00000  Uiso   1.00
C1309  C     0.64032   0.39389   0.71616   0.00000  Uiso   1.00
H1310  H     0.60389   0.38139   0.73024   0.00000  Uiso   1.00
H1311  H     0.65289   0.39436   0.75124   0.00000  Uiso   1.00
H1312  H     0.66427   0.37209   0.68388   0.00000  Uiso   1.00
N1313  N     0.40383   0.44028   0.68826   0.00000  Uiso   1.00
H1314  H     0.40005   0.41027   0.70251   0.00000  Uiso   1.00
C1315  C     0.41694   0.44178   0.63011   0.00000  Uiso   1.00
H1316  H     0.39119   0.42445   0.61639   0.00000  Uiso   1.00
H1317  H     0.45325   0.42665   0.61031   0.00000  Uiso   1.00
H1318  H     0.41792   0.47480   0.61733   0.00000  Uiso   1.00
N1319  N     0.59662   0.55761   0.81599   0.00000  Uiso   1.00
H1320  H     0.59017   0.55217   0.85629   0.00000  Uiso   1.00
C1321  C     0.60299   0.60164   0.80424   0.00000  Uiso   1.00
H1322  H     0.63293   0.61343   0.81558   0.00000  Uiso   1.00
H1323  H     0.56964   0.62004   0.82806   0.00000  Uiso   1.00
H1324  H     0.61040   0.60664   0.76064   0.00000  Uiso   1.00
Cl1325 Cl    0.60168   0.40920   0.89922   0.00000  Uiso   1.00
N1326  N     0.38342   0.54453   0.91354   0.00000  Uiso   1.00
H1327  H     0.37096   0.57535   0.91957   0.00000  Uiso   1.00
C1328  C     0.34479   0.51583   0.92425   0.00000  Uiso   1.00
H1329  H     0.65643   0.52315   0.89862   0.00000  Uiso   1.00
H1330  H     0.65432   0.51968   0.96723   0.00000  Uiso   1.00
H1331  H     0.35905   0.48276   0.91499   0.00000  Uiso   1.00
Cl1332 Cl    0.46544   0.59003   0.54620   0.00000  Uiso   1.00
N1333  N     0.38149   0.58830   0.51023   0.00000  Uiso   1.00
H1334  H     0.34717   0.58011   0.51431   0.00000  Uiso   1.00
C1335  C     0.39172   0.63118   0.99392   0.00000  Uiso   1.00
H1336  H     0.38247   0.65217   0.53066   0.00000  Uiso   1.00
H1337  H     0.36960   0.64155   0.96982   0.00000  Uiso   1.00
H1338  H     0.43025   0.63452   0.96931   0.00000  Uiso   1.00
N1339  N     0.55435   0.61812   0.65290   0.00000  Uiso   1.00
H1340  H     0.54792   0.62797   0.61897   0.00000  Uiso   1.00
C1341  C     0.60504   0.61139   0.64320   0.00000  Uiso   1.00
H1342  H     0.61046   0.59040   0.67365   0.00000  Uiso   1.00
H1343  H     0.62233   0.64168   0.64434   0.00000  Uiso   1.00
H1344  H     0.62283   0.59612   0.60261   0.00000  Uiso   1.00
C1345  C     0.83292   0.57987   0.74931   0.00000  Uiso   1.00
C1346  C     0.82064   0.51322   0.98527   0.00000  Uiso   1.00
C1347  C     0.82087   0.49141   0.93796   0.00000  Uiso   1.00
C1348  C     0.85338   0.49862   0.50993   0.00000  Uiso   1.00
C1349  C     0.89097   0.46858   0.98259   0.00000  Uiso   1.00
C1350  C     0.89138   0.44848   0.93460   0.00000  Uiso   1.00
C1351  C     0.85462   0.45776   0.91523   0.00000  Uiso   1.00
C1352  C     0.84589   0.50899   0.56384   0.00000  Uiso   1.00
C1353  C     0.92000   0.47219   0.55816   0.00000  Uiso   1.00
C1354  C     0.78962   0.50517   0.91154   0.00000  Uiso   1.00
C1355  C     0.86200   0.64296   0.70056   0.00000  Uiso   1.00
C1356  C     0.80648   0.49989   0.85225   0.00000  Uiso   1.00
C1357  C     0.86211   0.35327   0.70013   0.00000  Uiso   1.00
C1358  C     0.83556   0.37615   0.74766   0.00000  Uiso   1.00
C1359  C     0.80567   0.35737   0.79337   0.00000  Uiso   1.00
C1360  C     0.80197   0.64777   0.79254   0.00000  Uiso   1.00
C1361  C     0.83217   0.62413   0.74736   0.00000  Uiso   1.00
C1362  C     0.98623   0.46923   0.72163   0.00000  Uiso   1.00
C1363  C     0.70147   0.47043   0.71990   0.00000  Uiso   1.00
C1364  C     0.68011   0.52887   0.78080   0.00000  Uiso   1.00
C1365  C     0.96556   0.52927   0.78063   0.00000  Uiso   1.00
C1366  C     0.83428   0.42020   0.74875   0.00000  Uiso   1.00
C1367  C     0.86029   0.49938   0.64778   0.00000  Uiso   1.00
C1368  C     0.92531   0.45739   0.50595   0.00000  Uiso   1.00
C1369  C     0.87761   0.49531   0.58868   0.00000  Uiso   1.00
C1370  C     0.75124   0.53411   0.93799   0.00000  Uiso   1.00
C1371  C     0.75151   0.55694   0.98431   0.00000  Uiso   1.00
C1372  C     0.78871   0.54927   0.50464   0.00000  Uiso   1.00
H1373  H     0.78334   0.37627   0.82847   0.00000  Uiso   1.00
H1374  H     0.68979   0.55148   0.80603   0.00000  Uiso   1.00
H1375  H     0.95591   0.43660   0.98448   0.00000  Uiso   1.00
H1376  H     0.81234   0.52412   0.58892   0.00000  Uiso   1.00
H1377  H     0.85351   0.43910   0.88078   0.00000  Uiso   1.00
N1378  N     0.71426   0.50001   0.75002   0.00000  Uiso   1.00
N1379  N     0.95239   0.49998   0.75001   0.00000  Uiso   1.00
O1380  O     0.79512   0.56108   0.75001   0.00000  Uiso   1.00
O1381  O     0.87157   0.56107   0.75001   0.00000  Uiso   1.00
O1382  O     0.77613   0.50000   0.82681   0.00000  Uiso   1.00
O1383  O     0.85258   0.49999   0.82681   0.00000  Uiso   1.00
O1384  O     0.79510   0.43893   0.75000   0.00000  Uiso   1.00
O1385  O     0.87154   0.43892   0.75000   0.00000  Uiso   1.00
O1386  O     0.81409   0.50001   0.67319   0.00000  Uiso   1.00
O1387  O     0.89053   0.50000   0.67319   0.00000  Uiso   1.00
Zn1388 Zn    0.78229   0.50001   0.75000   0.00000  Uiso   1.00
Zn1389 Zn    0.88438   0.49999   0.75000   0.00000  Uiso   1.00
N1390  N     0.95527   0.46085   0.58093   0.00000  Uiso   1.00
H1391  H     0.97206   0.43172   0.56770   0.00000  Uiso   1.00
C1392  C     0.98941   0.49295   0.57754   0.00000  Uiso   1.00
H1393  H     0.68204   0.49396   0.53553   0.00000  Uiso   1.00
H1394  H     0.67613   0.48570   0.60472   0.00000  Uiso   1.00
H1395  H     0.97085   0.52417   0.59054   0.00000  Uiso   1.00
Cl1396 Cl    0.89315   0.37904   0.63999   0.00000  Uiso   1.00
N1397  N     0.76526   0.62895   0.83484   0.00000  Uiso   1.00
H1398  H     0.76522   0.63777   0.87274   0.00000  Uiso   1.00
C1399  C     0.71836   0.63579   0.83055   0.00000  Uiso   1.00
H1400  H     0.70757   0.33649   0.83578   0.00000  Uiso   1.00
H1401  H     0.69101   0.61901   0.86237   0.00000  Uiso   1.00
H1402  H     0.71882   0.62397   0.79035   0.00000  Uiso   1.00
N1403  N     0.97306   0.43533   0.69445   0.00000  Uiso   1.00
H1404  H     0.94642   0.44152   0.67908   0.00000  Uiso   1.00
C1405  C     0.97365   0.39389   0.71616   0.00000  Uiso   1.00
H1406  H     0.93722   0.38139   0.73024   0.00000  Uiso   1.00
H1407  H     0.98623   0.39436   0.75124   0.00000  Uiso   1.00
H1408  H     0.99761   0.37209   0.68388   0.00000  Uiso   1.00
N1409  N     0.73717   0.44028   0.68826   0.00000  Uiso   1.00
H1410  H     0.73338   0.41027   0.70251   0.00000  Uiso   1.00
C1411  C     0.75027   0.44178   0.63011   0.00000  Uiso   1.00
H1412  H     0.72452   0.42445   0.61639   0.00000  Uiso   1.00
H1413  H     0.78658   0.42665   0.61031   0.00000  Uiso   1.00
H1414  H     0.75125   0.47480   0.61733   0.00000  Uiso   1.00
N1415  N     0.92995   0.55761   0.81599   0.00000  Uiso   1.00
H1416  H     0.92350   0.55217   0.85629   0.00000  Uiso   1.00
C1417  C     0.93633   0.60164   0.80424   0.00000  Uiso   1.00
H1418  H     0.96627   0.61343   0.81558   0.00000  Uiso   1.00
H1419  H     0.90297   0.62004   0.82806   0.00000  Uiso   1.00
H1420  H     0.94373   0.60664   0.76064   0.00000  Uiso   1.00
Cl1421 Cl    0.93501   0.40920   0.89922   0.00000  Uiso   1.00
N1422  N     0.71675   0.54453   0.91354   0.00000  Uiso   1.00
H1423  H     0.70429   0.57535   0.91957   0.00000  Uiso   1.00
C1424  C     0.67812   0.51583   0.92425   0.00000  Uiso   1.00
H1425  H     0.98977   0.52315   0.89862   0.00000  Uiso   1.00
H1426  H     0.98765   0.51968   0.96723   0.00000  Uiso   1.00
H1427  H     0.69238   0.48276   0.91499   0.00000  Uiso   1.00
Cl1428 Cl    0.79878   0.59003   0.54620   0.00000  Uiso   1.00
N1429  N     0.71482   0.58830   0.51023   0.00000  Uiso   1.00
H1430  H     0.68050   0.58011   0.51431   0.00000  Uiso   1.00
C1431  C     0.72505   0.63118   0.99392   0.00000  Uiso   1.00
H1432  H     0.71581   0.65217   0.53066   0.00000  Uiso   1.00
H1433  H     0.70294   0.64155   0.96982   0.00000  Uiso   1.00
H1434  H     0.76358   0.63452   0.96931   0.00000  Uiso   1.00
N1435  N     0.88768   0.61812   0.65290   0.00000  Uiso   1.00
H1436  H     0.88126   0.62797   0.61897   0.00000  Uiso   1.00
C1437  C     0.93837   0.61139   0.64320   0.00000  Uiso   1.00
H1438  H     0.94380   0.59040   0.67365   0.00000  Uiso   1.00
H1439  H     0.95566   0.64168   0.64434   0.00000  Uiso   1.00
H1440  H     0.95616   0.59612   0.60261   0.00000  Uiso   1.00
C1441  C     0.16625   0.91320   0.74931   0.00000  Uiso   1.00
C1442  C     0.15397   0.84655   0.98527   0.00000  Uiso   1.00
C1443  C     0.15421   0.82475   0.93796   0.00000  Uiso   1.00
C1444  C     0.18672   0.83195   0.50993   0.00000  Uiso   1.00
C1445  C     0.22430   0.80191   0.98259   0.00000  Uiso   1.00
C1446  C     0.22471   0.78182   0.93460   0.00000  Uiso   1.00
C1447  C     0.18795   0.79109   0.91523   0.00000  Uiso   1.00
C1448  C     0.17922   0.84232   0.56384   0.00000  Uiso   1.00
C1449  C     0.25334   0.80553   0.55816   0.00000  Uiso   1.00
C1450  C     0.12296   0.83851   0.91154   0.00000  Uiso   1.00
C1451  C     0.19533   0.97629   0.70056   0.00000  Uiso   1.00
C1452  C     0.13981   0.83322   0.85225   0.00000  Uiso   1.00
C1453  C     0.19545   0.68660   0.70013   0.00000  Uiso   1.00
C1454  C     0.16889   0.70948   0.74766   0.00000  Uiso   1.00
C1455  C     0.13900   0.69070   0.79337   0.00000  Uiso   1.00
C1456  C     0.13530   0.98111   0.79254   0.00000  Uiso   1.00
C1457  C     0.16550   0.95746   0.74736   0.00000  Uiso   1.00
C1458  C     0.31956   0.80257   0.72163   0.00000  Uiso   1.00
C1459  C     0.03481   0.80377   0.71990   0.00000  Uiso   1.00
C1460  C     0.01344   0.86221   0.78080   0.00000  Uiso   1.00
C1461  C     0.29889   0.86260   0.78063   0.00000  Uiso   1.00
C1462  C     0.16761   0.75354   0.74875   0.00000  Uiso   1.00
C1463  C     0.19363   0.83271   0.64778   0.00000  Uiso   1.00
C1464  C     0.25864   0.79072   0.50595   0.00000  Uiso   1.00
C1465  C     0.21094   0.82864   0.58868   0.00000  Uiso   1.00
C1466  C     0.08458   0.86745   0.93799   0.00000  Uiso   1.00
C1467  C     0.08485   0.89027   0.98431   0.00000  Uiso   1.00
C1468  C     0.12204   0.88260   0.50464   0.00000  Uiso   1.00
H1469  H     0.11668   0.70961   0.82847   0.00000  Uiso   1.00
H1470  H     0.02312   0.88481   0.80603   0.00000  Uiso   1.00
H1471  H     0.28924   0.76993   0.98448   0.00000  Uiso   1.00
H1472  H     0.14567   0.85745   0.58892   0.00000  Uiso   1.00
H1473  H     0.18685   0.77244   0.88078   0.00000  Uiso   1.00
N1474  N     0.04760   0.83334   0.75002   0.00000  Uiso   1.00
N1475  N     0.28573   0.83331   0.75001   0.00000  Uiso   1.00
O1476  O     0.12846   0.89442   0.75001   0.00000  Uiso   1.00
O1477  O     0.20490   0.89441   0.75001   0.00000  Uiso   1.00
O1478  O     0.10947   0.83333   0.82681   0.00000  Uiso   1.00
O1479  O     0.18591   0.83332   0.82681   0.00000  Uiso   1.00
O1480  O     0.12843   0.77226   0.75000   0.00000  Uiso   1.00
O1481  O     0.20488   0.77225   0.75000   0.00000  Uiso   1.00
O1482  O     0.14742   0.83335   0.67319   0.00000  Uiso   1.00
O1483  O     0.22387   0.83334   0.67319   0.00000  Uiso   1.00
Zn1484 Zn    0.11562   0.83334   0.75000   0.00000  Uiso   1.00
Zn1485 Zn    0.21771   0.83333   0.75000   0.00000  Uiso   1.00
N1486  N     0.28861   0.79418   0.58093   0.00000  Uiso   1.00
H1487  H     0.30539   0.76505   0.56770   0.00000  Uiso   1.00
C1488  C     0.32275   0.82629   0.57754   0.00000  Uiso   1.00
H1489  H     0.01537   0.82729   0.53553   0.00000  Uiso   1.00
H1490  H     0.00946   0.81903   0.60472   0.00000  Uiso   1.00
H1491  H     0.30418   0.85751   0.59054   0.00000  Uiso   1.00
Cl1492 Cl    0.22648   0.71237   0.63999   0.00000  Uiso   1.00
N1493  N     0.09859   0.96229   0.83484   0.00000  Uiso   1.00
H1494  H     0.09855   0.97110   0.87274   0.00000  Uiso   1.00
C1495  C     0.05170   0.96912   0.83055   0.00000  Uiso   1.00
H1496  H     0.04090   0.66983   0.83578   0.00000  Uiso   1.00
H1497  H     0.02434   0.95235   0.86237   0.00000  Uiso   1.00
H1498  H     0.05216   0.95730   0.79035   0.00000  Uiso   1.00
N1499  N     0.30639   0.76866   0.69445   0.00000  Uiso   1.00
H1500  H     0.27976   0.77486   0.67908   0.00000  Uiso   1.00
C1501  C     0.30698   0.72723   0.71616   0.00000  Uiso   1.00
H1502  H     0.27056   0.71473   0.73024   0.00000  Uiso   1.00
H1503  H     0.31956   0.72770   0.75124   0.00000  Uiso   1.00
H1504  H     0.33094   0.70542   0.68388   0.00000  Uiso   1.00
N1505  N     0.07050   0.77361   0.68826   0.00000  Uiso   1.00
H1506  H     0.06672   0.74360   0.70251   0.00000  Uiso   1.00
C1507  C     0.08360   0.77511   0.63011   0.00000  Uiso   1.00
H1508  H     0.05785   0.75779   0.61639   0.00000  Uiso   1.00
H1509  H     0.11991   0.75999   0.61031   0.00000  Uiso   1.00
H1510  H     0.08458   0.80813   0.61733   0.00000  Uiso   1.00
N1511  N     0.26329   0.89094   0.81599   0.00000  Uiso   1.00
H1512  H     0.25683   0.88550   0.85629   0.00000  Uiso   1.00
C1513  C     0.26966   0.93497   0.80424   0.00000  Uiso   1.00
H1514  H     0.29960   0.94676   0.81558   0.00000  Uiso   1.00
H1515  H     0.23631   0.95337   0.82806   0.00000  Uiso   1.00
H1516  H     0.27707   0.93998   0.76064   0.00000  Uiso   1.00
Cl1517 Cl    0.26835   0.74253   0.89922   0.00000  Uiso   1.00
N1518  N     0.05008   0.87786   0.91354   0.00000  Uiso   1.00
H1519  H     0.03762   0.90869   0.91957   0.00000  Uiso   1.00
C1520  C     0.01146   0.84916   0.92425   0.00000  Uiso   1.00
H1521  H     0.32310   0.85648   0.89862   0.00000  Uiso   1.00
H1522  H     0.32099   0.85301   0.96723   0.00000  Uiso   1.00
H1523  H     0.02571   0.81609   0.91499   0.00000  Uiso   1.00
Cl1524 Cl    0.13211   0.92336   0.54620   0.00000  Uiso   1.00
N1525  N     0.04815   0.92163   0.51023   0.00000  Uiso   1.00
H1526  H     0.01384   0.91344   0.51431   0.00000  Uiso   1.00
C1527  C     0.05838   0.96451   0.99392   0.00000  Uiso   1.00
H1528  H     0.04914   0.98550   0.53066   0.00000  Uiso   1.00
H1529  H     0.03627   0.97488   0.96982   0.00000  Uiso   1.00
H1530  H     0.09691   0.96785   0.96931   0.00000  Uiso   1.00
N1531  N     0.22101   0.95146   0.65290   0.00000  Uiso   1.00
H1532  H     0.21459   0.96130   0.61897   0.00000  Uiso   1.00
C1533  C     0.27170   0.94473   0.64320   0.00000  Uiso   1.00
H1534  H     0.27713   0.92373   0.67365   0.00000  Uiso   1.00
H1535  H     0.28899   0.97501   0.64434   0.00000  Uiso   1.00
H1536  H     0.28949   0.92945   0.60261   0.00000  Uiso   1.00
C1537  C     0.49958   0.91320   0.74931   0.00000  Uiso   1.00
C1538  C     0.48730   0.84655   0.98527   0.00000  Uiso   1.00
C1539  C     0.48754   0.82475   0.93796   0.00000  Uiso   1.00
C1540  C     0.52005   0.83195   0.50993   0.00000  Uiso   1.00
C1541  C     0.55764   0.80191   0.98259   0.00000  Uiso   1.00
C1542  C     0.55805   0.78182   0.93460   0.00000  Uiso   1.00
C1543  C     0.52129   0.79109   0.91523   0.00000  Uiso   1.00
C1544  C     0.51256   0.84232   0.56384   0.00000  Uiso   1.00
C1545  C     0.58667   0.80553   0.55816   0.00000  Uiso   1.00
C1546  C     0.45629   0.83851   0.91154   0.00000  Uiso   1.00
C1547  C     0.52866   0.97629   0.70056   0.00000  Uiso   1.00
C1548  C     0.47314   0.83322   0.85225   0.00000  Uiso   1.00
C1549  C     0.52878   0.68660   0.70013   0.00000  Uiso   1.00
C1550  C     0.50223   0.70948   0.74766   0.00000  Uiso   1.00
C1551  C     0.47234   0.69070   0.79337   0.00000  Uiso   1.00
C1552  C     0.46863   0.98111   0.79254   0.00000  Uiso   1.00
C1553  C     0.49883   0.95746   0.74736   0.00000  Uiso   1.00
C1554  C     0.65289   0.80257   0.72163   0.00000  Uiso   1.00
C1555  C     0.36814   0.80377   0.71990   0.00000  Uiso   1.00
C1556  C     0.34678   0.86221   0.78080   0.00000  Uiso   1.00
C1557  C     0.63222   0.86260   0.78063   0.00000  Uiso   1.00
C1558  C     0.50094   0.75354   0.74875   0.00000  Uiso   1.00
C1559  C     0.52696   0.83271   0.64778   0.00000  Uiso   1.00
C1560  C     0.59198   0.79072   0.50595   0.00000  Uiso   1.00
C1561  C     0.54428   0.82864   0.58868   0.00000  Uiso   1.00
C1562  C     0.41791   0.86745   0.93799   0.00000  Uiso   1.00
C1563  C     0.41818   0.89027   0.98431   0.00000  Uiso   1.00
C1564  C     0.45538   0.88260   0.50464   0.00000  Uiso   1.00
H1565  H     0.45001   0.70961   0.82847   0.00000  Uiso   1.00
H1566  H     0.35645   0.88481   0.80603   0.00000  Uiso   1.00
H1567  H     0.62257   0.76993   0.98448   0.00000  Uiso   1.00
H1568  H     0.47900   0.85745   0.58892   0.00000  Uiso   1.00
H1569  H     0.52018   0.77244   0.88078   0.00000  Uiso   1.00
N1570  N     0.38093   0.83334   0.75002   0.00000  Uiso   1.00
N1571  N     0.61906   0.83331   0.75001   0.00000  Uiso   1.00
O1572  O     0.46179   0.89442   0.75001   0.00000  Uiso   1.00
O1573  O     0.53823   0.89441   0.75001   0.00000  Uiso   1.00
O1574  O     0.44280   0.83333   0.82681   0.00000  Uiso   1.00
O1575  O     0.51924   0.83332   0.82681   0.00000  Uiso   1.00
O1576  O     0.46177   0.77226   0.75000   0.00000  Uiso   1.00
O1577  O     0.53821   0.77225   0.75000   0.00000  Uiso   1.00
O1578  O     0.48076   0.83335   0.67319   0.00000  Uiso   1.00
O1579  O     0.55720   0.83334   0.67319   0.00000  Uiso   1.00
Zn1580 Zn    0.44896   0.83334   0.75000   0.00000  Uiso   1.00
Zn1581 Zn    0.55104   0.83333   0.75000   0.00000  Uiso   1.00
N1582  N     0.62194   0.79418   0.58093   0.00000  Uiso   1.00
H1583  H     0.63873   0.76505   0.56770   0.00000  Uiso   1.00
C1584  C     0.65608   0.82629   0.57754   0.00000  Uiso   1.00
H1585  H     0.34871   0.82729   0.53553   0.00000  Uiso   1.00
H1586  H     0.34280   0.81903   0.60472   0.00000  Uiso   1.00
H1587  H     0.63752   0.85751   0.59054   0.00000  Uiso   1.00
Cl1588 Cl    0.55982   0.71237   0.63999   0.00000  Uiso   1.00
N1589  N     0.43193   0.96229   0.83484   0.00000  Uiso   1.00
H1590  H     0.43188   0.97110   0.87274   0.00000  Uiso   1.00
C1591  C     0.38503   0.96912   0.83055   0.00000  Uiso   1.00
H1592  H     0.37424   0.66983   0.83578   0.00000  Uiso   1.00
H1593  H     0.35767   0.95235   0.86237   0.00000  Uiso   1.00
H1594  H     0.38549   0.95730   0.79035   0.00000  Uiso   1.00
N1595  N     0.63973   0.76866   0.69445   0.00000  Uiso   1.00
H1596  H     0.61309   0.77486   0.67908   0.00000  Uiso   1.00
C1597  C     0.64032   0.72723   0.71616   0.00000  Uiso   1.00
H1598  H     0.60389   0.71473   0.73024   0.00000  Uiso   1.00
H1599  H     0.65289   0.72770   0.75124   0.00000  Uiso   1.00
H1600  H     0.66427   0.70542   0.68388   0.00000  Uiso   1.00
N1601  N     0.40383   0.77361   0.68826   0.00000  Uiso   1.00
H1602  H     0.40005   0.74360   0.70251   0.00000  Uiso   1.00
C1603  C     0.41694   0.77511   0.63011   0.00000  Uiso   1.00
H1604  H     0.39119   0.75779   0.61639   0.00000  Uiso   1.00
H1605  H     0.45325   0.75999   0.61031   0.00000  Uiso   1.00
H1606  H     0.41792   0.80813   0.61733   0.00000  Uiso   1.00
N1607  N     0.59662   0.89094   0.81599   0.00000  Uiso   1.00
H1608  H     0.59017   0.88550   0.85629   0.00000  Uiso   1.00
C1609  C     0.60299   0.93497   0.80424   0.00000  Uiso   1.00
H1610  H     0.63293   0.94676   0.81558   0.00000  Uiso   1.00
H1611  H     0.56964   0.95337   0.82806   0.00000  Uiso   1.00
H1612  H     0.61040   0.93998   0.76064   0.00000  Uiso   1.00
Cl1613 Cl    0.60168   0.74253   0.89922   0.00000  Uiso   1.00
N1614  N     0.38342   0.87786   0.91354   0.00000  Uiso   1.00
H1615  H     0.37096   0.90869   0.91957   0.00000  Uiso   1.00
C1616  C     0.34479   0.84916   0.92425   0.00000  Uiso   1.00
H1617  H     0.65643   0.85648   0.89862   0.00000  Uiso   1.00
H1618  H     0.65432   0.85301   0.96723   0.00000  Uiso   1.00
H1619  H     0.35905   0.81609   0.91499   0.00000  Uiso   1.00
Cl1620 Cl    0.46544   0.92336   0.54620   0.00000  Uiso   1.00
N1621  N     0.38149   0.92163   0.51023   0.00000  Uiso   1.00
H1622  H     0.34717   0.91344   0.51431   0.00000  Uiso   1.00
C1623  C     0.39172   0.96451   0.99392   0.00000  Uiso   1.00
H1624  H     0.38247   0.98550   0.53066   0.00000  Uiso   1.00
H1625  H     0.36960   0.97488   0.96982   0.00000  Uiso   1.00
H1626  H     0.43025   0.96785   0.96931   0.00000  Uiso   1.00
N1627  N     0.55435   0.95146   0.65290   0.00000  Uiso   1.00
H1628  H     0.54792   0.96130   0.61897   0.00000  Uiso   1.00
C1629  C     0.60504   0.94473   0.64320   0.00000  Uiso   1.00
H1630  H     0.61046   0.92373   0.67365   0.00000  Uiso   1.00
H1631  H     0.62233   0.97501   0.64434   0.00000  Uiso   1.00
H1632  H     0.62283   0.92945   0.60261   0.00000  Uiso   1.00
C1633  C     0.83292   0.91320   0.74931   0.00000  Uiso   1.00
C1634  C     0.82064   0.84655   0.98527   0.00000  Uiso   1.00
C1635  C     0.82087   0.82475   0.93796   0.00000  Uiso   1.00
C1636  C     0.85338   0.83195   0.50993   0.00000  Uiso   1.00
C1637  C     0.89097   0.80191   0.98259   0.00000  Uiso   1.00
C1638  C     0.89138   0.78182   0.93460   0.00000  Uiso   1.00
C1639  C     0.85462   0.79109   0.91523   0.00000  Uiso   1.00
C1640  C     0.84589   0.84232   0.56384   0.00000  Uiso   1.00
C1641  C     0.92000   0.80553   0.55816   0.00000  Uiso   1.00
C1642  C     0.78962   0.83851   0.91154   0.00000  Uiso   1.00
C1643  C     0.86200   0.97629   0.70056   0.00000  Uiso   1.00
C1644  C     0.80648   0.83322   0.85225   0.00000  Uiso   1.00
C1645  C     0.86211   0.68660   0.70013   0.00000  Uiso   1.00
C1646  C     0.83556   0.70948   0.74766   0.00000  Uiso   1.00
C1647  C     0.80567   0.69070   0.79337   0.00000  Uiso   1.00
C1648  C     0.80197   0.98111   0.79254   0.00000  Uiso   1.00
C1649  C     0.83217   0.95746   0.74736   0.00000  Uiso   1.00
C1650  C     0.98623   0.80257   0.72163   0.00000  Uiso   1.00
C1651  C     0.70147   0.80377   0.71990   0.00000  Uiso   1.00
C1652  C     0.68011   0.86221   0.78080   0.00000  Uiso   1.00
C1653  C     0.96556   0.86260   0.78063   0.00000  Uiso   1.00
C1654  C     0.83428   0.75354   0.74875   0.00000  Uiso   1.00
C1655  C     0.86029   0.83271   0.64778   0.00000  Uiso   1.00
C1656  C     0.92531   0.79072   0.50595   0.00000  Uiso   1.00
C1657  C     0.87761   0.82864   0.58868   0.00000  Uiso   1.00
C1658  C     0.75124   0.86745   0.93799   0.00000  Uiso   1.00
C1659  C     0.75151   0.89027   0.98431   0.00000  Uiso   1.00
C1660  C     0.78871   0.88260   0.50464   0.00000  Uiso   1.00
H1661  H     0.78334   0.70961   0.82847   0.00000  Uiso   1.00
H1662  H     0.68979   0.88481   0.80603   0.00000  Uiso   1.00
H1663  H     0.95591   0.76993   0.98448   0.00000  Uiso   1.00
H1664  H     0.81234   0.85745   0.58892   0.00000  Uiso   1.00
H1665  H     0.85351   0.77244   0.88078   0.00000  Uiso   1.00
N1666  N     0.71426   0.83334   0.75002   0.00000  Uiso   1.00
N1667  N     0.95239   0.83331   0.75001   0.00000  Uiso   1.00
O1668  O     0.79512   0.89442   0.75001   0.00000  Uiso   1.00
O1669  O     0.87157   0.89441   0.75001   0.00000  Uiso   1.00
O1670  O     0.77613   0.83333   0.82681   0.00000  Uiso   1.00
O1671  O     0.85258   0.83332   0.82681   0.00000  Uiso   1.00
O1672  O     0.79510   0.77226   0.75000   0.00000  Uiso   1.00
O1673  O     0.87154   0.77225   0.75000   0.00000  Uiso   1.00
O1674  O     0.81409   0.83335   0.67319   0.00000  Uiso   1.00
O1675  O     0.89053   0.83334   0.67319   0.00000  Uiso   1.00
Zn1676 Zn    0.78229   0.83334   0.75000   0.00000  Uiso   1.00
Zn1677 Zn    0.88438   0.83333   0.75000   0.00000  Uiso   1.00
N1678  N     0.95527   0.79418   0.58093   0.00000  Uiso   1.00
H1679  H     0.97206   0.76505   0.56770   0.00000  Uiso   1.00
C1680  C     0.98941   0.82629   0.57754   0.00000  Uiso   1.00
H1681  H     0.68204   0.82729   0.53553   0.00000  Uiso   1.00
H1682  H     0.67613   0.81903   0.60472   0.00000  Uiso   1.00
H1683  H     0.97085   0.85751   0.59054   0.00000  Uiso   1.00
Cl1684 Cl    0.89315   0.71237   0.63999   0.00000  Uiso   1.00
N1685  N     0.76526   0.96229   0.83484   0.00000  Uiso   1.00
H1686  H     0.76522   0.97110   0.87274   0.00000  Uiso   1.00
C1687  C     0.71836   0.96912   0.83055   0.00000  Uiso   1.00
H1688  H     0.70757   0.66983   0.83578   0.00000  Uiso   1.00
H1689  H     0.69101   0.95235   0.86237   0.00000  Uiso   1.00
H1690  H     0.71882   0.95730   0.79035   0.00000  Uiso   1.00
N1691  N     0.97306   0.76866   0.69445   0.00000  Uiso   1.00
H1692  H     0.94642   0.77486   0.67908   0.00000  Uiso   1.00
C1693  C     0.97365   0.72723   0.71616   0.00000  Uiso   1.00
H1694  H     0.93722   0.71473   0.73024   0.00000  Uiso   1.00
H1695  H     0.98623   0.72770   0.75124   0.00000  Uiso   1.00
H1696  H     0.99761   0.70542   0.68388   0.00000  Uiso   1.00
N1697  N     0.73717   0.77361   0.68826   0.00000  Uiso   1.00
H1698  H     0.73338   0.74360   0.70251   0.00000  Uiso   1.00
C1699  C     0.75027   0.77511   0.63011   0.00000  Uiso   1.00
H1700  H     0.72452   0.75779   0.61639   0.00000  Uiso   1.00
H1701  H     0.78658   0.75999   0.61031   0.00000  Uiso   1.00
H1702  H     0.75125   0.80813   0.61733   0.00000  Uiso   1.00
N1703  N     0.92995   0.89094   0.81599   0.00000  Uiso   1.00
H1704  H     0.92350   0.88550   0.85629   0.00000  Uiso   1.00
C1705  C     0.93633   0.93497   0.80424   0.00000  Uiso   1.00
H1706  H     0.96627   0.94676   0.81558   0.00000  Uiso   1.00
H1707  H     0.90297   0.95337   0.82806   0.00000  Uiso   1.00
H1708  H     0.94373   0.93998   0.76064   0.00000  Uiso   1.00
Cl1709 Cl    0.93501   0.74253   0.89922   0.00000  Uiso   1.00
N1710  N     0.71675   0.87786   0.91354   0.00000  Uiso   1.00
H1711  H     0.70429   0.90869   0.91957   0.00000  Uiso   1.00
C1712  C     0.67812   0.84916   0.92425   0.00000  Uiso   1.00
H1713  H     0.98977   0.85648   0.89862   0.00000  Uiso   1.00
H1714  H     0.98765   0.85301   0.96723   0.00000  Uiso   1.00
H1715  H     0.69238   0.81609   0.91499   0.00000  Uiso   1.00
Cl1716 Cl    0.79878   0.92336   0.54620   0.00000  Uiso   1.00
N1717  N     0.71482   0.92163   0.51023   0.00000  Uiso   1.00
H1718  H     0.68050   0.91344   0.51431   0.00000  Uiso   1.00
C1719  C     0.72505   0.96451   0.99392   0.00000  Uiso   1.00
H1720  H     0.71581   0.98550   0.53066   0.00000  Uiso   1.00
H1721  H     0.70294   0.97488   0.96982   0.00000  Uiso   1.00
H1722  H     0.76358   0.96785   0.96931   0.00000  Uiso   1.00
N1723  N     0.88768   0.95146   0.65290   0.00000  Uiso   1.00
H1724  H     0.88126   0.96130   0.61897   0.00000  Uiso   1.00
C1725  C     0.93837   0.94473   0.64320   0.00000  Uiso   1.00
H1726  H     0.94380   0.92373   0.67365   0.00000  Uiso   1.00
H1727  H     0.95566   0.97501   0.64434   0.00000  Uiso   1.00
H1728  H     0.95616   0.92945   0.60261   0.00000  Uiso   1.00
loop_
_geom_bond_atom_site_label_1
_geom_bond_atom_site_label_2
_geom_bond_distance
_geom_bond_site_symmetry_2
_ccdc_geom_bond_type
C1     O37     1.286   .     A
C1     C17     1.410   .     S
C1     O36     1.284   .     A
C2     C3      1.410   .     A
C2     C868    1.420   .     S
C2     C892    1.430   .     S
C3     C7      1.413   .     A
C3     C10     1.408   .     A
C4     C8      1.389   .     A
C4     C866    1.420   1_554 S
C4     C869    1.422   1_554 S
C5     C6      1.400   .     A
C5     C868    1.422   .     S
C5     C888    1.406   .     S
C6     Cl77    1.765   .     S
C6     C7      1.386   .     A
C7     H33     1.084   .     S
C8     C25     1.389   .     A
C8     H32     1.077   .     S
C9     N46     1.421   .     S
C9     C25     1.409   .     A
C9     C24     1.398   .     A
C10    C26     1.409   .     A
C10    C12     1.469   .     S
C11    C17     1.405   .     A
C11    N91     1.425   .     S
C11    C301    1.389   .     S
C12    O39     1.299   .     A
C12    O38     1.299   .     A
C13    C14     1.398   .     A
C13    Cl52    1.768   .     S
C13    C587    1.389   1_545 S
C14    C22     1.401   .     S
C14    C15     1.385   .     A
C15    H29     1.086   .     S
C15    C592    1.374   1_545 S
C16    N53     1.420   .     S
C16    C17     1.400   .     A
C16    C303    1.374   .     S
C18    N35     1.381   .     A
C18    N59     1.420   .     S
C18    C115    1.431   .     S
C19    N34     1.363   .     A
C19    N65     1.423   .     S
C19    C210    1.431   1_455 S
C20    H30     1.080   .     S
C20    N34     1.366   .     A
C20    C213    1.426   1_455 S
C21    N71     1.419   .     S
C21    N35     1.371   .     A
C21    C116    1.426   .     S
C22    O41     1.284   .     A
C22    O40     1.282   .     A
C23    O42     1.301   .     A
C23    O43     1.296   .     A
C23    C25     1.461   .     S
C24    C869    1.406   1_554 S
C24    H895    1.082   1_554 S
C26    C27     1.408   .     A
C26    N78     1.424   .     S
C27    C892    1.405   .     S
C27    N949    1.426   .     S
C28    Cl84    1.777   .     S
C28    C866    1.430   1_554 S
C28    C891    1.405   1_554 S
H31    C888    1.082   .     S
N34    Zn44    2.023   .     S
N35    Zn45    2.023   .     S
O36    Zn44    1.993   .     S
O37    Zn45    1.969   .     S
O38    Zn44    1.968   .     S
O39    Zn45    1.912   .     S
O40    Zn44    1.969   .     S
O41    Zn45    1.993   .     S
O42    Zn44    1.912   .     S
O43    Zn45    1.968   .     S
N46    C48     1.445   .     S
N46    H47     1.032   .     S
C48    H51     1.108   .     S
C48    H145    1.109   .     S
C48    H146    1.105   .     S
H49    C240    1.109   1_455 S
H50    C240    1.105   1_455 S
N53    H54     1.031   .     S
N53    C55     1.449   .     S
C55    H57     1.106   .     S
C55    H58     1.111   .     S
C55    H344    1.112   .     S
H56    C631    1.112   1_545 S
N59    H60     1.024   .     S
N59    C61     1.452   .     S
C61    H63     1.112   .     S
C61    H64     1.109   .     S
C61    H62     1.106   .     S
N65    C67     1.446   .     S
N65    H66     1.030   .     S
C67    H68     1.110   .     S
C67    H69     1.110   .     S
C67    H70     1.109   .     S
N71    C73     1.446   .     S
N71    H72     1.031   .     S
C73    H75     1.110   .     S
C73    H74     1.106   .     S
C73    H76     1.109   .     S
N78    C80     1.444   .     S
N78    H79     1.027   .     S
C80    H83     1.111   .     S
C80    H273    1.109   1_455 S
C80    H274    1.108   1_455 S
H81    C176    1.109   .     S
H82    C176    1.108   .     S
N85    H86     1.031   .     S
N85    C891    1.426   1_554 S
N85    C951    1.450   1_554 S
C87    H89     1.111   .     S
C87    H90     1.112   .     S
C87    N949    1.450   .     S
C87    H952    1.110   .     S
H88    C951    1.110   1_554 S
N91    H92     1.031   .     S
N91    C93     1.447   .     S
C93    H94     1.108   .     S
C93    H95     1.111   .     S
C93    H96     1.107   .     S
C97    O133    1.286   .     A
C97    C113    1.410   .     S
C97    O132    1.284   .     A
C98    C99     1.410   .     A
C98    C964    1.420   .     S
C98    C988    1.430   .     S
C99    C103    1.413   .     A
C99    C106    1.408   .     A
C100   C104    1.389   .     A
C100   C962    1.420   1_554 S
C100   C965    1.422   1_554 S
C101   C102    1.400   .     A
C101   C964    1.422   .     S
C101   C984    1.406   .     S
C102   Cl173   1.765   .     S
C102   C103    1.386   .     A
C103   H129    1.084   .     S
C104   C121    1.389   .     A
C104   H128    1.077   .     S
C105   N142    1.421   .     S
C105   C121    1.409   .     A
C105   C120    1.398   .     A
C106   C122    1.409   .     A
C106   C108    1.469   .     S
C107   C113    1.405   .     A
C107   N187    1.425   .     S
C107   C397    1.389   .     S
C108   O135    1.299   .     A
C108   O134    1.299   .     A
C109   C110    1.398   .     A
C109   Cl148   1.768   .     S
C109   C683    1.389   1_545 S
C110   C118    1.401   .     S
C110   C111    1.385   .     A
C111   H125    1.086   .     S
C111   C688    1.374   1_545 S
C112   N149    1.420   .     S
C112   C113    1.400   .     A
C112   C399    1.374   .     S
C114   N131    1.381   .     A
C114   N155    1.420   .     S
C114   C211    1.431   .     S
C115   N130    1.363   .     A
C115   N161    1.423   .     S
C116   H126    1.080   .     S
C116   N130    1.366   .     A
C117   N167    1.419   .     S
C117   N131    1.371   .     A
C117   C212    1.426   .     S
C118   O137    1.284   .     A
C118   O136    1.282   .     A
C119   O138    1.301   .     A
C119   O139    1.296   .     A
C119   C121    1.461   .     S
C120   C965    1.406   1_554 S
C120   H991    1.082   1_554 S
C122   C123    1.408   .     A
C122   N174    1.424   .     S
C123   C988    1.405   .     S
C123   N1045   1.426   .     S
C124   Cl180   1.777   .     S
C124   C962    1.430   1_554 S
C124   C987    1.405   1_554 S
H127   C984    1.082   .     S
N130   Zn140   2.023   .     S
N131   Zn141   2.023   .     S
O132   Zn140   1.993   .     S
O133   Zn141   1.969   .     S
O134   Zn140   1.968   .     S
O135   Zn141   1.912   .     S
O136   Zn140   1.969   .     S
O137   Zn141   1.993   .     S
O138   Zn140   1.912   .     S
O139   Zn141   1.968   .     S
N142   C144    1.445   .     S
N142   H143    1.032   .     S
C144   H147    1.108   .     S
C144   H241    1.109   .     S
C144   H242    1.105   .     S
N149   H150    1.031   .     S
N149   C151    1.449   .     S
C151   H153    1.106   .     S
C151   H154    1.111   .     S
C151   H440    1.112   .     S
H152   C727    1.112   1_545 S
N155   H156    1.024   .     S
N155   C157    1.452   .     S
C157   H159    1.112   .     S
C157   H160    1.109   .     S
C157   H158    1.106   .     S
N161   C163    1.446   .     S
N161   H162    1.030   .     S
C163   H164    1.110   .     S
C163   H165    1.110   .     S
C163   H166    1.109   .     S
N167   C169    1.446   .     S
N167   H168    1.031   .     S
C169   H171    1.110   .     S
C169   H170    1.106   .     S
C169   H172    1.109   .     S
N174   C176    1.444   .     S
N174   H175    1.027   .     S
C176   H179    1.111   .     S
H177   C272    1.109   .     S
H178   C272    1.108   .     S
N181   H182    1.031   .     S
N181   C987    1.426   1_554 S
N181   C1047   1.450   1_554 S
C183   H185    1.111   .     S
C183   H186    1.112   .     S
C183   N1045   1.450   .     S
C183   H1048   1.110   .     S
H184   C1047   1.110   1_554 S
N187   H188    1.031   .     S
N187   C189    1.447   .     S
C189   H190    1.108   .     S
C189   H191    1.111   .     S
C189   H192    1.107   .     S
C193   O229    1.286   .     A
C193   C209    1.410   .     S
C193   O228    1.284   .     A
C194   C195    1.410   .     A
C194   C1060   1.420   .     S
C194   C1084   1.430   .     S
C195   C199    1.413   .     A
C195   C202    1.408   .     A
C196   C200    1.389   .     A
C196   C1058   1.420   1_554 S
C196   C1061   1.422   1_554 S
C197   C198    1.400   .     A
C197   C1060   1.422   .     S
C197   C1080   1.406   .     S
C198   Cl269   1.765   .     S
C198   C199    1.386   .     A
C199   H225    1.084   .     S
C200   C217    1.389   .     A
C200   H224    1.077   .     S
C201   N238    1.421   .     S
C201   C217    1.409   .     A
C201   C216    1.398   .     A
C202   C218    1.409   .     A
C202   C204    1.469   .     S
C203   C209    1.405   .     A
C203   N283    1.425   .     S
C203   C493    1.389   .     S
C204   O231    1.299   .     A
C204   O230    1.299   .     A
C205   C206    1.398   .     A
C205   Cl244   1.768   .     S
C205   C779    1.389   1_545 S
C206   C214    1.401   .     S
C206   C207    1.385   .     A
C207   H221    1.086   .     S
C207   C784    1.374   1_545 S
C208   N245    1.420   .     S
C208   C209    1.400   .     A
C208   C495    1.374   .     S
C210   N227    1.381   .     A
C210   N251    1.420   .     S
C210   C19     1.431   1_655 S
C211   N226    1.363   .     A
C211   N257    1.423   .     S
C212   H222    1.080   .     S
C212   N226    1.366   .     A
C213   N263    1.419   .     S
C213   N227    1.371   .     A
C213   C20     1.426   1_655 S
C214   O233    1.284   .     A
C214   O232    1.282   .     A
C215   O234    1.301   .     A
C215   O235    1.296   .     A
C215   C217    1.461   .     S
C216   C1061   1.406   1_554 S
C216   H1087   1.082   1_554 S
C218   C219    1.408   .     A
C218   N270    1.424   .     S
C219   C1084   1.405   .     S
C219   N1141   1.426   .     S
C220   Cl276   1.777   .     S
C220   C1058   1.430   1_554 S
C220   C1083   1.405   1_554 S
H223   C1080   1.082   .     S
N226   Zn236   2.023   .     S
N227   Zn237   2.023   .     S
O228   Zn236   1.993   .     S
O229   Zn237   1.969   .     S
O230   Zn236   1.968   .     S
O231   Zn237   1.912   .     S
O232   Zn236   1.969   .     S
O233   Zn237   1.993   .     S
O234   Zn236   1.912   .     S
O235   Zn237   1.968   .     S
N238   C240    1.445   .     S
N238   H239    1.032   .     S
C240   H243    1.108   .     S
C240   H49     1.109   1_655 S
C240   H50     1.105   1_655 S
N245   H246    1.031   .     S
N245   C247    1.449   .     S
C247   H249    1.106   .     S
C247   H250    1.111   .     S
C247   H536    1.112   .     S
H248   C823    1.112   1_545 S
N251   H252    1.024   .     S
N251   C253    1.452   .     S
C253   H255    1.112   .     S
C253   H256    1.109   .     S
C253   H254    1.106   .     S
N257   C259    1.446   .     S
N257   H258    1.030   .     S
C259   H260    1.110   .     S
C259   H261    1.110   .     S
C259   H262    1.109   .     S
N263   C265    1.446   .     S
N263   H264    1.031   .     S
C265   H267    1.110   .     S
C265   H266    1.106   .     S
C265   H268    1.109   .     S
N270   C272    1.444   .     S
N270   H271    1.027   .     S
C272   H275    1.111   .     S
H273   C80     1.109   1_655 S
H274   C80     1.108   1_655 S
N277   H278    1.031   .     S
N277   C1083   1.426   1_554 S
N277   C1143   1.450   1_554 S
C279   H281    1.111   .     S
C279   H282    1.112   .     S
C279   N1141   1.450   .     S
C279   H1144   1.110   .     S
H280   C1143   1.110   1_554 S
N283   H284    1.031   .     S
N283   C285    1.447   .     S
C285   H286    1.108   .     S
C285   H287    1.111   .     S
C285   H288    1.107   .     S
C289   O325    1.286   .     A
C289   C305    1.410   .     S
C289   O324    1.284   .     A
C290   C291    1.410   .     A
C290   C1156   1.420   .     S
C290   C1180   1.430   .     S
C291   C295    1.413   .     A
C291   C298    1.408   .     A
C292   C296    1.389   .     A
C292   C1154   1.420   1_554 S
C292   C1157   1.422   1_554 S
C293   C294    1.400   .     A
C293   C1156   1.422   .     S
C293   C1176   1.406   .     S
C294   Cl365   1.765   .     S
C294   C295    1.386   .     A
C295   H321    1.084   .     S
C296   C313    1.389   .     A
C296   H320    1.077   .     S
C297   N334    1.421   .     S
C297   C313    1.409   .     A
C297   C312    1.398   .     A
C298   C314    1.409   .     A
C298   C300    1.469   .     S
C299   C305    1.405   .     A
C299   N379    1.425   .     S
C299   C589    1.389   .     S
C300   O327    1.299   .     A
C300   O326    1.299   .     A
C301   C302    1.398   .     A
C301   Cl340   1.768   .     S
C302   C310    1.401   .     S
C302   C303    1.385   .     A
C303   H317    1.086   .     S
C304   N341    1.420   .     S
C304   C305    1.400   .     A
C304   C591    1.374   .     S
C306   N323    1.381   .     A
C306   N347    1.420   .     S
C306   C403    1.431   .     S
C307   N322    1.363   .     A
C307   N353    1.423   .     S
C307   C498    1.431   1_455 S
C308   H318    1.080   .     S
C308   N322    1.366   .     A
C308   C501    1.426   1_455 S
C309   N359    1.419   .     S
C309   N323    1.371   .     A
C309   C404    1.426   .     S
C310   O329    1.284   .     A
C310   O328    1.282   .     A
C311   O330    1.301   .     A
C311   O331    1.296   .     A
C311   C313    1.461   .     S
C312   C1157   1.406   1_554 S
C312   H1183   1.082   1_554 S
C314   C315    1.408   .     A
C314   N366    1.424   .     S
C315   C1180   1.405   .     S
C315   N1237   1.426   .     S
C316   Cl372   1.777   .     S
C316   C1154   1.430   1_554 S
C316   C1179   1.405   1_554 S
H319   C1176   1.082   .     S
N322   Zn332   2.023   .     S
N323   Zn333   2.023   .     S
O324   Zn332   1.993   .     S
O325   Zn333   1.969   .     S
O326   Zn332   1.968   .     S
O327   Zn333   1.912   .     S
O328   Zn332   1.969   .     S
O329   Zn333   1.993   .     S
O330   Zn332   1.912   .     S
O331   Zn333   1.968   .     S
N334   C336    1.445   .     S
N334   H335    1.032   .     S
C336   H339    1.108   .     S
C336   H433    1.109   .     S
C336   H434    1.105   .     S
H337   C528    1.109   1_455 S
H338   C528    1.105   1_455 S
N341   H342    1.031   .     S
N341   C343    1.449   .     S
C343   H345    1.106   .     S
C343   H346    1.111   .     S
C343   H632    1.112   .     S
N347   H348    1.024   .     S
N347   C349    1.452   .     S
C349   H351    1.112   .     S
C349   H352    1.109   .     S
C349   H350    1.106   .     S
N353   C355    1.446   .     S
N353   H354    1.030   .     S
C355   H356    1.110   .     S
C355   H357    1.110   .     S
C355   H358    1.109   .     S
N359   C361    1.446   .     S
N359   H360    1.031   .     S
C361   H363    1.110   .     S
C361   H362    1.106   .     S
C361   H364    1.109   .     S
N366   C368    1.444   .     S
N366   H367    1.027   .     S
C368   H371    1.111   .     S
C368   H561    1.109   1_455 S
C368   H562    1.108   1_455 S
H369   C464    1.109   .     S
H370   C464    1.108   .     S
N373   H374    1.031   .     S
N373   C1179   1.426   1_554 S
N373   C1239   1.450   1_554 S
C375   H377    1.111   .     S
C375   H378    1.112   .     S
C375   N1237   1.450   .     S
C375   H1240   1.110   .     S
H376   C1239   1.110   1_554 S
N379   H380    1.031   .     S
N379   C381    1.447   .     S
C381   H382    1.108   .     S
C381   H383    1.111   .     S
C381   H384    1.107   .     S
C385   O421    1.286   .     A
C385   C401    1.410   .     S
C385   O420    1.284   .     A
C386   C387    1.410   .     A
C386   C1252   1.420   .     S
C386   C1276   1.430   .     S
C387   C391    1.413   .     A
C387   C394    1.408   .     A
C388   C392    1.389   .     A
C388   C1250   1.420   1_554 S
C388   C1253   1.422   1_554 S
C389   C390    1.400   .     A
C389   C1252   1.422   .     S
C389   C1272   1.406   .     S
C390   Cl461   1.765   .     S
C390   C391    1.386   .     A
C391   H417    1.084   .     S
C392   C409    1.389   .     A
C392   H416    1.077   .     S
C393   N430    1.421   .     S
C393   C409    1.409   .     A
C393   C408    1.398   .     A
C394   C410    1.409   .     A
C394   C396    1.469   .     S
C395   C401    1.405   .     A
C395   N475    1.425   .     S
C395   C685    1.389   .     S
C396   O423    1.299   .     A
C396   O422    1.299   .     A
C397   C398    1.398   .     A
C397   Cl436   1.768   .     S
C398   C406    1.401   .     S
C398   C399    1.385   .     A
C399   H413    1.086   .     S
C400   N437    1.420   .     S
C400   C401    1.400   .     A
C400   C687    1.374   .     S
C402   N419    1.381   .     A
C402   N443    1.420   .     S
C402   C499    1.431   .     S
C403   N418    1.363   .     A
C403   N449    1.423   .     S
C404   H414    1.080   .     S
C404   N418    1.366   .     A
C405   N455    1.419   .     S
C405   N419    1.371   .     A
C405   C500    1.426   .     S
C406   O425    1.284   .     A
C406   O424    1.282   .     A
C407   O426    1.301   .     A
C407   O427    1.296   .     A
C407   C409    1.461   .     S
C408   C1253   1.406   1_554 S
C408   H1279   1.082   1_554 S
C410   C411    1.408   .     A
C410   N462    1.424   .     S
C411   C1276   1.405   .     S
C411   N1333   1.426   .     S
C412   Cl468   1.777   .     S
C412   C1250   1.430   1_554 S
C412   C1275   1.405   1_554 S
H415   C1272   1.082   .     S
N418   Zn428   2.023   .     S
N419   Zn429   2.023   .     S
O420   Zn428   1.993   .     S
O421   Zn429   1.969   .     S
O422   Zn428   1.968   .     S
O423   Zn429   1.912   .     S
O424   Zn428   1.969   .     S
O425   Zn429   1.993   .     S
O426   Zn428   1.912   .     S
O427   Zn429   1.968   .     S
N430   C432    1.445   .     S
N430   H431    1.032   .     S
C432   H435    1.108   .     S
C432   H529    1.109   .     S
C432   H530    1.105   .     S
N437   H438    1.031   .     S
N437   C439    1.449   .     S
C439   H441    1.106   .     S
C439   H442    1.111   .     S
C439   H728    1.112   .     S
N443   H444    1.024   .     S
N443   C445    1.452   .     S
C445   H447    1.112   .     S
C445   H448    1.109   .     S
C445   H446    1.106   .     S
N449   C451    1.446   .     S
N449   H450    1.030   .     S
C451   H452    1.110   .     S
C451   H453    1.110   .     S
C451   H454    1.109   .     S
N455   C457    1.446   .     S
N455   H456    1.031   .     S
C457   H459    1.110   .     S
C457   H458    1.106   .     S
C457   H460    1.109   .     S
N462   C464    1.444   .     S
N462   H463    1.027   .     S
C464   H467    1.111   .     S
H465   C560    1.109   .     S
H466   C560    1.108   .     S
N469   H470    1.031   .     S
N469   C1275   1.426   1_554 S
N469   C1335   1.450   1_554 S
C471   H473    1.111   .     S
C471   H474    1.112   .     S
C471   N1333   1.450   .     S
C471   H1336   1.110   .     S
H472   C1335   1.110   1_554 S
N475   H476    1.031   .     S
N475   C477    1.447   .     S
C477   H478    1.108   .     S
C477   H479    1.111   .     S
C477   H480    1.107   .     S
C481   O517    1.286   .     A
C481   C497    1.410   .     S
C481   O516    1.284   .     A
C482   C483    1.410   .     A
C482   C1348   1.420   .     S
C482   C1372   1.430   .     S
C483   C487    1.413   .     A
C483   C490    1.408   .     A
C484   C488    1.389   .     A
C484   C1346   1.420   1_554 S
C484   C1349   1.422   1_554 S
C485   C486    1.400   .     A
C485   C1348   1.422   .     S
C485   C1368   1.406   .     S
C486   Cl557   1.765   .     S
C486   C487    1.386   .     A
C487   H513    1.084   .     S
C488   C505    1.389   .     A
C488   H512    1.077   .     S
C489   N526    1.421   .     S
C489   C505    1.409   .     A
C489   C504    1.398   .     A
C490   C506    1.409   .     A
C490   C492    1.469   .     S
C491   C497    1.405   .     A
C491   N571    1.425   .     S
C491   C781    1.389   .     S
C492   O519    1.299   .     A
C492   O518    1.299   .     A
C493   C494    1.398   .     A
C493   Cl532   1.768   .     S
C494   C502    1.401   .     S
C494   C495    1.385   .     A
C495   H509    1.086   .     S
C496   N533    1.420   .     S
C496   C497    1.400   .     A
C496   C783    1.374   .     S
C498   N515    1.381   .     A
C498   N539    1.420   .     S
C498   C307    1.431   1_655 S
C499   N514    1.363   .     A
C499   N545    1.423   .     S
C500   H510    1.080   .     S
C500   N514    1.366   .     A
C501   N551    1.419   .     S
C501   N515    1.371   .     A
C501   C308    1.426   1_655 S
C502   O521    1.284   .     A
C502   O520    1.282   .     A
C503   O522    1.301   .     A
C503   O523    1.296   .     A
C503   C505    1.461   .     S
C504   C1349   1.406   1_554 S
C504   H1375   1.082   1_554 S
C506   C507    1.408   .     A
C506   N558    1.424   .     S
C507   C1372   1.405   .     S
C507   N1429   1.426   .     S
C508   Cl564   1.777   .     S
C508   C1346   1.430   1_554 S
C508   C1371   1.405   1_554 S
H511   C1368   1.082   .     S
N514   Zn524   2.023   .     S
N515   Zn525   2.023   .     S
O516   Zn524   1.993   .     S
O517   Zn525   1.969   .     S
O518   Zn524   1.968   .     S
O519   Zn525   1.912   .     S
O520   Zn524   1.969   .     S
O521   Zn525   1.993   .     S
O522   Zn524   1.912   .     S
O523   Zn525   1.968   .     S
N526   C528    1.445   .     S
N526   H527    1.032   .     S
C528   H531    1.108   .     S
C528   H337    1.109   1_655 S
C528   H338    1.105   1_655 S
N533   H534    1.031   .     S
N533   C535    1.449   .     S
C535   H537    1.106   .     S
C535   H538    1.111   .     S
C535   H824    1.112   .     S
N539   H540    1.024   .     S
N539   C541    1.452   .     S
C541   H543    1.112   .     S
C541   H544    1.109   .     S
C541   H542    1.106   .     S
N545   C547    1.446   .     S
N545   H546    1.030   .     S
C547   H548    1.110   .     S
C547   H549    1.110   .     S
C547   H550    1.109   .     S
N551   C553    1.446   .     S
N551   H552    1.031   .     S
C553   H555    1.110   .     S
C553   H554    1.106   .     S
C553   H556    1.109   .     S
N558   C560    1.444   .     S
N558   H559    1.027   .     S
C560   H563    1.111   .     S
H561   C368    1.109   1_655 S
H562   C368    1.108   1_655 S
N565   H566    1.031   .     S
N565   C1371   1.426   1_554 S
N565   C1431   1.450   1_554 S
C567   H569    1.111   .     S
C567   H570    1.112   .     S
C567   N1429   1.450   .     S
C567   H1432   1.110   .     S
H568   C1431   1.110   1_554 S
N571   H572    1.031   .     S
N571   C573    1.447   .     S
C573   H574    1.108   .     S
C573   H575    1.111   .     S
C573   H576    1.107   .     S
C577   O613    1.286   .     A
C577   C593    1.410   .     S
C577   O612    1.284   .     A
C578   C579    1.410   .     A
C578   C1444   1.420   .     S
C578   C1468   1.430   .     S
C579   C583    1.413   .     A
C579   C586    1.408   .     A
C580   C584    1.389   .     A
C580   C1442   1.420   1_554 S
C580   C1445   1.422   1_554 S
C581   C582    1.400   .     A
C581   C1444   1.422   .     S
C581   C1464   1.406   .     S
C582   Cl653   1.765   .     S
C582   C583    1.386   .     A
C583   H609    1.084   .     S
C584   C601    1.389   .     A
C584   H608    1.077   .     S
C585   N622    1.421   .     S
C585   C601    1.409   .     A
C585   C600    1.398   .     A
C586   C602    1.409   .     A
C586   C588    1.469   .     S
C587   C593    1.405   .     A
C587   N667    1.425   .     S
C587   C13     1.389   1_565 S
C588   O615    1.299   .     A
C588   O614    1.299   .     A
C589   C590    1.398   .     A
C589   Cl628   1.768   .     S
C590   C598    1.401   .     S
C590   C591    1.385   .     A
C591   H605    1.086   .     S
C592   N629    1.420   .     S
C592   C593    1.400   .     A
C592   C15     1.374   1_565 S
C594   N611    1.381   .     A
C594   N635    1.420   .     S
C594   C691    1.431   .     S
C595   N610    1.363   .     A
C595   N641    1.423   .     S
C595   C786    1.431   1_455 S
C596   H606    1.080   .     S
C596   N610    1.366   .     A
C596   C789    1.426   1_455 S
C597   N647    1.419   .     S
C597   N611    1.371   .     A
C597   C692    1.426   .     S
C598   O617    1.284   .     A
C598   O616    1.282   .     A
C599   O618    1.301   .     A
C599   O619    1.296   .     A
C599   C601    1.461   .     S
C600   C1445   1.406   1_554 S
C600   H1471   1.082   1_554 S
C602   C603    1.408   .     A
C602   N654    1.424   .     S
C603   C1468   1.405   .     S
C603   N1525   1.426   .     S
C604   Cl660   1.777   .     S
C604   C1442   1.430   1_554 S
C604   C1467   1.405   1_554 S
H607   C1464   1.082   .     S
N610   Zn620   2.023   .     S
N611   Zn621   2.023   .     S
O612   Zn620   1.993   .     S
O613   Zn621   1.969   .     S
O614   Zn620   1.968   .     S
O615   Zn621   1.912   .     S
O616   Zn620   1.969   .     S
O617   Zn621   1.993   .     S
O618   Zn620   1.912   .     S
O619   Zn621   1.968   .     S
N622   C624    1.445   .     S
N622   H623    1.032   .     S
C624   H627    1.108   .     S
C624   H721    1.109   .     S
C624   H722    1.105   .     S
H625   C816    1.109   1_455 S
H626   C816    1.105   1_455 S
N629   H630    1.031   .     S
N629   C631    1.449   .     S
C631   H633    1.106   .     S
C631   H634    1.111   .     S
C631   H56     1.112   1_565 S
N635   H636    1.024   .     S
N635   C637    1.452   .     S
C637   H639    1.112   .     S
C637   H640    1.109   .     S
C637   H638    1.106   .     S
N641   C643    1.446   .     S
N641   H642    1.030   .     S
C643   H644    1.110   .     S
C643   H645    1.110   .     S
C643   H646    1.109   .     S
N647   C649    1.446   .     S
N647   H648    1.031   .     S
C649   H651    1.110   .     S
C649   H650    1.106   .     S
C649   H652    1.109   .     S
N654   C656    1.444   .     S
N654   H655    1.027   .     S
C656   H659    1.111   .     S
C656   H849    1.109   1_455 S
C656   H850    1.108   1_455 S
H657   C752    1.109   .     S
H658   C752    1.108   .     S
N661   H662    1.031   .     S
N661   C1467   1.426   1_554 S
N661   C1527   1.450   1_554 S
C663   H665    1.111   .     S
C663   H666    1.112   .     S
C663   N1525   1.450   .     S
C663   H1528   1.110   .     S
H664   C1527   1.110   1_554 S
N667   H668    1.031   .     S
N667   C669    1.447   .     S
C669   H670    1.108   .     S
C669   H671    1.111   .     S
C669   H672    1.107   .     S
C673   O709    1.286   .     A
C673   C689    1.410   .     S
C673   O708    1.284   .     A
C674   C675    1.410   .     A
C674   C1540   1.420   .     S
C674   C1564   1.430   .     S
C675   C679    1.413   .     A
C675   C682    1.408   .     A
C676   C680    1.389   .     A
C676   C1538   1.420   1_554 S
C676   C1541   1.422   1_554 S
C677   C678    1.400   .     A
C677   C1540   1.422   .     S
C677   C1560   1.406   .     S
C678   Cl749   1.765   .     S
C678   C679    1.386   .     A
C679   H705    1.084   .     S
C680   C697    1.389   .     A
C680   H704    1.077   .     S
C681   N718    1.421   .     S
C681   C697    1.409   .     A
C681   C696    1.398   .     A
C682   C698    1.409   .     A
C682   C684    1.469   .     S
C683   C689    1.405   .     A
C683   N763    1.425   .     S
C683   C109    1.389   1_565 S
C684   O711    1.299   .     A
C684   O710    1.299   .     A
C685   C686    1.398   .     A
C685   Cl724   1.768   .     S
C686   C694    1.401   .     S
C686   C687    1.385   .     A
C687   H701    1.086   .     S
C688   N725    1.420   .     S
C688   C689    1.400   .     A
C688   C111    1.374   1_565 S
C690   N707    1.381   .     A
C690   N731    1.420   .     S
C690   C787    1.431   .     S
C691   N706    1.363   .     A
C691   N737    1.423   .     S
C692   H702    1.080   .     S
C692   N706    1.366   .     A
C693   N743    1.419   .     S
C693   N707    1.371   .     A
C693   C788    1.426   .     S
C694   O713    1.284   .     A
C694   O712    1.282   .     A
C695   O714    1.301   .     A
C695   O715    1.296   .     A
C695   C697    1.461   .     S
C696   C1541   1.406   1_554 S
C696   H1567   1.082   1_554 S
C698   C699    1.408   .     A
C698   N750    1.424   .     S
C699   C1564   1.405   .     S
C699   N1621   1.426   .     S
C700   Cl756   1.777   .     S
C700   C1538   1.430   1_554 S
C700   C1563   1.405   1_554 S
H703   C1560   1.082   .     S
N706   Zn716   2.023   .     S
N707   Zn717   2.023   .     S
O708   Zn716   1.993   .     S
O709   Zn717   1.969   .     S
O710   Zn716   1.968   .     S
O711   Zn717   1.912   .     S
O712   Zn716   1.969   .     S
O713   Zn717   1.993   .     S
O714   Zn716   1.912   .     S
O715   Zn717   1.968   .     S
N718   C720    1.445   .     S
N718   H719    1.032   .     S
C720   H723    1.108   .     S
C720   H817    1.109   .     S
C720   H818    1.105   .     S
N725   H726    1.031   .     S
N725   C727    1.449   .     S
C727   H729    1.106   .     S
C727   H730    1.111   .     S
C727   H152    1.112   1_565 S
N731   H732    1.024   .     S
N731   C733    1.452   .     S
C733   H735    1.112   .     S
C733   H736    1.109   .     S
C733   H734    1.106   .     S
N737   C739    1.446   .     S
N737   H738    1.030   .     S
C739   H740    1.110   .     S
C739   H741    1.110   .     S
C739   H742    1.109   .     S
N743   C745    1.446   .     S
N743   H744    1.031   .     S
C745   H747    1.110   .     S
C745   H746    1.106   .     S
C745   H748    1.109   .     S
N750   C752    1.444   .     S
N750   H751    1.027   .     S
C752   H755    1.111   .     S
H753   C848    1.109   .     S
H754   C848    1.108   .     S
N757   H758    1.031   .     S
N757   C1563   1.426   1_554 S
N757   C1623   1.450   1_554 S
C759   H761    1.111   .     S
C759   H762    1.112   .     S
C759   N1621   1.450   .     S
C759   H1624   1.110   .     S
H760   C1623   1.110   1_554 S
N763   H764    1.031   .     S
N763   C765    1.447   .     S
C765   H766    1.108   .     S
C765   H767    1.111   .     S
C765   H768    1.107   .     S
C769   O805    1.286   .     A
C769   C785    1.410   .     S
C769   O804    1.284   .     A
C770   C771    1.410   .     A
C770   C1636   1.420   .     S
C770   C1660   1.430   .     S
C771   C775    1.413   .     A
C771   C778    1.408   .     A
C772   C776    1.389   .     A
C772   C1634   1.420   1_554 S
C772   C1637   1.422   1_554 S
C773   C774    1.400   .     A
C773   C1636   1.422   .     S
C773   C1656   1.406   .     S
C774   Cl845   1.765   .     S
C774   C775    1.386   .     A
C775   H801    1.084   .     S
C776   C793    1.389   .     A
C776   H800    1.077   .     S
C777   N814    1.421   .     S
C777   C793    1.409   .     A
C777   C792    1.398   .     A
C778   C794    1.409   .     A
C778   C780    1.469   .     S
C779   C785    1.405   .     A
C779   N859    1.425   .     S
C779   C205    1.389   1_565 S
C780   O807    1.299   .     A
C780   O806    1.299   .     A
C781   C782    1.398   .     A
C781   Cl820   1.768   .     S
C782   C790    1.401   .     S
C782   C783    1.385   .     A
C783   H797    1.086   .     S
C784   N821    1.420   .     S
C784   C785    1.400   .     A
C784   C207    1.374   1_565 S
C786   N803    1.381   .     A
C786   N827    1.420   .     S
C786   C595    1.431   1_655 S
C787   N802    1.363   .     A
C787   N833    1.423   .     S
C788   H798    1.080   .     S
C788   N802    1.366   .     A
C789   N839    1.419   .     S
C789   N803    1.371   .     A
C789   C596    1.426   1_655 S
C790   O809    1.284   .     A
C790   O808    1.282   .     A
C791   O810    1.301   .     A
C791   O811    1.296   .     A
C791   C793    1.461   .     S
C792   C1637   1.406   1_554 S
C792   H1663   1.082   1_554 S
C794   C795    1.408   .     A
C794   N846    1.424   .     S
C795   C1660   1.405   .     S
C795   N1717   1.426   .     S
C796   Cl852   1.777   .     S
C796   C1634   1.430   1_554 S
C796   C1659   1.405   1_554 S
H799   C1656   1.082   .     S
N802   Zn812   2.023   .     S
N803   Zn813   2.023   .     S
O804   Zn812   1.993   .     S
O805   Zn813   1.969   .     S
O806   Zn812   1.968   .     S
O807   Zn813   1.912   .     S
O808   Zn812   1.969   .     S
O809   Zn813   1.993   .     S
O810   Zn812   1.912   .     S
O811   Zn813   1.968   .     S
N814   C816    1.445   .     S
N814   H815    1.032   .     S
C816   H819    1.108   .     S
C816   H625    1.109   1_655 S
C816   H626    1.105   1_655 S
N821   H822    1.031   .     S
N821   C823    1.449   .     S
C823   H825    1.106   .     S
C823   H826    1.111   .     S
C823   H248    1.112   1_565 S
N827   H828    1.024   .     S
N827   C829    1.452   .     S
C829   H831    1.112   .     S
C829   H832    1.109   .     S
C829   H830    1.106   .     S
N833   C835    1.446   .     S
N833   H834    1.030   .     S
C835   H836    1.110   .     S
C835   H837    1.110   .     S
C835   H838    1.109   .     S
N839   C841    1.446   .     S
N839   H840    1.031   .     S
C841   H843    1.110   .     S
C841   H842    1.106   .     S
C841   H844    1.109   .     S
N846   C848    1.444   .     S
N846   H847    1.027   .     S
C848   H851    1.111   .     S
H849   C656    1.109   1_655 S
H850   C656    1.108   1_655 S
N853   H854    1.031   .     S
N853   C1659   1.426   1_554 S
N853   C1719   1.450   1_554 S
C855   H857    1.111   .     S
C855   H858    1.112   .     S
C855   N1717   1.450   .     S
C855   H1720   1.110   .     S
H856   C1719   1.110   1_554 S
N859   H860    1.031   .     S
N859   C861    1.447   .     S
C861   H862    1.108   .     S
C861   H863    1.111   .     S
C861   H864    1.107   .     S
C865   O901    1.286   .     A
C865   C881    1.410   .     S
C865   O900    1.284   .     A
C866   C867    1.410   .     A
C866   C4      1.420   1_556 S
C866   C28     1.430   1_556 S
C867   C871    1.413   .     A
C867   C874    1.408   .     A
C868   C872    1.389   .     A
C869   C870    1.400   .     A
C869   C4      1.422   1_556 S
C869   C24     1.406   1_556 S
C870   Cl941   1.765   .     S
C870   C871    1.386   .     A
C871   H897    1.084   .     S
C872   C889    1.389   .     A
C872   H896    1.077   .     S
C873   N910    1.421   .     S
C873   C889    1.409   .     A
C873   C888    1.398   .     A
C874   C890    1.409   .     A
C874   C876    1.469   .     S
C875   C881    1.405   .     A
C875   N955    1.425   .     S
C875   C1165   1.389   .     S
C876   O903    1.299   .     A
C876   O902    1.299   .     A
C877   C878    1.398   .     A
C877   Cl916   1.768   .     S
C877   C1451   1.389   1_545 S
C878   C886    1.401   .     S
C878   C879    1.385   .     A
C879   H893    1.086   .     S
C879   C1456   1.374   1_545 S
C880   N917    1.420   .     S
C880   C881    1.400   .     A
C880   C1167   1.374   .     S
C882   N899    1.381   .     A
C882   N923    1.420   .     S
C882   C979    1.431   .     S
C883   N898    1.363   .     A
C883   N929    1.423   .     S
C883   C1074   1.431   1_455 S
C884   H894    1.080   .     S
C884   N898    1.366   .     A
C884   C1077   1.426   1_455 S
C885   N935    1.419   .     S
C885   N899    1.371   .     A
C885   C980    1.426   .     S
C886   O905    1.284   .     A
C886   O904    1.282   .     A
C887   O906    1.301   .     A
C887   O907    1.296   .     A
C887   C889    1.461   .     S
C890   C891    1.408   .     A
C890   N942    1.424   .     S
C891   C28     1.405   1_556 S
C891   N85     1.426   1_556 S
C892   Cl948   1.777   .     S
H895   C24     1.082   1_556 S
N898   Zn908   2.023   .     S
N899   Zn909   2.023   .     S
O900   Zn908   1.993   .     S
O901   Zn909   1.969   .     S
O902   Zn908   1.968   .     S
O903   Zn909   1.912   .     S
O904   Zn908   1.969   .     S
O905   Zn909   1.993   .     S
O906   Zn908   1.912   .     S
O907   Zn909   1.968   .     S
N910   C912    1.445   .     S
N910   H911    1.032   .     S
C912   H915    1.108   .     S
C912   H1009   1.109   .     S
C912   H1010   1.105   .     S
H913   C1104   1.109   1_455 S
H914   C1104   1.105   1_455 S
N917   H918    1.031   .     S
N917   C919    1.449   .     S
C919   H921    1.106   .     S
C919   H922    1.111   .     S
C919   H1208   1.112   .     S
H920   C1495   1.112   1_545 S
N923   H924    1.024   .     S
N923   C925    1.452   .     S
C925   H927    1.112   .     S
C925   H928    1.109   .     S
C925   H926    1.106   .     S
N929   C931    1.446   .     S
N929   H930    1.030   .     S
C931   H932    1.110   .     S
C931   H933    1.110   .     S
C931   H934    1.109   .     S
N935   C937    1.446   .     S
N935   H936    1.031   .     S
C937   H939    1.110   .     S
C937   H938    1.106   .     S
C937   H940    1.109   .     S
N942   C944    1.444   .     S
N942   H943    1.027   .     S
C944   H947    1.111   .     S
C944   H1137   1.109   1_455 S
C944   H1138   1.108   1_455 S
H945   C1040   1.109   .     S
H946   C1040   1.108   .     S
N949   H950    1.031   .     S
C951   H953    1.111   .     S
C951   H954    1.112   .     S
C951   N85     1.450   1_556 S
C951   H88     1.110   1_556 S
N955   H956    1.031   .     S
N955   C957    1.447   .     S
C957   H958    1.108   .     S
C957   H959    1.111   .     S
C957   H960    1.107   .     S
C961   O997    1.286   .     A
C961   C977    1.410   .     S
C961   O996    1.284   .     A
C962   C963    1.410   .     A
C962   C100    1.420   1_556 S
C962   C124    1.430   1_556 S
C963   C967    1.413   .     A
C963   C970    1.408   .     A
C964   C968    1.389   .     A
C965   C966    1.400   .     A
C965   C100    1.422   1_556 S
C965   C120    1.406   1_556 S
C966   Cl1037  1.765   .     S
C966   C967    1.386   .     A
C967   H993    1.084   .     S
C968   C985    1.389   .     A
C968   H992    1.077   .     S
C969   N1006   1.421   .     S
C969   C985    1.409   .     A
C969   C984    1.398   .     A
C970   C986    1.409   .     A
C970   C972    1.469   .     S
C971   C977    1.405   .     A
C971   N1051   1.425   .     S
C971   C1261   1.389   .     S
C972   O999    1.299   .     A
C972   O998    1.299   .     A
C973   C974    1.398   .     A
C973   Cl1012  1.768   .     S
C973   C1547   1.389   1_545 S
C974   C982    1.401   .     S
C974   C975    1.385   .     A
C975   H989    1.086   .     S
C975   C1552   1.374   1_545 S
C976   N1013   1.420   .     S
C976   C977    1.400   .     A
C976   C1263   1.374   .     S
C978   N995    1.381   .     A
C978   N1019   1.420   .     S
C978   C1075   1.431   .     S
C979   N994    1.363   .     A
C979   N1025   1.423   .     S
C980   H990    1.080   .     S
C980   N994    1.366   .     A
C981   N1031   1.419   .     S
C981   N995    1.371   .     A
C981   C1076   1.426   .     S
C982   O1001   1.284   .     A
C982   O1000   1.282   .     A
C983   O1002   1.301   .     A
C983   O1003   1.296   .     A
C983   C985    1.461   .     S
C986   C987    1.408   .     A
C986   N1038   1.424   .     S
C987   C124    1.405   1_556 S
C987   N181    1.426   1_556 S
C988   Cl1044  1.777   .     S
H991   C120    1.082   1_556 S
N994   Zn1004  2.023   .     S
N995   Zn1005  2.023   .     S
O996   Zn1004  1.993   .     S
O997   Zn1005  1.969   .     S
O998   Zn1004  1.968   .     S
O999   Zn1005  1.912   .     S
O1000  Zn1004  1.969   .     S
O1001  Zn1005  1.993   .     S
O1002  Zn1004  1.912   .     S
O1003  Zn1005  1.968   .     S
N1006  C1008   1.445   .     S
N1006  H1007   1.032   .     S
C1008  H1011   1.108   .     S
C1008  H1105   1.109   .     S
C1008  H1106   1.105   .     S
N1013  H1014   1.031   .     S
N1013  C1015   1.449   .     S
C1015  H1017   1.106   .     S
C1015  H1018   1.111   .     S
C1015  H1304   1.112   .     S
H1016  C1591   1.112   1_545 S
N1019  H1020   1.024   .     S
N1019  C1021   1.452   .     S
C1021  H1023   1.112   .     S
C1021  H1024   1.109   .     S
C1021  H1022   1.106   .     S
N1025  C1027   1.446   .     S
N1025  H1026   1.030   .     S
C1027  H1028   1.110   .     S
C1027  H1029   1.110   .     S
C1027  H1030   1.109   .     S
N1031  C1033   1.446   .     S
N1031  H1032   1.031   .     S
C1033  H1035   1.110   .     S
C1033  H1034   1.106   .     S
C1033  H1036   1.109   .     S
N1038  C1040   1.444   .     S
N1038  H1039   1.027   .     S
C1040  H1043   1.111   .     S
H1041  C1136   1.109   .     S
H1042  C1136   1.108   .     S
N1045  H1046   1.031   .     S
C1047  H1049   1.111   .     S
C1047  H1050   1.112   .     S
C1047  N181    1.450   1_556 S
C1047  H184    1.110   1_556 S
N1051  H1052   1.031   .     S
N1051  C1053   1.447   .     S
C1053  H1054   1.108   .     S
C1053  H1055   1.111   .     S
C1053  H1056   1.107   .     S
C1057  O1093   1.286   .     A
C1057  C1073   1.410   .     S
C1057  O1092   1.284   .     A
C1058  C1059   1.410   .     A
C1058  C196    1.420   1_556 S
C1058  C220    1.430   1_556 S
C1059  C1063   1.413   .     A
C1059  C1066   1.408   .     A
C1060  C1064   1.389   .     A
C1061  C1062   1.400   .     A
C1061  C196    1.422   1_556 S
C1061  C216    1.406   1_556 S
C1062  Cl1133  1.765   .     S
C1062  C1063   1.386   .     A
C1063  H1089   1.084   .     S
C1064  C1081   1.389   .     A
C1064  H1088   1.077   .     S
C1065  N1102   1.421   .     S
C1065  C1081   1.409   .     A
C1065  C1080   1.398   .     A
C1066  C1082   1.409   .     A
C1066  C1068   1.469   .     S
C1067  C1073   1.405   .     A
C1067  N1147   1.425   .     S
C1067  C1357   1.389   .     S
C1068  O1095   1.299   .     A
C1068  O1094   1.299   .     A
C1069  C1070   1.398   .     A
C1069  Cl1108  1.768   .     S
C1069  C1643   1.389   1_545 S
C1070  C1078   1.401   .     S
C1070  C1071   1.385   .     A
C1071  H1085   1.086   .     S
C1071  C1648   1.374   1_545 S
C1072  N1109   1.420   .     S
C1072  C1073   1.400   .     A
C1072  C1359   1.374   .     S
C1074  N1091   1.381   .     A
C1074  N1115   1.420   .     S
C1074  C883    1.431   1_655 S
C1075  N1090   1.363   .     A
C1075  N1121   1.423   .     S
C1076  H1086   1.080   .     S
C1076  N1090   1.366   .     A
C1077  N1127   1.419   .     S
C1077  N1091   1.371   .     A
C1077  C884    1.426   1_655 S
C1078  O1097   1.284   .     A
C1078  O1096   1.282   .     A
C1079  O1098   1.301   .     A
C1079  O1099   1.296   .     A
C1079  C1081   1.461   .     S
C1082  C1083   1.408   .     A
C1082  N1134   1.424   .     S
C1083  C220    1.405   1_556 S
C1083  N277    1.426   1_556 S
C1084  Cl1140  1.777   .     S
H1087  C216    1.082   1_556 S
N1090  Zn1100  2.023   .     S
N1091  Zn1101  2.023   .     S
O1092  Zn1100  1.993   .     S
O1093  Zn1101  1.969   .     S
O1094  Zn1100  1.968   .     S
O1095  Zn1101  1.912   .     S
O1096  Zn1100  1.969   .     S
O1097  Zn1101  1.993   .     S
O1098  Zn1100  1.912   .     S
O1099  Zn1101  1.968   .     S
N1102  C1104   1.445   .     S
N1102  H1103   1.032   .     S
C1104  H1107   1.108   .     S
C1104  H913    1.109   1_655 S
C1104  H914    1.105   1_655 S
N1109  H1110   1.031   .     S
N1109  C1111   1.449   .     S
C1111  H1113   1.106   .     S
C1111  H1114   1.111   .     S
C1111  H1400   1.112   .     S
H1112  C1687   1.112   1_545 S
N1115  H1116   1.024   .     S
N1115  C1117   1.452   .     S
C1117  H1119   1.112   .     S
C1117  H1120   1.109   .     S
C1117  H1118   1.106   .     S
N1121  C1123   1.446   .     S
N1121  H1122   1.030   .     S
C1123  H1124   1.110   .     S
C1123  H1125   1.110   .     S
C1123  H1126   1.109   .     S
N1127  C1129   1.446   .     S
N1127  H1128   1.031   .     S
C1129  H1131   1.110   .     S
C1129  H1130   1.106   .     S
C1129  H1132   1.109   .     S
N1134  C1136   1.444   .     S
N1134  H1135   1.027   .     S
C1136  H1139   1.111   .     S
H1137  C944    1.109   1_655 S
H1138  C944    1.108   1_655 S
N1141  H1142   1.031   .     S
C1143  H1145   1.111   .     S
C1143  H1146   1.112   .     S
C1143  N277    1.450   1_556 S
C1143  H280    1.110   1_556 S
N1147  H1148   1.031   .     S
N1147  C1149   1.447   .     S
C1149  H1150   1.108   .     S
C1149  H1151   1.111   .     S
C1149  H1152   1.107   .     S
C1153  O1189   1.286   .     A
C1153  C1169   1.410   .     S
C1153  O1188   1.284   .     A
C1154  C1155   1.410   .     A
C1154  C292    1.420   1_556 S
C1154  C316    1.430   1_556 S
C1155  C1159   1.413   .     A
C1155  C1162   1.408   .     A
C1156  C1160   1.389   .     A
C1157  C1158   1.400   .     A
C1157  C292    1.422   1_556 S
C1157  C312    1.406   1_556 S
C1158  Cl1229  1.765   .     S
C1158  C1159   1.386   .     A
C1159  H1185   1.084   .     S
C1160  C1177   1.389   .     A
C1160  H1184   1.077   .     S
C1161  N1198   1.421   .     S
C1161  C1177   1.409   .     A
C1161  C1176   1.398   .     A
C1162  C1178   1.409   .     A
C1162  C1164   1.469   .     S
C1163  C1169   1.405   .     A
C1163  N1243   1.425   .     S
C1163  C1453   1.389   .     S
C1164  O1191   1.299   .     A
C1164  O1190   1.299   .     A
C1165  C1166   1.398   .     A
C1165  Cl1204  1.768   .     S
C1166  C1174   1.401   .     S
C1166  C1167   1.385   .     A
C1167  H1181   1.086   .     S
C1168  N1205   1.420   .     S
C1168  C1169   1.400   .     A
C1168  C1455   1.374   .     S
C1170  N1187   1.381   .     A
C1170  N1211   1.420   .     S
C1170  C1267   1.431   .     S
C1171  N1186   1.363   .     A
C1171  N1217   1.423   .     S
C1171  C1362   1.431   1_455 S
C1172  H1182   1.080   .     S
C1172  N1186   1.366   .     A
C1172  C1365   1.426   1_455 S
C1173  N1223   1.419   .     S
C1173  N1187   1.371   .     A
C1173  C1268   1.426   .     S
C1174  O1193   1.284   .     A
C1174  O1192   1.282   .     A
C1175  O1194   1.301   .     A
C1175  O1195   1.296   .     A
C1175  C1177   1.461   .     S
C1178  C1179   1.408   .     A
C1178  N1230   1.424   .     S
C1179  C316    1.405   1_556 S
C1179  N373    1.426   1_556 S
C1180  Cl1236  1.777   .     S
H1183  C312    1.082   1_556 S
N1186  Zn1196  2.023   .     S
N1187  Zn1197  2.023   .     S
O1188  Zn1196  1.993   .     S
O1189  Zn1197  1.969   .     S
O1190  Zn1196  1.968   .     S
O1191  Zn1197  1.912   .     S
O1192  Zn1196  1.969   .     S
O1193  Zn1197  1.993   .     S
O1194  Zn1196  1.912   .     S
O1195  Zn1197  1.968   .     S
N1198  C1200   1.445   .     S
N1198  H1199   1.032   .     S
C1200  H1203   1.108   .     S
C1200  H1297   1.109   .     S
C1200  H1298   1.105   .     S
H1201  C1392   1.109   1_455 S
H1202  C1392   1.105   1_455 S
N1205  H1206   1.031   .     S
N1205  C1207   1.449   .     S
C1207  H1209   1.106   .     S
C1207  H1210   1.111   .     S
C1207  H1496   1.112   .     S
N1211  H1212   1.024   .     S
N1211  C1213   1.452   .     S
C1213  H1215   1.112   .     S
C1213  H1216   1.109   .     S
C1213  H1214   1.106   .     S
N1217  C1219   1.446   .     S
N1217  H1218   1.030   .     S
C1219  H1220   1.110   .     S
C1219  H1221   1.110   .     S
C1219  H1222   1.109   .     S
N1223  C1225   1.446   .     S
N1223  H1224   1.031   .     S
C1225  H1227   1.110   .     S
C1225  H1226   1.106   .     S
C1225  H1228   1.109   .     S
N1230  C1232   1.444   .     S
N1230  H1231   1.027   .     S
C1232  H1235   1.111   .     S
C1232  H1425   1.109   1_455 S
C1232  H1426   1.108   1_455 S
H1233  C1328   1.109   .     S
H1234  C1328   1.108   .     S
N1237  H1238   1.031   .     S
C1239  H1241   1.111   .     S
C1239  H1242   1.112   .     S
C1239  N373    1.450   1_556 S
C1239  H376    1.110   1_556 S
N1243  H1244   1.031   .     S
N1243  C1245   1.447   .     S
C1245  H1246   1.108   .     S
C1245  H1247   1.111   .     S
C1245  H1248   1.107   .     S
C1249  O1285   1.286   .     A
C1249  C1265   1.410   .     S
C1249  O1284   1.284   .     A
C1250  C1251   1.410   .     A
C1250  C388    1.420   1_556 S
C1250  C412    1.430   1_556 S
C1251  C1255   1.413   .     A
C1251  C1258   1.408   .     A
C1252  C1256   1.389   .     A
C1253  C1254   1.400   .     A
C1253  C388    1.422   1_556 S
C1253  C408    1.406   1_556 S
C1254  Cl1325  1.765   .     S
C1254  C1255   1.386   .     A
C1255  H1281   1.084   .     S
C1256  C1273   1.389   .     A
C1256  H1280   1.077   .     S
C1257  N1294   1.421   .     S
C1257  C1273   1.409   .     A
C1257  C1272   1.398   .     A
C1258  C1274   1.409   .     A
C1258  C1260   1.469   .     S
C1259  C1265   1.405   .     A
C1259  N1339   1.425   .     S
C1259  C1549   1.389   .     S
C1260  O1287   1.299   .     A
C1260  O1286   1.299   .     A
C1261  C1262   1.398   .     A
C1261  Cl1300  1.768   .     S
C1262  C1270   1.401   .     S
C1262  C1263   1.385   .     A
C1263  H1277   1.086   .     S
C1264  N1301   1.420   .     S
C1264  C1265   1.400   .     A
C1264  C1551   1.374   .     S
C1266  N1283   1.381   .     A
C1266  N1307   1.420   .     S
C1266  C1363   1.431   .     S
C1267  N1282   1.363   .     A
C1267  N1313   1.423   .     S
C1268  H1278   1.080   .     S
C1268  N1282   1.366   .     A
C1269  N1319   1.419   .     S
C1269  N1283   1.371   .     A
C1269  C1364   1.426   .     S
C1270  O1289   1.284   .     A
C1270  O1288   1.282   .     A
C1271  O1290   1.301   .     A
C1271  O1291   1.296   .     A
C1271  C1273   1.461   .     S
C1274  C1275   1.408   .     A
C1274  N1326   1.424   .     S
C1275  C412    1.405   1_556 S
C1275  N469    1.426   1_556 S
C1276  Cl1332  1.777   .     S
H1279  C408    1.082   1_556 S
N1282  Zn1292  2.023   .     S
N1283  Zn1293  2.023   .     S
O1284  Zn1292  1.993   .     S
O1285  Zn1293  1.969   .     S
O1286  Zn1292  1.968   .     S
O1287  Zn1293  1.912   .     S
O1288  Zn1292  1.969   .     S
O1289  Zn1293  1.993   .     S
O1290  Zn1292  1.912   .     S
O1291  Zn1293  1.968   .     S
N1294  C1296   1.445   .     S
N1294  H1295   1.032   .     S
C1296  H1299   1.108   .     S
C1296  H1393   1.109   .     S
C1296  H1394   1.105   .     S
N1301  H1302   1.031   .     S
N1301  C1303   1.449   .     S
C1303  H1305   1.106   .     S
C1303  H1306   1.111   .     S
C1303  H1592   1.112   .     S
N1307  H1308   1.024   .     S
N1307  C1309   1.452   .     S
C1309  H1311   1.112   .     S
C1309  H1312   1.109   .     S
C1309  H1310   1.106   .     S
N1313  C1315   1.446   .     S
N1313  H1314   1.030   .     S
C1315  H1316   1.110   .     S
C1315  H1317   1.110   .     S
C1315  H1318   1.109   .     S
N1319  C1321   1.446   .     S
N1319  H1320   1.031   .     S
C1321  H1323   1.110   .     S
C1321  H1322   1.106   .     S
C1321  H1324   1.109   .     S
N1326  C1328   1.444   .     S
N1326  H1327   1.027   .     S
C1328  H1331   1.111   .     S
H1329  C1424   1.109   .     S
H1330  C1424   1.108   .     S
N1333  H1334   1.031   .     S
C1335  H1337   1.111   .     S
C1335  H1338   1.112   .     S
C1335  N469    1.450   1_556 S
C1335  H472    1.110   1_556 S
N1339  H1340   1.031   .     S
N1339  C1341   1.447   .     S
C1341  H1342   1.108   .     S
C1341  H1343   1.111   .     S
C1341  H1344   1.107   .     S
C1345  O1381   1.286   .     A
C1345  C1361   1.410   .     S
C1345  O1380   1.284   .     A
C1346  C1347   1.410   .     A
C1346  C484    1.420   1_556 S
C1346  C508    1.430   1_556 S
C1347  C1351   1.413   .     A
C1347  C1354   1.408   .     A
C1348  C1352   1.389   .     A
C1349  C1350   1.400   .     A
C1349  C484    1.422   1_556 S
C1349  C504    1.406   1_556 S
C1350  Cl1421  1.765   .     S
C1350  C1351   1.386   .     A
C1351  H1377   1.084   .     S
C1352  C1369   1.389   .     A
C1352  H1376   1.077   .     S
C1353  N1390   1.421   .     S
C1353  C1369   1.409   .     A
C1353  C1368   1.398   .     A
C1354  C1370   1.409   .     A
C1354  C1356   1.469   .     S
C1355  C1361   1.405   .     A
C1355  N1435   1.425   .     S
C1355  C1645   1.389   .     S
C1356  O1383   1.299   .     A
C1356  O1382   1.299   .     A
C1357  C1358   1.398   .     A
C1357  Cl1396  1.768   .     S
C1358  C1366   1.401   .     S
C1358  C1359   1.385   .     A
C1359  H1373   1.086   .     S
C1360  N1397   1.420   .     S
C1360  C1361   1.400   .     A
C1360  C1647   1.374   .     S
C1362  N1379   1.381   .     A
C1362  N1403   1.420   .     S
C1362  C1171   1.431   1_655 S
C1363  N1378   1.363   .     A
C1363  N1409   1.423   .     S
C1364  H1374   1.080   .     S
C1364  N1378   1.366   .     A
C1365  N1415   1.419   .     S
C1365  N1379   1.371   .     A
C1365  C1172   1.426   1_655 S
C1366  O1385   1.284   .     A
C1366  O1384   1.282   .     A
C1367  O1386   1.301   .     A
C1367  O1387   1.296   .     A
C1367  C1369   1.461   .     S
C1370  C1371   1.408   .     A
C1370  N1422   1.424   .     S
C1371  C508    1.405   1_556 S
C1371  N565    1.426   1_556 S
C1372  Cl1428  1.777   .     S
H1375  C504    1.082   1_556 S
N1378  Zn1388  2.023   .     S
N1379  Zn1389  2.023   .     S
O1380  Zn1388  1.993   .     S
O1381  Zn1389  1.969   .     S
O1382  Zn1388  1.968   .     S
O1383  Zn1389  1.912   .     S
O1384  Zn1388  1.969   .     S
O1385  Zn1389  1.993   .     S
O1386  Zn1388  1.912   .     S
O1387  Zn1389  1.968   .     S
N1390  C1392   1.445   .     S
N1390  H1391   1.032   .     S
C1392  H1395   1.108   .     S
C1392  H1201   1.109   1_655 S
C1392  H1202   1.105   1_655 S
N1397  H1398   1.031   .     S
N1397  C1399   1.449   .     S
C1399  H1401   1.106   .     S
C1399  H1402   1.111   .     S
C1399  H1688   1.112   .     S
N1403  H1404   1.024   .     S
N1403  C1405   1.452   .     S
C1405  H1407   1.112   .     S
C1405  H1408   1.109   .     S
C1405  H1406   1.106   .     S
N1409  C1411   1.446   .     S
N1409  H1410   1.030   .     S
C1411  H1412   1.110   .     S
C1411  H1413   1.110   .     S
C1411  H1414   1.109   .     S
N1415  C1417   1.446   .     S
N1415  H1416   1.031   .     S
C1417  H1419   1.110   .     S
C1417  H1418   1.106   .     S
C1417  H1420   1.109   .     S
N1422  C1424   1.444   .     S
N1422  H1423   1.027   .     S
C1424  H1427   1.111   .     S
H1425  C1232   1.109   1_655 S
H1426  C1232   1.108   1_655 S
N1429  H1430   1.031   .     S
C1431  H1433   1.111   .     S
C1431  H1434   1.112   .     S
C1431  N565    1.450   1_556 S
C1431  H568    1.110   1_556 S
N1435  H1436   1.031   .     S
N1435  C1437   1.447   .     S
C1437  H1438   1.108   .     S
C1437  H1439   1.111   .     S
C1437  H1440   1.107   .     S
C1441  O1477   1.286   .     A
C1441  C1457   1.410   .     S
C1441  O1476   1.284   .     A
C1442  C1443   1.410   .     A
C1442  C580    1.420   1_556 S
C1442  C604    1.430   1_556 S
C1443  C1447   1.413   .     A
C1443  C1450   1.408   .     A
C1444  C1448   1.389   .     A
C1445  C1446   1.400   .     A
C1445  C580    1.422   1_556 S
C1445  C600    1.406   1_556 S
C1446  Cl1517  1.765   .     S
C1446  C1447   1.386   .     A
C1447  H1473   1.084   .     S
C1448  C1465   1.389   .     A
C1448  H1472   1.077   .     S
C1449  N1486   1.421   .     S
C1449  C1465   1.409   .     A
C1449  C1464   1.398   .     A
C1450  C1466   1.409   .     A
C1450  C1452   1.469   .     S
C1451  C1457   1.405   .     A
C1451  N1531   1.425   .     S
C1451  C877    1.389   1_565 S
C1452  O1479   1.299   .     A
C1452  O1478   1.299   .     A
C1453  C1454   1.398   .     A
C1453  Cl1492  1.768   .     S
C1454  C1462   1.401   .     S
C1454  C1455   1.385   .     A
C1455  H1469   1.086   .     S
C1456  N1493   1.420   .     S
C1456  C1457   1.400   .     A
C1456  C879    1.374   1_565 S
C1458  N1475   1.381   .     A
C1458  N1499   1.420   .     S
C1458  C1555   1.431   .     S
C1459  N1474   1.363   .     A
C1459  N1505   1.423   .     S
C1459  C1650   1.431   1_455 S
C1460  H1470   1.080   .     S
C1460  N1474   1.366   .     A
C1460  C1653   1.426   1_455 S
C1461  N1511   1.419   .     S
C1461  N1475   1.371   .     A
C1461  C1556   1.426   .     S
C1462  O1481   1.284   .     A
C1462  O1480   1.282   .     A
C1463  O1482   1.301   .     A
C1463  O1483   1.296   .     A
C1463  C1465   1.461   .     S
C1466  C1467   1.408   .     A
C1466  N1518   1.424   .     S
C1467  C604    1.405   1_556 S
C1467  N661    1.426   1_556 S
C1468  Cl1524  1.777   .     S
H1471  C600    1.082   1_556 S
N1474  Zn1484  2.023   .     S
N1475  Zn1485  2.023   .     S
O1476  Zn1484  1.993   .     S
O1477  Zn1485  1.969   .     S
O1478  Zn1484  1.968   .     S
O1479  Zn1485  1.912   .     S
O1480  Zn1484  1.969   .     S
O1481  Zn1485  1.993   .     S
O1482  Zn1484  1.912   .     S
O1483  Zn1485  1.968   .     S
N1486  C1488   1.445   .     S
N1486  H1487   1.032   .     S
C1488  H1491   1.108   .     S
C1488  H1585   1.109   .     S
C1488  H1586   1.105   .     S
H1489  C1680   1.109   1_455 S
H1490  C1680   1.105   1_455 S
N1493  H1494   1.031   .     S
N1493  C1495   1.449   .     S
C1495  H1497   1.106   .     S
C1495  H1498   1.111   .     S
C1495  H920    1.112   1_565 S
N1499  H1500   1.024   .     S
N1499  C1501   1.452   .     S
C1501  H1503   1.112   .     S
C1501  H1504   1.109   .     S
C1501  H1502   1.106   .     S
N1505  C1507   1.446   .     S
N1505  H1506   1.030   .     S
C1507  H1508   1.110   .     S
C1507  H1509   1.110   .     S
C1507  H1510   1.109   .     S
N1511  C1513   1.446   .     S
N1511  H1512   1.031   .     S
C1513  H1515   1.110   .     S
C1513  H1514   1.106   .     S
C1513  H1516   1.109   .     S
N1518  C1520   1.444   .     S
N1518  H1519   1.027   .     S
C1520  H1523   1.111   .     S
C1520  H1713   1.109   1_455 S
C1520  H1714   1.108   1_455 S
H1521  C1616   1.109   .     S
H1522  C1616   1.108   .     S
N1525  H1526   1.031   .     S
C1527  H1529   1.111   .     S
C1527  H1530   1.112   .     S
C1527  N661    1.450   1_556 S
C1527  H664    1.110   1_556 S
N1531  H1532   1.031   .     S
N1531  C1533   1.447   .     S
C1533  H1534   1.108   .     S
C1533  H1535   1.111   .     S
C1533  H1536   1.107   .     S
C1537  O1573   1.286   .     A
C1537  C1553   1.410   .     S
C1537  O1572   1.284   .     A
C1538  C1539   1.410   .     A
C1538  C676    1.420   1_556 S
C1538  C700    1.430   1_556 S
C1539  C1543   1.413   .     A
C1539  C1546   1.408   .     A
C1540  C1544   1.389   .     A
C1541  C1542   1.400   .     A
C1541  C676    1.422   1_556 S
C1541  C696    1.406   1_556 S
C1542  Cl1613  1.765   .     S
C1542  C1543   1.386   .     A
C1543  H1569   1.084   .     S
C1544  C1561   1.389   .     A
C1544  H1568   1.077   .     S
C1545  N1582   1.421   .     S
C1545  C1561   1.409   .     A
C1545  C1560   1.398   .     A
C1546  C1562   1.409   .     A
C1546  C1548   1.469   .     S
C1547  C1553   1.405   .     A
C1547  N1627   1.425   .     S
C1547  C973    1.389   1_565 S
C1548  O1575   1.299   .     A
C1548  O1574   1.299   .     A
C1549  C1550   1.398   .     A
C1549  Cl1588  1.768   .     S
C1550  C1558   1.401   .     S
C1550  C1551   1.385   .     A
C1551  H1565   1.086   .     S
C1552  N1589   1.420   .     S
C1552  C1553   1.400   .     A
C1552  C975    1.374   1_565 S
C1554  N1571   1.381   .     A
C1554  N1595   1.420   .     S
C1554  C1651   1.431   .     S
C1555  N1570   1.363   .     A
C1555  N1601   1.423   .     S
C1556  H1566   1.080   .     S
C1556  N1570   1.366   .     A
C1557  N1607   1.419   .     S
C1557  N1571   1.371   .     A
C1557  C1652   1.426   .     S
C1558  O1577   1.284   .     A
C1558  O1576   1.282   .     A
C1559  O1578   1.301   .     A
C1559  O1579   1.296   .     A
C1559  C1561   1.461   .     S
C1562  C1563   1.408   .     A
C1562  N1614   1.424   .     S
C1563  C700    1.405   1_556 S
C1563  N757    1.426   1_556 S
C1564  Cl1620  1.777   .     S
H1567  C696    1.082   1_556 S
N1570  Zn1580  2.023   .     S
N1571  Zn1581  2.023   .     S
O1572  Zn1580  1.993   .     S
O1573  Zn1581  1.969   .     S
O1574  Zn1580  1.968   .     S
O1575  Zn1581  1.912   .     S
O1576  Zn1580  1.969   .     S
O1577  Zn1581  1.993   .     S
O1578  Zn1580  1.912   .     S
O1579  Zn1581  1.968   .     S
N1582  C1584   1.445   .     S
N1582  H1583   1.032   .     S
C1584  H1587   1.108   .     S
C1584  H1681   1.109   .     S
C1584  H1682   1.105   .     S
N1589  H1590   1.031   .     S
N1589  C1591   1.449   .     S
C1591  H1593   1.106   .     S
C1591  H1594   1.111   .     S
C1591  H1016   1.112   1_565 S
N1595  H1596   1.024   .     S
N1595  C1597   1.452   .     S
C1597  H1599   1.112   .     S
C1597  H1600   1.109   .     S
C1597  H1598   1.106   .     S
N1601  C1603   1.446   .     S
N1601  H1602   1.030   .     S
C1603  H1604   1.110   .     S
C1603  H1605   1.110   .     S
C1603  H1606   1.109   .     S
N1607  C1609   1.446   .     S
N1607  H1608   1.031   .     S
C1609  H1611   1.110   .     S
C1609  H1610   1.106   .     S
C1609  H1612   1.109   .     S
N1614  C1616   1.444   .     S
N1614  H1615   1.027   .     S
C1616  H1619   1.111   .     S
H1617  C1712   1.109   .     S
H1618  C1712   1.108   .     S
N1621  H1622   1.031   .     S
C1623  H1625   1.111   .     S
C1623  H1626   1.112   .     S
C1623  N757    1.450   1_556 S
C1623  H760    1.110   1_556 S
N1627  H1628   1.031   .     S
N1627  C1629   1.447   .     S
C1629  H1630   1.108   .     S
C1629  H1631   1.111   .     S
C1629  H1632   1.107   .     S
C1633  O1669   1.286   .     A
C1633  C1649   1.410   .     S
C1633  O1668   1.284   .     A
C1634  C1635   1.410   .     A
C1634  C772    1.420   1_556 S
C1634  C796    1.430   1_556 S
C1635  C1639   1.413   .     A
C1635  C1642   1.408   .     A
C1636  C1640   1.389   .     A
C1637  C1638   1.400   .     A
C1637  C772    1.422   1_556 S
C1637  C792    1.406   1_556 S
C1638  Cl1709  1.765   .     S
C1638  C1639   1.386   .     A
C1639  H1665   1.084   .     S
C1640  C1657   1.389   .     A
C1640  H1664   1.077   .     S
C1641  N1678   1.421   .     S
C1641  C1657   1.409   .     A
C1641  C1656   1.398   .     A
C1642  C1658   1.409   .     A
C1642  C1644   1.469   .     S
C1643  C1649   1.405   .     A
C1643  N1723   1.425   .     S
C1643  C1069   1.389   1_565 S
C1644  O1671   1.299   .     A
C1644  O1670   1.299   .     A
C1645  C1646   1.398   .     A
C1645  Cl1684  1.768   .     S
C1646  C1654   1.401   .     S
C1646  C1647   1.385   .     A
C1647  H1661   1.086   .     S
C1648  N1685   1.420   .     S
C1648  C1649   1.400   .     A
C1648  C1071   1.374   1_565 S
C1650  N1667   1.381   .     A
C1650  N1691   1.420   .     S
C1650  C1459   1.431   1_655 S
C1651  N1666   1.363   .     A
C1651  N1697   1.423   .     S
C1652  H1662   1.080   .     S
C1652  N1666   1.366   .     A
C1653  N1703   1.419   .     S
C1653  N1667   1.371   .     A
C1653  C1460   1.426   1_655 S
C1654  O1673   1.284   .     A
C1654  O1672   1.282   .     A
C1655  O1674   1.301   .     A
C1655  O1675   1.296   .     A
C1655  C1657   1.461   .     S
C1658  C1659   1.408   .     A
C1658  N1710   1.424   .     S
C1659  C796    1.405   1_556 S
C1659  N853    1.426   1_556 S
C1660  Cl1716  1.777   .     S
H1663  C792    1.082   1_556 S
N1666  Zn1676  2.023   .     S
N1667  Zn1677  2.023   .     S
O1668  Zn1676  1.993   .     S
O1669  Zn1677  1.969   .     S
O1670  Zn1676  1.968   .     S
O1671  Zn1677  1.912   .     S
O1672  Zn1676  1.969   .     S
O1673  Zn1677  1.993   .     S
O1674  Zn1676  1.912   .     S
O1675  Zn1677  1.968   .     S
N1678  C1680   1.445   .     S
N1678  H1679   1.032   .     S
C1680  H1683   1.108   .     S
C1680  H1489   1.109   1_655 S
C1680  H1490   1.105   1_655 S
N1685  H1686   1.031   .     S
N1685  C1687   1.449   .     S
C1687  H1689   1.106   .     S
C1687  H1690   1.111   .     S
C1687  H1112   1.112   1_565 S
N1691  H1692   1.024   .     S
N1691  C1693   1.452   .     S
C1693  H1695   1.112   .     S
C1693  H1696   1.109   .     S
C1693  H1694   1.106   .     S
N1697  C1699   1.446   .     S
N1697  H1698   1.030   .     S
C1699  H1700   1.110   .     S
C1699  H1701   1.110   .     S
C1699  H1702   1.109   .     S
N1703  C1705   1.446   .     S
N1703  H1704   1.031   .     S
C1705  H1707   1.110   .     S
C1705  H1706   1.106   .     S
C1705  H1708   1.109   .     S
N1710  C1712   1.444   .     S
N1710  H1711   1.027   .     S
C1712  H1715   1.111   .     S
H1713  C1520   1.109   1_655 S
H1714  C1520   1.108   1_655 S
N1717  H1718   1.031   .     S
C1719  H1721   1.111   .     S
C1719  H1722   1.112   .     S
C1719  N853    1.450   1_556 S
C1719  H856    1.110   1_556 S
N1723  H1724   1.031   .     S
N1723  C1725   1.447   .     S
C1725  H1726   1.108   .     S
C1725  H1727   1.111   .     S
C1725  H1728   1.107   .     S
