data_str_m2_o1_o18_pcu_sym.16
_audit_creation_date              2020-01-03
_audit_creation_method            'Materials Studio'
_symmetry_space_group_name_H-M    'P1'
_symmetry_Int_Tables_number       1
_symmetry_cell_setting            triclinic
loop_
_symmetry_equiv_pos_as_xyz
  x,y,z
_cell_length_a                    28.5155
_cell_length_b                    32.5017
_cell_length_c                    31.5635
_cell_angle_alpha                 89.7640
_cell_angle_beta                  73.8935
_cell_angle_gamma                 90.0131
loop_
_atom_site_label
_atom_site_type_symbol
_atom_site_fract_x
_atom_site_fract_y
_atom_site_fract_z
_atom_site_U_iso_or_equiv
_atom_site_adp_type
_atom_site_occupancy
C1     C     0.33331   0.08735   0.25002   0.00000  Uiso   1.00
C2     C     0.04296   0.02131   0.24883   0.00000  Uiso   1.00
C3     C     0.00003   0.29061   0.24995   0.00000  Uiso   1.00
C4     C     0.33333   0.04274   0.25000   0.00000  Uiso   1.00
C5     C     0.18594   0.13452   0.26777   0.00000  Uiso   1.00
C6     C     0.14750   0.19863   0.23175   0.00000  Uiso   1.00
C7     C     0.13628   0.13466   0.26808   0.00000  Uiso   1.00
C8     C     0.19711   0.19860   0.23172   0.00000  Uiso   1.00
C9     C     0.30559   0.16419   0.33580   0.00000  Uiso   1.00
C10    C     0.02774   0.16371   0.16444   0.00000  Uiso   1.00
C11    C     0.28928   0.15958   0.38443   0.00000  Uiso   1.00
C12    C     0.00003   0.24599   0.24997   0.00000  Uiso   1.00
C13    C     0.04447   0.15559   0.11674   0.00000  Uiso   1.00
C14    C     0.30642   0.17252   0.45380   0.00000  Uiso   1.00
C15    C     0.02558   0.13890   0.04854   0.00000  Uiso   1.00
C16    C     0.32212   0.16969   0.40836   0.00000  Uiso   1.00
C17    C     0.01040   0.15185   0.09227   0.00000  Uiso   1.00
C18    C     0.24063   0.14734   0.40715   0.00000  Uiso   1.00
C19    C     0.09459   0.14788   0.09580   0.00000  Uiso   1.00
C20    C     0.22446   0.14844   0.45428   0.00000  Uiso   1.00
C21    C     0.11030   0.14560   0.04950   0.00000  Uiso   1.00
C22    C     0.25779   0.16428   0.47650   0.00000  Uiso   1.00
C23    C     0.19311   0.17102   0.04362   0.00000  Uiso   1.00
C24    C     0.07546   0.13536   0.02716   0.00000  Uiso   1.00
C25    C     0.17559   0.13837   0.48025   0.00000  Uiso   1.00
C26    C     0.15995   0.15092   0.02503   0.00000  Uiso   1.00
C27    C     0.12592   0.12750   0.12049   0.00000  Uiso   1.00
C28    C     0.20640   0.13759   0.38102   0.00000  Uiso   1.00
C29    C     0.14111   0.11666   0.46396   0.00000  Uiso   1.00
C30    C     0.24174   0.17500   0.02079   0.00000  Uiso   1.00
C31    C     0.09136   0.11885   0.48504   0.00000  Uiso   1.00
C32    C     0.29038   0.02127   0.25112   0.00000  Uiso   1.00
C33    C     0.04297   0.31208   0.24882   0.00000  Uiso   1.00
C34    C     0.29040   0.31204   0.25108   0.00000  Uiso   1.00
Cu35   Cu    0.04689   0.16667   0.25000   0.00000  Uiso   1.00
Cu36   Cu    0.28645   0.16666   0.25000   0.00000  Uiso   1.00
H37    H     0.26625   0.18949   0.03708   0.00000  Uiso   1.00
H38    H     0.07656   0.29608   0.24788   0.00000  Uiso   1.00
H39    H     0.20011   0.10860   0.28179   0.00000  Uiso   1.00
H40    H     0.13354   0.22408   0.21674   0.00000  Uiso   1.00
H41    H     0.11315   0.10910   0.28285   0.00000  Uiso   1.00
H42    H     0.22030   0.22406   0.21677   0.00000  Uiso   1.00
H43    H     0.17142   0.13276   0.15903   0.00000  Uiso   1.00
H44    H     0.14731   0.15472   0.36201   0.00000  Uiso   1.00
H45    H     0.25682   0.29602   0.25199   0.00000  Uiso   1.00
H46    H     0.07654   0.03734   0.24790   0.00000  Uiso   1.00
H47    H     0.06552   0.10581   0.46928   0.00000  Uiso   1.00
H48    H     0.30507   0.15585   0.10779   0.00000  Uiso   1.00
H49    H     0.02612   0.17820   0.39175   0.00000  Uiso   1.00
H50    H     0.33194   0.18347   0.47108   0.00000  Uiso   1.00
H51    H     0.33184   0.13183   0.03145   0.00000  Uiso   1.00
H52    H     0.18154   0.18537   0.07552   0.00000  Uiso   1.00
H53    H     0.15120   0.09742   0.43531   0.00000  Uiso   1.00
H54    H     0.25679   0.03727   0.25207   0.00000  Uiso   1.00
N55    N     0.11736   0.16668   0.24999   0.00000  Uiso   1.00
N56    N     0.21597   0.16666   0.25001   0.00000  Uiso   1.00
O57    O     0.03958   0.10655   0.25000   0.00000  Uiso   1.00
O58    O     0.15098   0.15055   0.14457   0.00000  Uiso   1.00
O59    O     0.21125   0.10557   0.36003   0.00000  Uiso   1.00
O60    O     0.16888   0.16508   0.38037   0.00000  Uiso   1.00
O61    O     0.29375   0.22678   0.25000   0.00000  Uiso   1.00
O62    O     0.29372   0.10654   0.25001   0.00000  Uiso   1.00
O63    O     0.03961   0.22679   0.24999   0.00000  Uiso   1.00
O64    O     0.01852   0.16668   0.31491   0.00000  Uiso   1.00
O65    O     0.31481   0.16666   0.18509   0.00000  Uiso   1.00
O66    O     0.27267   0.16667   0.31492   0.00000  Uiso   1.00
O67    O     0.06067   0.16667   0.18508   0.00000  Uiso   1.00
O68    O     0.13031   0.09007   0.11878   0.00000  Uiso   1.00
C69    C     0.66665   0.08735   0.25002   0.00000  Uiso   1.00
C70    C     0.37629   0.02131   0.24883   0.00000  Uiso   1.00
C71    C     0.33336   0.29061   0.24995   0.00000  Uiso   1.00
C72    C     0.66666   0.04274   0.25000   0.00000  Uiso   1.00
C73    C     0.51927   0.13452   0.26777   0.00000  Uiso   1.00
C74    C     0.48084   0.19863   0.23175   0.00000  Uiso   1.00
C75    C     0.46961   0.13466   0.26808   0.00000  Uiso   1.00
C76    C     0.53044   0.19860   0.23172   0.00000  Uiso   1.00
C77    C     0.63892   0.16419   0.33580   0.00000  Uiso   1.00
C78    C     0.36108   0.16371   0.16444   0.00000  Uiso   1.00
C79    C     0.62262   0.15958   0.38443   0.00000  Uiso   1.00
C80    C     0.33336   0.24599   0.24997   0.00000  Uiso   1.00
C81    C     0.37781   0.15559   0.11674   0.00000  Uiso   1.00
C82    C     0.63975   0.17252   0.45380   0.00000  Uiso   1.00
C83    C     0.35892   0.13890   0.04854   0.00000  Uiso   1.00
C84    C     0.65545   0.16969   0.40836   0.00000  Uiso   1.00
C85    C     0.34373   0.15185   0.09227   0.00000  Uiso   1.00
C86    C     0.57396   0.14734   0.40715   0.00000  Uiso   1.00
C87    C     0.42792   0.14788   0.09580   0.00000  Uiso   1.00
C88    C     0.55779   0.14844   0.45428   0.00000  Uiso   1.00
C89    C     0.44364   0.14560   0.04950   0.00000  Uiso   1.00
C90    C     0.59113   0.16428   0.47650   0.00000  Uiso   1.00
C91    C     0.52645   0.17102   0.04362   0.00000  Uiso   1.00
C92    C     0.40879   0.13536   0.02716   0.00000  Uiso   1.00
C93    C     0.50893   0.13837   0.48025   0.00000  Uiso   1.00
C94    C     0.49328   0.15092   0.02503   0.00000  Uiso   1.00
C95    C     0.45925   0.12750   0.12049   0.00000  Uiso   1.00
C96    C     0.53974   0.13759   0.38102   0.00000  Uiso   1.00
C97    C     0.47444   0.11666   0.46396   0.00000  Uiso   1.00
C98    C     0.57507   0.17500   0.02079   0.00000  Uiso   1.00
C99    C     0.42469   0.11885   0.48504   0.00000  Uiso   1.00
C100   C     0.62372   0.02127   0.25112   0.00000  Uiso   1.00
C101   C     0.37630   0.31208   0.24882   0.00000  Uiso   1.00
C102   C     0.62374   0.31204   0.25108   0.00000  Uiso   1.00
Cu103  Cu    0.38022   0.16667   0.25000   0.00000  Uiso   1.00
Cu104  Cu    0.61978   0.16666   0.25000   0.00000  Uiso   1.00
H105   H     0.59959   0.18949   0.03708   0.00000  Uiso   1.00
H106   H     0.40990   0.29608   0.24788   0.00000  Uiso   1.00
H107   H     0.53344   0.10860   0.28179   0.00000  Uiso   1.00
H108   H     0.46687   0.22408   0.21674   0.00000  Uiso   1.00
H109   H     0.44648   0.10910   0.28285   0.00000  Uiso   1.00
H110   H     0.55364   0.22406   0.21677   0.00000  Uiso   1.00
H111   H     0.50476   0.13276   0.15903   0.00000  Uiso   1.00
H112   H     0.48065   0.15472   0.36201   0.00000  Uiso   1.00
H113   H     0.59016   0.29602   0.25199   0.00000  Uiso   1.00
H114   H     0.40988   0.03734   0.24790   0.00000  Uiso   1.00
H115   H     0.39885   0.10581   0.46928   0.00000  Uiso   1.00
H116   H     0.63840   0.15585   0.10779   0.00000  Uiso   1.00
H117   H     0.35945   0.17820   0.39175   0.00000  Uiso   1.00
H118   H     0.66527   0.18347   0.47108   0.00000  Uiso   1.00
H119   H     0.66517   0.13183   0.03145   0.00000  Uiso   1.00
H120   H     0.51487   0.18537   0.07552   0.00000  Uiso   1.00
H121   H     0.48454   0.09742   0.43531   0.00000  Uiso   1.00
H122   H     0.59012   0.03727   0.25207   0.00000  Uiso   1.00
N123   N     0.45069   0.16668   0.24999   0.00000  Uiso   1.00
N124   N     0.54931   0.16666   0.25001   0.00000  Uiso   1.00
O125   O     0.37291   0.10655   0.25000   0.00000  Uiso   1.00
O126   O     0.48431   0.15055   0.14457   0.00000  Uiso   1.00
O127   O     0.54458   0.10557   0.36003   0.00000  Uiso   1.00
O128   O     0.50222   0.16508   0.38037   0.00000  Uiso   1.00
O129   O     0.62709   0.22678   0.25000   0.00000  Uiso   1.00
O130   O     0.62706   0.10654   0.25001   0.00000  Uiso   1.00
O131   O     0.37294   0.22679   0.24999   0.00000  Uiso   1.00
O132   O     0.35186   0.16668   0.31491   0.00000  Uiso   1.00
O133   O     0.64814   0.16666   0.18509   0.00000  Uiso   1.00
O134   O     0.60600   0.16667   0.31492   0.00000  Uiso   1.00
O135   O     0.39400   0.16667   0.18508   0.00000  Uiso   1.00
O136   O     0.46364   0.09007   0.11878   0.00000  Uiso   1.00
C137   C     0.99998   0.08735   0.25002   0.00000  Uiso   1.00
C138   C     0.70962   0.02131   0.24883   0.00000  Uiso   1.00
C139   C     0.66669   0.29061   0.24995   0.00000  Uiso   1.00
C140   C     0.99999   0.04274   0.25000   0.00000  Uiso   1.00
C141   C     0.85261   0.13452   0.26777   0.00000  Uiso   1.00
C142   C     0.81417   0.19863   0.23175   0.00000  Uiso   1.00
C143   C     0.80294   0.13466   0.26808   0.00000  Uiso   1.00
C144   C     0.86377   0.19860   0.23172   0.00000  Uiso   1.00
C145   C     0.97225   0.16419   0.33580   0.00000  Uiso   1.00
C146   C     0.69441   0.16371   0.16444   0.00000  Uiso   1.00
C147   C     0.95595   0.15958   0.38443   0.00000  Uiso   1.00
C148   C     0.66669   0.24599   0.24997   0.00000  Uiso   1.00
C149   C     0.71114   0.15559   0.11674   0.00000  Uiso   1.00
C150   C     0.97308   0.17252   0.45380   0.00000  Uiso   1.00
C151   C     0.69225   0.13890   0.04854   0.00000  Uiso   1.00
C152   C     0.98878   0.16969   0.40836   0.00000  Uiso   1.00
C153   C     0.67706   0.15185   0.09227   0.00000  Uiso   1.00
C154   C     0.90729   0.14734   0.40715   0.00000  Uiso   1.00
C155   C     0.76125   0.14788   0.09580   0.00000  Uiso   1.00
C156   C     0.89113   0.14844   0.45428   0.00000  Uiso   1.00
C157   C     0.77697   0.14560   0.04950   0.00000  Uiso   1.00
C158   C     0.92446   0.16428   0.47650   0.00000  Uiso   1.00
C159   C     0.85978   0.17102   0.04362   0.00000  Uiso   1.00
C160   C     0.74213   0.13536   0.02716   0.00000  Uiso   1.00
C161   C     0.84226   0.13837   0.48025   0.00000  Uiso   1.00
C162   C     0.82661   0.15092   0.02503   0.00000  Uiso   1.00
C163   C     0.79259   0.12750   0.12049   0.00000  Uiso   1.00
C164   C     0.87307   0.13759   0.38102   0.00000  Uiso   1.00
C165   C     0.80778   0.11666   0.46396   0.00000  Uiso   1.00
C166   C     0.90840   0.17500   0.02079   0.00000  Uiso   1.00
C167   C     0.75803   0.11885   0.48504   0.00000  Uiso   1.00
C168   C     0.95705   0.02127   0.25112   0.00000  Uiso   1.00
C169   C     0.70964   0.31208   0.24882   0.00000  Uiso   1.00
C170   C     0.95707   0.31204   0.25108   0.00000  Uiso   1.00
Cu171  Cu    0.71355   0.16667   0.25000   0.00000  Uiso   1.00
Cu172  Cu    0.95311   0.16666   0.25000   0.00000  Uiso   1.00
H173   H     0.93292   0.18949   0.03708   0.00000  Uiso   1.00
H174   H     0.74323   0.29608   0.24788   0.00000  Uiso   1.00
H175   H     0.86677   0.10860   0.28179   0.00000  Uiso   1.00
H176   H     0.80020   0.22408   0.21674   0.00000  Uiso   1.00
H177   H     0.77982   0.10910   0.28285   0.00000  Uiso   1.00
H178   H     0.88697   0.22406   0.21677   0.00000  Uiso   1.00
H179   H     0.83809   0.13276   0.15903   0.00000  Uiso   1.00
H180   H     0.81398   0.15472   0.36201   0.00000  Uiso   1.00
H181   H     0.92349   0.29602   0.25199   0.00000  Uiso   1.00
H182   H     0.74321   0.03734   0.24790   0.00000  Uiso   1.00
H183   H     0.73218   0.10581   0.46928   0.00000  Uiso   1.00
H184   H     0.97173   0.15585   0.10779   0.00000  Uiso   1.00
H185   H     0.69279   0.17820   0.39175   0.00000  Uiso   1.00
H186   H     0.99860   0.18347   0.47108   0.00000  Uiso   1.00
H187   H     0.99850   0.13183   0.03145   0.00000  Uiso   1.00
H188   H     0.84821   0.18537   0.07552   0.00000  Uiso   1.00
H189   H     0.81787   0.09742   0.43531   0.00000  Uiso   1.00
H190   H     0.92345   0.03727   0.25207   0.00000  Uiso   1.00
N191   N     0.78403   0.16668   0.24999   0.00000  Uiso   1.00
N192   N     0.88264   0.16666   0.25001   0.00000  Uiso   1.00
O193   O     0.70625   0.10655   0.25000   0.00000  Uiso   1.00
O194   O     0.81765   0.15055   0.14457   0.00000  Uiso   1.00
O195   O     0.87791   0.10557   0.36003   0.00000  Uiso   1.00
O196   O     0.83555   0.16508   0.38037   0.00000  Uiso   1.00
O197   O     0.96042   0.22678   0.25000   0.00000  Uiso   1.00
O198   O     0.96039   0.10654   0.25001   0.00000  Uiso   1.00
O199   O     0.70628   0.22679   0.24999   0.00000  Uiso   1.00
O200   O     0.68519   0.16668   0.31491   0.00000  Uiso   1.00
O201   O     0.98148   0.16666   0.18509   0.00000  Uiso   1.00
O202   O     0.93933   0.16667   0.31492   0.00000  Uiso   1.00
O203   O     0.72733   0.16667   0.18508   0.00000  Uiso   1.00
O204   O     0.79698   0.09007   0.11878   0.00000  Uiso   1.00
C205   C     0.33331   0.42068   0.25002   0.00000  Uiso   1.00
C206   C     0.04296   0.35465   0.24883   0.00000  Uiso   1.00
C207   C     0.00003   0.62394   0.24995   0.00000  Uiso   1.00
C208   C     0.33333   0.37608   0.25000   0.00000  Uiso   1.00
C209   C     0.18594   0.46785   0.26777   0.00000  Uiso   1.00
C210   C     0.14750   0.53196   0.23175   0.00000  Uiso   1.00
C211   C     0.13628   0.46800   0.26808   0.00000  Uiso   1.00
C212   C     0.19711   0.53193   0.23172   0.00000  Uiso   1.00
C213   C     0.30559   0.49752   0.33580   0.00000  Uiso   1.00
C214   C     0.02774   0.49704   0.16444   0.00000  Uiso   1.00
C215   C     0.28928   0.49292   0.38443   0.00000  Uiso   1.00
C216   C     0.00003   0.57932   0.24997   0.00000  Uiso   1.00
C217   C     0.04447   0.48892   0.11674   0.00000  Uiso   1.00
C218   C     0.30642   0.50585   0.45380   0.00000  Uiso   1.00
C219   C     0.02558   0.47223   0.04854   0.00000  Uiso   1.00
C220   C     0.32212   0.50302   0.40836   0.00000  Uiso   1.00
C221   C     0.01040   0.48518   0.09227   0.00000  Uiso   1.00
C222   C     0.24063   0.48067   0.40715   0.00000  Uiso   1.00
C223   C     0.09459   0.48122   0.09580   0.00000  Uiso   1.00
C224   C     0.22446   0.48178   0.45428   0.00000  Uiso   1.00
C225   C     0.11030   0.47893   0.04950   0.00000  Uiso   1.00
C226   C     0.25779   0.49762   0.47650   0.00000  Uiso   1.00
C227   C     0.19311   0.50435   0.04362   0.00000  Uiso   1.00
C228   C     0.07546   0.46869   0.02716   0.00000  Uiso   1.00
C229   C     0.17559   0.47170   0.48025   0.00000  Uiso   1.00
C230   C     0.15995   0.48425   0.02503   0.00000  Uiso   1.00
C231   C     0.12592   0.46083   0.12049   0.00000  Uiso   1.00
C232   C     0.20640   0.47092   0.38102   0.00000  Uiso   1.00
C233   C     0.14111   0.45000   0.46396   0.00000  Uiso   1.00
C234   C     0.24174   0.50833   0.02079   0.00000  Uiso   1.00
C235   C     0.09136   0.45219   0.48504   0.00000  Uiso   1.00
C236   C     0.29038   0.35461   0.25112   0.00000  Uiso   1.00
C237   C     0.04297   0.64541   0.24882   0.00000  Uiso   1.00
C238   C     0.29040   0.64537   0.25108   0.00000  Uiso   1.00
Cu239  Cu    0.04689   0.50001   0.25000   0.00000  Uiso   1.00
Cu240  Cu    0.28645   0.49999   0.25000   0.00000  Uiso   1.00
H241   H     0.26625   0.52282   0.03708   0.00000  Uiso   1.00
H242   H     0.07656   0.62942   0.24788   0.00000  Uiso   1.00
H243   H     0.20011   0.44193   0.28179   0.00000  Uiso   1.00
H244   H     0.13354   0.55741   0.21674   0.00000  Uiso   1.00
H245   H     0.11315   0.44243   0.28285   0.00000  Uiso   1.00
H246   H     0.22030   0.55739   0.21677   0.00000  Uiso   1.00
H247   H     0.17142   0.46609   0.15903   0.00000  Uiso   1.00
H248   H     0.14731   0.48806   0.36201   0.00000  Uiso   1.00
H249   H     0.25682   0.62935   0.25199   0.00000  Uiso   1.00
H250   H     0.07654   0.37067   0.24790   0.00000  Uiso   1.00
H251   H     0.06552   0.43914   0.46928   0.00000  Uiso   1.00
H252   H     0.30507   0.48918   0.10779   0.00000  Uiso   1.00
H253   H     0.02612   0.51154   0.39175   0.00000  Uiso   1.00
H254   H     0.33194   0.51681   0.47108   0.00000  Uiso   1.00
H255   H     0.33184   0.46516   0.03145   0.00000  Uiso   1.00
H256   H     0.18154   0.51870   0.07552   0.00000  Uiso   1.00
H257   H     0.15120   0.43075   0.43531   0.00000  Uiso   1.00
H258   H     0.25679   0.37060   0.25207   0.00000  Uiso   1.00
N259   N     0.11736   0.50001   0.24999   0.00000  Uiso   1.00
N260   N     0.21597   0.49999   0.25001   0.00000  Uiso   1.00
O261   O     0.03958   0.43989   0.25000   0.00000  Uiso   1.00
O262   O     0.15098   0.48389   0.14457   0.00000  Uiso   1.00
O263   O     0.21125   0.43891   0.36003   0.00000  Uiso   1.00
O264   O     0.16888   0.49841   0.38037   0.00000  Uiso   1.00
O265   O     0.29375   0.56011   0.25000   0.00000  Uiso   1.00
O266   O     0.29372   0.43988   0.25001   0.00000  Uiso   1.00
O267   O     0.03961   0.56012   0.24999   0.00000  Uiso   1.00
O268   O     0.01852   0.50001   0.31491   0.00000  Uiso   1.00
O269   O     0.31481   0.49999   0.18509   0.00000  Uiso   1.00
O270   O     0.27267   0.50000   0.31492   0.00000  Uiso   1.00
O271   O     0.06067   0.50000   0.18508   0.00000  Uiso   1.00
O272   O     0.13031   0.42341   0.11878   0.00000  Uiso   1.00
C273   C     0.66665   0.42068   0.25002   0.00000  Uiso   1.00
C274   C     0.37629   0.35465   0.24883   0.00000  Uiso   1.00
C275   C     0.33336   0.62394   0.24995   0.00000  Uiso   1.00
C276   C     0.66666   0.37608   0.25000   0.00000  Uiso   1.00
C277   C     0.51927   0.46785   0.26777   0.00000  Uiso   1.00
C278   C     0.48084   0.53196   0.23175   0.00000  Uiso   1.00
C279   C     0.46961   0.46800   0.26808   0.00000  Uiso   1.00
C280   C     0.53044   0.53193   0.23172   0.00000  Uiso   1.00
C281   C     0.63892   0.49752   0.33580   0.00000  Uiso   1.00
C282   C     0.36108   0.49704   0.16444   0.00000  Uiso   1.00
C283   C     0.62262   0.49292   0.38443   0.00000  Uiso   1.00
C284   C     0.33336   0.57932   0.24997   0.00000  Uiso   1.00
C285   C     0.37781   0.48892   0.11674   0.00000  Uiso   1.00
C286   C     0.63975   0.50585   0.45380   0.00000  Uiso   1.00
C287   C     0.35892   0.47223   0.04854   0.00000  Uiso   1.00
C288   C     0.65545   0.50302   0.40836   0.00000  Uiso   1.00
C289   C     0.34373   0.48518   0.09227   0.00000  Uiso   1.00
C290   C     0.57396   0.48067   0.40715   0.00000  Uiso   1.00
C291   C     0.42792   0.48122   0.09580   0.00000  Uiso   1.00
C292   C     0.55779   0.48178   0.45428   0.00000  Uiso   1.00
C293   C     0.44364   0.47893   0.04950   0.00000  Uiso   1.00
C294   C     0.59113   0.49762   0.47650   0.00000  Uiso   1.00
C295   C     0.52645   0.50435   0.04362   0.00000  Uiso   1.00
C296   C     0.40879   0.46869   0.02716   0.00000  Uiso   1.00
C297   C     0.50893   0.47170   0.48025   0.00000  Uiso   1.00
C298   C     0.49328   0.48425   0.02503   0.00000  Uiso   1.00
C299   C     0.45925   0.46083   0.12049   0.00000  Uiso   1.00
C300   C     0.53974   0.47092   0.38102   0.00000  Uiso   1.00
C301   C     0.47444   0.45000   0.46396   0.00000  Uiso   1.00
C302   C     0.57507   0.50833   0.02079   0.00000  Uiso   1.00
C303   C     0.42469   0.45219   0.48504   0.00000  Uiso   1.00
C304   C     0.62372   0.35461   0.25112   0.00000  Uiso   1.00
C305   C     0.37630   0.64541   0.24882   0.00000  Uiso   1.00
C306   C     0.62374   0.64537   0.25108   0.00000  Uiso   1.00
Cu307  Cu    0.38022   0.50001   0.25000   0.00000  Uiso   1.00
Cu308  Cu    0.61978   0.49999   0.25000   0.00000  Uiso   1.00
H309   H     0.59959   0.52282   0.03708   0.00000  Uiso   1.00
H310   H     0.40990   0.62942   0.24788   0.00000  Uiso   1.00
H311   H     0.53344   0.44193   0.28179   0.00000  Uiso   1.00
H312   H     0.46687   0.55741   0.21674   0.00000  Uiso   1.00
H313   H     0.44648   0.44243   0.28285   0.00000  Uiso   1.00
H314   H     0.55364   0.55739   0.21677   0.00000  Uiso   1.00
H315   H     0.50476   0.46609   0.15903   0.00000  Uiso   1.00
H316   H     0.48065   0.48806   0.36201   0.00000  Uiso   1.00
H317   H     0.59016   0.62935   0.25199   0.00000  Uiso   1.00
H318   H     0.40988   0.37067   0.24790   0.00000  Uiso   1.00
H319   H     0.39885   0.43914   0.46928   0.00000  Uiso   1.00
H320   H     0.63840   0.48918   0.10779   0.00000  Uiso   1.00
H321   H     0.35945   0.51154   0.39175   0.00000  Uiso   1.00
H322   H     0.66527   0.51681   0.47108   0.00000  Uiso   1.00
H323   H     0.66517   0.46516   0.03145   0.00000  Uiso   1.00
H324   H     0.51487   0.51870   0.07552   0.00000  Uiso   1.00
H325   H     0.48454   0.43075   0.43531   0.00000  Uiso   1.00
H326   H     0.59012   0.37060   0.25207   0.00000  Uiso   1.00
N327   N     0.45069   0.50001   0.24999   0.00000  Uiso   1.00
N328   N     0.54931   0.49999   0.25001   0.00000  Uiso   1.00
O329   O     0.37291   0.43989   0.25000   0.00000  Uiso   1.00
O330   O     0.48431   0.48389   0.14457   0.00000  Uiso   1.00
O331   O     0.54458   0.43891   0.36003   0.00000  Uiso   1.00
O332   O     0.50222   0.49841   0.38037   0.00000  Uiso   1.00
O333   O     0.62709   0.56011   0.25000   0.00000  Uiso   1.00
O334   O     0.62706   0.43988   0.25001   0.00000  Uiso   1.00
O335   O     0.37294   0.56012   0.24999   0.00000  Uiso   1.00
O336   O     0.35186   0.50001   0.31491   0.00000  Uiso   1.00
O337   O     0.64814   0.49999   0.18509   0.00000  Uiso   1.00
O338   O     0.60600   0.50000   0.31492   0.00000  Uiso   1.00
O339   O     0.39400   0.50000   0.18508   0.00000  Uiso   1.00
O340   O     0.46364   0.42341   0.11878   0.00000  Uiso   1.00
C341   C     0.99998   0.42068   0.25002   0.00000  Uiso   1.00
C342   C     0.70962   0.35465   0.24883   0.00000  Uiso   1.00
C343   C     0.66669   0.62394   0.24995   0.00000  Uiso   1.00
C344   C     0.99999   0.37608   0.25000   0.00000  Uiso   1.00
C345   C     0.85261   0.46785   0.26777   0.00000  Uiso   1.00
C346   C     0.81417   0.53196   0.23175   0.00000  Uiso   1.00
C347   C     0.80294   0.46800   0.26808   0.00000  Uiso   1.00
C348   C     0.86377   0.53193   0.23172   0.00000  Uiso   1.00
C349   C     0.97225   0.49752   0.33580   0.00000  Uiso   1.00
C350   C     0.69441   0.49704   0.16444   0.00000  Uiso   1.00
C351   C     0.95595   0.49292   0.38443   0.00000  Uiso   1.00
C352   C     0.66669   0.57932   0.24997   0.00000  Uiso   1.00
C353   C     0.71114   0.48892   0.11674   0.00000  Uiso   1.00
C354   C     0.97308   0.50585   0.45380   0.00000  Uiso   1.00
C355   C     0.69225   0.47223   0.04854   0.00000  Uiso   1.00
C356   C     0.98878   0.50302   0.40836   0.00000  Uiso   1.00
C357   C     0.67706   0.48518   0.09227   0.00000  Uiso   1.00
C358   C     0.90729   0.48067   0.40715   0.00000  Uiso   1.00
C359   C     0.76125   0.48122   0.09580   0.00000  Uiso   1.00
C360   C     0.89113   0.48178   0.45428   0.00000  Uiso   1.00
C361   C     0.77697   0.47893   0.04950   0.00000  Uiso   1.00
C362   C     0.92446   0.49762   0.47650   0.00000  Uiso   1.00
C363   C     0.85978   0.50435   0.04362   0.00000  Uiso   1.00
C364   C     0.74213   0.46869   0.02716   0.00000  Uiso   1.00
C365   C     0.84226   0.47170   0.48025   0.00000  Uiso   1.00
C366   C     0.82661   0.48425   0.02503   0.00000  Uiso   1.00
C367   C     0.79259   0.46083   0.12049   0.00000  Uiso   1.00
C368   C     0.87307   0.47092   0.38102   0.00000  Uiso   1.00
C369   C     0.80778   0.45000   0.46396   0.00000  Uiso   1.00
C370   C     0.90840   0.50833   0.02079   0.00000  Uiso   1.00
C371   C     0.75803   0.45219   0.48504   0.00000  Uiso   1.00
C372   C     0.95705   0.35461   0.25112   0.00000  Uiso   1.00
C373   C     0.70964   0.64541   0.24882   0.00000  Uiso   1.00
C374   C     0.95707   0.64537   0.25108   0.00000  Uiso   1.00
Cu375  Cu    0.71355   0.50001   0.25000   0.00000  Uiso   1.00
Cu376  Cu    0.95311   0.49999   0.25000   0.00000  Uiso   1.00
H377   H     0.93292   0.52282   0.03708   0.00000  Uiso   1.00
H378   H     0.74323   0.62942   0.24788   0.00000  Uiso   1.00
H379   H     0.86677   0.44193   0.28179   0.00000  Uiso   1.00
H380   H     0.80020   0.55741   0.21674   0.00000  Uiso   1.00
H381   H     0.77982   0.44243   0.28285   0.00000  Uiso   1.00
H382   H     0.88697   0.55739   0.21677   0.00000  Uiso   1.00
H383   H     0.83809   0.46609   0.15903   0.00000  Uiso   1.00
H384   H     0.81398   0.48806   0.36201   0.00000  Uiso   1.00
H385   H     0.92349   0.62935   0.25199   0.00000  Uiso   1.00
H386   H     0.74321   0.37067   0.24790   0.00000  Uiso   1.00
H387   H     0.73218   0.43914   0.46928   0.00000  Uiso   1.00
H388   H     0.97173   0.48918   0.10779   0.00000  Uiso   1.00
H389   H     0.69279   0.51154   0.39175   0.00000  Uiso   1.00
H390   H     0.99860   0.51681   0.47108   0.00000  Uiso   1.00
H391   H     0.99850   0.46516   0.03145   0.00000  Uiso   1.00
H392   H     0.84821   0.51870   0.07552   0.00000  Uiso   1.00
H393   H     0.81787   0.43075   0.43531   0.00000  Uiso   1.00
H394   H     0.92345   0.37060   0.25207   0.00000  Uiso   1.00
N395   N     0.78403   0.50001   0.24999   0.00000  Uiso   1.00
N396   N     0.88264   0.49999   0.25001   0.00000  Uiso   1.00
O397   O     0.70625   0.43989   0.25000   0.00000  Uiso   1.00
O398   O     0.81765   0.48389   0.14457   0.00000  Uiso   1.00
O399   O     0.87791   0.43891   0.36003   0.00000  Uiso   1.00
O400   O     0.83555   0.49841   0.38037   0.00000  Uiso   1.00
O401   O     0.96042   0.56011   0.25000   0.00000  Uiso   1.00
O402   O     0.96039   0.43988   0.25001   0.00000  Uiso   1.00
O403   O     0.70628   0.56012   0.24999   0.00000  Uiso   1.00
O404   O     0.68519   0.50001   0.31491   0.00000  Uiso   1.00
O405   O     0.98148   0.49999   0.18509   0.00000  Uiso   1.00
O406   O     0.93933   0.50000   0.31492   0.00000  Uiso   1.00
O407   O     0.72733   0.50000   0.18508   0.00000  Uiso   1.00
O408   O     0.79698   0.42341   0.11878   0.00000  Uiso   1.00
C409   C     0.33331   0.75401   0.25002   0.00000  Uiso   1.00
C410   C     0.04296   0.68798   0.24883   0.00000  Uiso   1.00
C411   C     0.00003   0.95727   0.24995   0.00000  Uiso   1.00
C412   C     0.33333   0.70941   0.25000   0.00000  Uiso   1.00
C413   C     0.18594   0.80118   0.26777   0.00000  Uiso   1.00
C414   C     0.14750   0.86529   0.23175   0.00000  Uiso   1.00
C415   C     0.13628   0.80133   0.26808   0.00000  Uiso   1.00
C416   C     0.19711   0.86526   0.23172   0.00000  Uiso   1.00
C417   C     0.30559   0.83085   0.33580   0.00000  Uiso   1.00
C418   C     0.02774   0.83038   0.16444   0.00000  Uiso   1.00
C419   C     0.28928   0.82625   0.38443   0.00000  Uiso   1.00
C420   C     0.00003   0.91266   0.24997   0.00000  Uiso   1.00
C421   C     0.04447   0.82226   0.11674   0.00000  Uiso   1.00
C422   C     0.30642   0.83918   0.45380   0.00000  Uiso   1.00
C423   C     0.02558   0.80557   0.04854   0.00000  Uiso   1.00
C424   C     0.32212   0.83636   0.40836   0.00000  Uiso   1.00
C425   C     0.01040   0.81852   0.09227   0.00000  Uiso   1.00
C426   C     0.24063   0.81400   0.40715   0.00000  Uiso   1.00
C427   C     0.09459   0.81455   0.09580   0.00000  Uiso   1.00
C428   C     0.22446   0.81511   0.45428   0.00000  Uiso   1.00
C429   C     0.11030   0.81227   0.04950   0.00000  Uiso   1.00
C430   C     0.25779   0.83095   0.47650   0.00000  Uiso   1.00
C431   C     0.19311   0.83769   0.04362   0.00000  Uiso   1.00
C432   C     0.07546   0.80202   0.02716   0.00000  Uiso   1.00
C433   C     0.17559   0.80503   0.48025   0.00000  Uiso   1.00
C434   C     0.15995   0.81758   0.02503   0.00000  Uiso   1.00
C435   C     0.12592   0.79416   0.12049   0.00000  Uiso   1.00
C436   C     0.20640   0.80426   0.38102   0.00000  Uiso   1.00
C437   C     0.14111   0.78333   0.46396   0.00000  Uiso   1.00
C438   C     0.24174   0.84167   0.02079   0.00000  Uiso   1.00
C439   C     0.09136   0.78552   0.48504   0.00000  Uiso   1.00
C440   C     0.29038   0.68794   0.25112   0.00000  Uiso   1.00
C441   C     0.04297   0.97875   0.24882   0.00000  Uiso   1.00
C442   C     0.29040   0.97871   0.25108   0.00000  Uiso   1.00
Cu443  Cu    0.04689   0.83334   0.25000   0.00000  Uiso   1.00
Cu444  Cu    0.28645   0.83333   0.25000   0.00000  Uiso   1.00
H445   H     0.26625   0.85616   0.03708   0.00000  Uiso   1.00
H446   H     0.07656   0.96275   0.24788   0.00000  Uiso   1.00
H447   H     0.20011   0.77527   0.28179   0.00000  Uiso   1.00
H448   H     0.13354   0.89074   0.21674   0.00000  Uiso   1.00
H449   H     0.11315   0.77577   0.28285   0.00000  Uiso   1.00
H450   H     0.22030   0.89073   0.21677   0.00000  Uiso   1.00
H451   H     0.17142   0.79943   0.15903   0.00000  Uiso   1.00
H452   H     0.14731   0.82139   0.36201   0.00000  Uiso   1.00
H453   H     0.25682   0.96268   0.25199   0.00000  Uiso   1.00
H454   H     0.07654   0.70401   0.24790   0.00000  Uiso   1.00
H455   H     0.06552   0.77247   0.46928   0.00000  Uiso   1.00
H456   H     0.30507   0.82252   0.10779   0.00000  Uiso   1.00
H457   H     0.02612   0.84487   0.39175   0.00000  Uiso   1.00
H458   H     0.33194   0.85014   0.47108   0.00000  Uiso   1.00
H459   H     0.33184   0.79849   0.03145   0.00000  Uiso   1.00
H460   H     0.18154   0.85203   0.07552   0.00000  Uiso   1.00
H461   H     0.15120   0.76409   0.43531   0.00000  Uiso   1.00
H462   H     0.25679   0.70394   0.25207   0.00000  Uiso   1.00
N463   N     0.11736   0.83334   0.24999   0.00000  Uiso   1.00
N464   N     0.21597   0.83332   0.25001   0.00000  Uiso   1.00
O465   O     0.03958   0.77322   0.25000   0.00000  Uiso   1.00
O466   O     0.15098   0.81722   0.14457   0.00000  Uiso   1.00
O467   O     0.21125   0.77224   0.36003   0.00000  Uiso   1.00
O468   O     0.16888   0.83174   0.38037   0.00000  Uiso   1.00
O469   O     0.29375   0.89345   0.25000   0.00000  Uiso   1.00
O470   O     0.29372   0.77321   0.25001   0.00000  Uiso   1.00
O471   O     0.03961   0.89346   0.24999   0.00000  Uiso   1.00
O472   O     0.01852   0.83334   0.31491   0.00000  Uiso   1.00
O473   O     0.31481   0.83332   0.18509   0.00000  Uiso   1.00
O474   O     0.27267   0.83333   0.31492   0.00000  Uiso   1.00
O475   O     0.06067   0.83333   0.18508   0.00000  Uiso   1.00
O476   O     0.13031   0.75674   0.11878   0.00000  Uiso   1.00
C477   C     0.66665   0.75401   0.25002   0.00000  Uiso   1.00
C478   C     0.37629   0.68798   0.24883   0.00000  Uiso   1.00
C479   C     0.33336   0.95727   0.24995   0.00000  Uiso   1.00
C480   C     0.66666   0.70941   0.25000   0.00000  Uiso   1.00
C481   C     0.51927   0.80118   0.26777   0.00000  Uiso   1.00
C482   C     0.48084   0.86529   0.23175   0.00000  Uiso   1.00
C483   C     0.46961   0.80133   0.26808   0.00000  Uiso   1.00
C484   C     0.53044   0.86526   0.23172   0.00000  Uiso   1.00
C485   C     0.63892   0.83085   0.33580   0.00000  Uiso   1.00
C486   C     0.36108   0.83038   0.16444   0.00000  Uiso   1.00
C487   C     0.62262   0.82625   0.38443   0.00000  Uiso   1.00
C488   C     0.33336   0.91266   0.24997   0.00000  Uiso   1.00
C489   C     0.37781   0.82226   0.11674   0.00000  Uiso   1.00
C490   C     0.63975   0.83918   0.45380   0.00000  Uiso   1.00
C491   C     0.35892   0.80557   0.04854   0.00000  Uiso   1.00
C492   C     0.65545   0.83636   0.40836   0.00000  Uiso   1.00
C493   C     0.34373   0.81852   0.09227   0.00000  Uiso   1.00
C494   C     0.57396   0.81400   0.40715   0.00000  Uiso   1.00
C495   C     0.42792   0.81455   0.09580   0.00000  Uiso   1.00
C496   C     0.55779   0.81511   0.45428   0.00000  Uiso   1.00
C497   C     0.44364   0.81227   0.04950   0.00000  Uiso   1.00
C498   C     0.59113   0.83095   0.47650   0.00000  Uiso   1.00
C499   C     0.52645   0.83769   0.04362   0.00000  Uiso   1.00
C500   C     0.40879   0.80202   0.02716   0.00000  Uiso   1.00
C501   C     0.50893   0.80503   0.48025   0.00000  Uiso   1.00
C502   C     0.49328   0.81758   0.02503   0.00000  Uiso   1.00
C503   C     0.45925   0.79416   0.12049   0.00000  Uiso   1.00
C504   C     0.53974   0.80426   0.38102   0.00000  Uiso   1.00
C505   C     0.47444   0.78333   0.46396   0.00000  Uiso   1.00
C506   C     0.57507   0.84167   0.02079   0.00000  Uiso   1.00
C507   C     0.42469   0.78552   0.48504   0.00000  Uiso   1.00
C508   C     0.62372   0.68794   0.25112   0.00000  Uiso   1.00
C509   C     0.37630   0.97875   0.24882   0.00000  Uiso   1.00
C510   C     0.62374   0.97871   0.25108   0.00000  Uiso   1.00
Cu511  Cu    0.38022   0.83334   0.25000   0.00000  Uiso   1.00
Cu512  Cu    0.61978   0.83333   0.25000   0.00000  Uiso   1.00
H513   H     0.59959   0.85616   0.03708   0.00000  Uiso   1.00
H514   H     0.40990   0.96275   0.24788   0.00000  Uiso   1.00
H515   H     0.53344   0.77527   0.28179   0.00000  Uiso   1.00
H516   H     0.46687   0.89074   0.21674   0.00000  Uiso   1.00
H517   H     0.44648   0.77577   0.28285   0.00000  Uiso   1.00
H518   H     0.55364   0.89073   0.21677   0.00000  Uiso   1.00
H519   H     0.50476   0.79943   0.15903   0.00000  Uiso   1.00
H520   H     0.48065   0.82139   0.36201   0.00000  Uiso   1.00
H521   H     0.59016   0.96268   0.25199   0.00000  Uiso   1.00
H522   H     0.40988   0.70401   0.24790   0.00000  Uiso   1.00
H523   H     0.39885   0.77247   0.46928   0.00000  Uiso   1.00
H524   H     0.63840   0.82252   0.10779   0.00000  Uiso   1.00
H525   H     0.35945   0.84487   0.39175   0.00000  Uiso   1.00
H526   H     0.66527   0.85014   0.47108   0.00000  Uiso   1.00
H527   H     0.66517   0.79849   0.03145   0.00000  Uiso   1.00
H528   H     0.51487   0.85203   0.07552   0.00000  Uiso   1.00
H529   H     0.48454   0.76409   0.43531   0.00000  Uiso   1.00
H530   H     0.59012   0.70394   0.25207   0.00000  Uiso   1.00
N531   N     0.45069   0.83334   0.24999   0.00000  Uiso   1.00
N532   N     0.54931   0.83332   0.25001   0.00000  Uiso   1.00
O533   O     0.37291   0.77322   0.25000   0.00000  Uiso   1.00
O534   O     0.48431   0.81722   0.14457   0.00000  Uiso   1.00
O535   O     0.54458   0.77224   0.36003   0.00000  Uiso   1.00
O536   O     0.50222   0.83174   0.38037   0.00000  Uiso   1.00
O537   O     0.62709   0.89345   0.25000   0.00000  Uiso   1.00
O538   O     0.62706   0.77321   0.25001   0.00000  Uiso   1.00
O539   O     0.37294   0.89346   0.24999   0.00000  Uiso   1.00
O540   O     0.35186   0.83334   0.31491   0.00000  Uiso   1.00
O541   O     0.64814   0.83332   0.18509   0.00000  Uiso   1.00
O542   O     0.60600   0.83333   0.31492   0.00000  Uiso   1.00
O543   O     0.39400   0.83333   0.18508   0.00000  Uiso   1.00
O544   O     0.46364   0.75674   0.11878   0.00000  Uiso   1.00
C545   C     0.99998   0.75401   0.25002   0.00000  Uiso   1.00
C546   C     0.70962   0.68798   0.24883   0.00000  Uiso   1.00
C547   C     0.66669   0.95727   0.24995   0.00000  Uiso   1.00
C548   C     0.99999   0.70941   0.25000   0.00000  Uiso   1.00
C549   C     0.85261   0.80118   0.26777   0.00000  Uiso   1.00
C550   C     0.81417   0.86529   0.23175   0.00000  Uiso   1.00
C551   C     0.80294   0.80133   0.26808   0.00000  Uiso   1.00
C552   C     0.86377   0.86526   0.23172   0.00000  Uiso   1.00
C553   C     0.97225   0.83085   0.33580   0.00000  Uiso   1.00
C554   C     0.69441   0.83038   0.16444   0.00000  Uiso   1.00
C555   C     0.95595   0.82625   0.38443   0.00000  Uiso   1.00
C556   C     0.66669   0.91266   0.24997   0.00000  Uiso   1.00
C557   C     0.71114   0.82226   0.11674   0.00000  Uiso   1.00
C558   C     0.97308   0.83918   0.45380   0.00000  Uiso   1.00
C559   C     0.69225   0.80557   0.04854   0.00000  Uiso   1.00
C560   C     0.98878   0.83636   0.40836   0.00000  Uiso   1.00
C561   C     0.67706   0.81852   0.09227   0.00000  Uiso   1.00
C562   C     0.90729   0.81400   0.40715   0.00000  Uiso   1.00
C563   C     0.76125   0.81455   0.09580   0.00000  Uiso   1.00
C564   C     0.89113   0.81511   0.45428   0.00000  Uiso   1.00
C565   C     0.77697   0.81227   0.04950   0.00000  Uiso   1.00
C566   C     0.92446   0.83095   0.47650   0.00000  Uiso   1.00
C567   C     0.85978   0.83769   0.04362   0.00000  Uiso   1.00
C568   C     0.74213   0.80202   0.02716   0.00000  Uiso   1.00
C569   C     0.84226   0.80503   0.48025   0.00000  Uiso   1.00
C570   C     0.82661   0.81758   0.02503   0.00000  Uiso   1.00
C571   C     0.79259   0.79416   0.12049   0.00000  Uiso   1.00
C572   C     0.87307   0.80426   0.38102   0.00000  Uiso   1.00
C573   C     0.80778   0.78333   0.46396   0.00000  Uiso   1.00
C574   C     0.90840   0.84167   0.02079   0.00000  Uiso   1.00
C575   C     0.75803   0.78552   0.48504   0.00000  Uiso   1.00
C576   C     0.95705   0.68794   0.25112   0.00000  Uiso   1.00
C577   C     0.70964   0.97875   0.24882   0.00000  Uiso   1.00
C578   C     0.95707   0.97871   0.25108   0.00000  Uiso   1.00
Cu579  Cu    0.71355   0.83334   0.25000   0.00000  Uiso   1.00
Cu580  Cu    0.95311   0.83333   0.25000   0.00000  Uiso   1.00
H581   H     0.93292   0.85616   0.03708   0.00000  Uiso   1.00
H582   H     0.74323   0.96275   0.24788   0.00000  Uiso   1.00
H583   H     0.86677   0.77527   0.28179   0.00000  Uiso   1.00
H584   H     0.80020   0.89074   0.21674   0.00000  Uiso   1.00
H585   H     0.77982   0.77577   0.28285   0.00000  Uiso   1.00
H586   H     0.88697   0.89073   0.21677   0.00000  Uiso   1.00
H587   H     0.83809   0.79943   0.15903   0.00000  Uiso   1.00
H588   H     0.81398   0.82139   0.36201   0.00000  Uiso   1.00
H589   H     0.92349   0.96268   0.25199   0.00000  Uiso   1.00
H590   H     0.74321   0.70401   0.24790   0.00000  Uiso   1.00
H591   H     0.73218   0.77247   0.46928   0.00000  Uiso   1.00
H592   H     0.97173   0.82252   0.10779   0.00000  Uiso   1.00
H593   H     0.69279   0.84487   0.39175   0.00000  Uiso   1.00
H594   H     0.99860   0.85014   0.47108   0.00000  Uiso   1.00
H595   H     0.99850   0.79849   0.03145   0.00000  Uiso   1.00
H596   H     0.84821   0.85203   0.07552   0.00000  Uiso   1.00
H597   H     0.81787   0.76409   0.43531   0.00000  Uiso   1.00
H598   H     0.92345   0.70394   0.25207   0.00000  Uiso   1.00
N599   N     0.78403   0.83334   0.24999   0.00000  Uiso   1.00
N600   N     0.88264   0.83332   0.25001   0.00000  Uiso   1.00
O601   O     0.70625   0.77322   0.25000   0.00000  Uiso   1.00
O602   O     0.81765   0.81722   0.14457   0.00000  Uiso   1.00
O603   O     0.87791   0.77224   0.36003   0.00000  Uiso   1.00
O604   O     0.83555   0.83174   0.38037   0.00000  Uiso   1.00
O605   O     0.96042   0.89345   0.25000   0.00000  Uiso   1.00
O606   O     0.96039   0.77321   0.25001   0.00000  Uiso   1.00
O607   O     0.70628   0.89346   0.24999   0.00000  Uiso   1.00
O608   O     0.68519   0.83334   0.31491   0.00000  Uiso   1.00
O609   O     0.98148   0.83332   0.18509   0.00000  Uiso   1.00
O610   O     0.93933   0.83333   0.31492   0.00000  Uiso   1.00
O611   O     0.72733   0.83333   0.18508   0.00000  Uiso   1.00
O612   O     0.79698   0.75674   0.11878   0.00000  Uiso   1.00
C613   C     0.33331   0.08735   0.75002   0.00000  Uiso   1.00
C614   C     0.04296   0.02131   0.74883   0.00000  Uiso   1.00
C615   C     0.00003   0.29061   0.74995   0.00000  Uiso   1.00
C616   C     0.33333   0.04274   0.75000   0.00000  Uiso   1.00
C617   C     0.18594   0.13452   0.76777   0.00000  Uiso   1.00
C618   C     0.14750   0.19863   0.73175   0.00000  Uiso   1.00
C619   C     0.13628   0.13466   0.76808   0.00000  Uiso   1.00
C620   C     0.19711   0.19860   0.73172   0.00000  Uiso   1.00
C621   C     0.30559   0.16419   0.83580   0.00000  Uiso   1.00
C622   C     0.02774   0.16371   0.66444   0.00000  Uiso   1.00
C623   C     0.28928   0.15958   0.88443   0.00000  Uiso   1.00
C624   C     0.00003   0.24599   0.74997   0.00000  Uiso   1.00
C625   C     0.04447   0.15559   0.61674   0.00000  Uiso   1.00
C626   C     0.30642   0.17252   0.95380   0.00000  Uiso   1.00
C627   C     0.02558   0.13890   0.54854   0.00000  Uiso   1.00
C628   C     0.32212   0.16969   0.90836   0.00000  Uiso   1.00
C629   C     0.01040   0.15185   0.59227   0.00000  Uiso   1.00
C630   C     0.24063   0.14734   0.90715   0.00000  Uiso   1.00
C631   C     0.09459   0.14788   0.59580   0.00000  Uiso   1.00
C632   C     0.22446   0.14844   0.95428   0.00000  Uiso   1.00
C633   C     0.11030   0.14560   0.54950   0.00000  Uiso   1.00
C634   C     0.25779   0.16428   0.97650   0.00000  Uiso   1.00
C635   C     0.19311   0.17102   0.54362   0.00000  Uiso   1.00
C636   C     0.07546   0.13536   0.52716   0.00000  Uiso   1.00
C637   C     0.17559   0.13837   0.98025   0.00000  Uiso   1.00
C638   C     0.15995   0.15092   0.52503   0.00000  Uiso   1.00
C639   C     0.12592   0.12750   0.62049   0.00000  Uiso   1.00
C640   C     0.20640   0.13759   0.88102   0.00000  Uiso   1.00
C641   C     0.14111   0.11666   0.96396   0.00000  Uiso   1.00
C642   C     0.24174   0.17500   0.52079   0.00000  Uiso   1.00
C643   C     0.09136   0.11885   0.98504   0.00000  Uiso   1.00
C644   C     0.29038   0.02127   0.75112   0.00000  Uiso   1.00
C645   C     0.04297   0.31208   0.74882   0.00000  Uiso   1.00
C646   C     0.29040   0.31204   0.75108   0.00000  Uiso   1.00
Cu647  Cu    0.04689   0.16667   0.75000   0.00000  Uiso   1.00
Cu648  Cu    0.28645   0.16666   0.75000   0.00000  Uiso   1.00
H649   H     0.26625   0.18949   0.53708   0.00000  Uiso   1.00
H650   H     0.07656   0.29608   0.74788   0.00000  Uiso   1.00
H651   H     0.20011   0.10860   0.78179   0.00000  Uiso   1.00
H652   H     0.13354   0.22408   0.71674   0.00000  Uiso   1.00
H653   H     0.11315   0.10910   0.78285   0.00000  Uiso   1.00
H654   H     0.22030   0.22406   0.71677   0.00000  Uiso   1.00
H655   H     0.17142   0.13276   0.65903   0.00000  Uiso   1.00
H656   H     0.14731   0.15472   0.86201   0.00000  Uiso   1.00
H657   H     0.25682   0.29602   0.75199   0.00000  Uiso   1.00
H658   H     0.07654   0.03734   0.74790   0.00000  Uiso   1.00
H659   H     0.06552   0.10581   0.96928   0.00000  Uiso   1.00
H660   H     0.30507   0.15585   0.60779   0.00000  Uiso   1.00
H661   H     0.02612   0.17820   0.89175   0.00000  Uiso   1.00
H662   H     0.33194   0.18347   0.97108   0.00000  Uiso   1.00
H663   H     0.33184   0.13183   0.53145   0.00000  Uiso   1.00
H664   H     0.18154   0.18537   0.57552   0.00000  Uiso   1.00
H665   H     0.15120   0.09742   0.93531   0.00000  Uiso   1.00
H666   H     0.25679   0.03727   0.75207   0.00000  Uiso   1.00
N667   N     0.11736   0.16668   0.74999   0.00000  Uiso   1.00
N668   N     0.21597   0.16666   0.75001   0.00000  Uiso   1.00
O669   O     0.03958   0.10655   0.75000   0.00000  Uiso   1.00
O670   O     0.15098   0.15055   0.64457   0.00000  Uiso   1.00
O671   O     0.21125   0.10557   0.86003   0.00000  Uiso   1.00
O672   O     0.16888   0.16508   0.88037   0.00000  Uiso   1.00
O673   O     0.29375   0.22678   0.75000   0.00000  Uiso   1.00
O674   O     0.29372   0.10654   0.75001   0.00000  Uiso   1.00
O675   O     0.03961   0.22679   0.74999   0.00000  Uiso   1.00
O676   O     0.01852   0.16668   0.81491   0.00000  Uiso   1.00
O677   O     0.31481   0.16666   0.68509   0.00000  Uiso   1.00
O678   O     0.27267   0.16667   0.81492   0.00000  Uiso   1.00
O679   O     0.06067   0.16667   0.68508   0.00000  Uiso   1.00
O680   O     0.13031   0.09007   0.61878   0.00000  Uiso   1.00
C681   C     0.66665   0.08735   0.75002   0.00000  Uiso   1.00
C682   C     0.37629   0.02131   0.74883   0.00000  Uiso   1.00
C683   C     0.33336   0.29061   0.74995   0.00000  Uiso   1.00
C684   C     0.66666   0.04274   0.75000   0.00000  Uiso   1.00
C685   C     0.51927   0.13452   0.76777   0.00000  Uiso   1.00
C686   C     0.48084   0.19863   0.73175   0.00000  Uiso   1.00
C687   C     0.46961   0.13466   0.76808   0.00000  Uiso   1.00
C688   C     0.53044   0.19860   0.73172   0.00000  Uiso   1.00
C689   C     0.63892   0.16419   0.83580   0.00000  Uiso   1.00
C690   C     0.36108   0.16371   0.66444   0.00000  Uiso   1.00
C691   C     0.62262   0.15958   0.88443   0.00000  Uiso   1.00
C692   C     0.33336   0.24599   0.74997   0.00000  Uiso   1.00
C693   C     0.37781   0.15559   0.61674   0.00000  Uiso   1.00
C694   C     0.63975   0.17252   0.95380   0.00000  Uiso   1.00
C695   C     0.35892   0.13890   0.54854   0.00000  Uiso   1.00
C696   C     0.65545   0.16969   0.90836   0.00000  Uiso   1.00
C697   C     0.34373   0.15185   0.59227   0.00000  Uiso   1.00
C698   C     0.57396   0.14734   0.90715   0.00000  Uiso   1.00
C699   C     0.42792   0.14788   0.59580   0.00000  Uiso   1.00
C700   C     0.55779   0.14844   0.95428   0.00000  Uiso   1.00
C701   C     0.44364   0.14560   0.54950   0.00000  Uiso   1.00
C702   C     0.59113   0.16428   0.97650   0.00000  Uiso   1.00
C703   C     0.52645   0.17102   0.54362   0.00000  Uiso   1.00
C704   C     0.40879   0.13536   0.52716   0.00000  Uiso   1.00
C705   C     0.50893   0.13837   0.98025   0.00000  Uiso   1.00
C706   C     0.49328   0.15092   0.52503   0.00000  Uiso   1.00
C707   C     0.45925   0.12750   0.62049   0.00000  Uiso   1.00
C708   C     0.53974   0.13759   0.88102   0.00000  Uiso   1.00
C709   C     0.47444   0.11666   0.96396   0.00000  Uiso   1.00
C710   C     0.57507   0.17500   0.52079   0.00000  Uiso   1.00
C711   C     0.42469   0.11885   0.98504   0.00000  Uiso   1.00
C712   C     0.62372   0.02127   0.75112   0.00000  Uiso   1.00
C713   C     0.37630   0.31208   0.74882   0.00000  Uiso   1.00
C714   C     0.62374   0.31204   0.75108   0.00000  Uiso   1.00
Cu715  Cu    0.38022   0.16667   0.75000   0.00000  Uiso   1.00
Cu716  Cu    0.61978   0.16666   0.75000   0.00000  Uiso   1.00
H717   H     0.59959   0.18949   0.53708   0.00000  Uiso   1.00
H718   H     0.40990   0.29608   0.74788   0.00000  Uiso   1.00
H719   H     0.53344   0.10860   0.78179   0.00000  Uiso   1.00
H720   H     0.46687   0.22408   0.71674   0.00000  Uiso   1.00
H721   H     0.44648   0.10910   0.78285   0.00000  Uiso   1.00
H722   H     0.55364   0.22406   0.71677   0.00000  Uiso   1.00
H723   H     0.50476   0.13276   0.65903   0.00000  Uiso   1.00
H724   H     0.48065   0.15472   0.86201   0.00000  Uiso   1.00
H725   H     0.59016   0.29602   0.75199   0.00000  Uiso   1.00
H726   H     0.40988   0.03734   0.74790   0.00000  Uiso   1.00
H727   H     0.39885   0.10581   0.96928   0.00000  Uiso   1.00
H728   H     0.63840   0.15585   0.60779   0.00000  Uiso   1.00
H729   H     0.35945   0.17820   0.89175   0.00000  Uiso   1.00
H730   H     0.66527   0.18347   0.97108   0.00000  Uiso   1.00
H731   H     0.66517   0.13183   0.53145   0.00000  Uiso   1.00
H732   H     0.51487   0.18537   0.57552   0.00000  Uiso   1.00
H733   H     0.48454   0.09742   0.93531   0.00000  Uiso   1.00
H734   H     0.59012   0.03727   0.75207   0.00000  Uiso   1.00
N735   N     0.45069   0.16668   0.74999   0.00000  Uiso   1.00
N736   N     0.54931   0.16666   0.75001   0.00000  Uiso   1.00
O737   O     0.37291   0.10655   0.75000   0.00000  Uiso   1.00
O738   O     0.48431   0.15055   0.64457   0.00000  Uiso   1.00
O739   O     0.54458   0.10557   0.86003   0.00000  Uiso   1.00
O740   O     0.50222   0.16508   0.88037   0.00000  Uiso   1.00
O741   O     0.62709   0.22678   0.75000   0.00000  Uiso   1.00
O742   O     0.62706   0.10654   0.75001   0.00000  Uiso   1.00
O743   O     0.37294   0.22679   0.74999   0.00000  Uiso   1.00
O744   O     0.35186   0.16668   0.81491   0.00000  Uiso   1.00
O745   O     0.64814   0.16666   0.68509   0.00000  Uiso   1.00
O746   O     0.60600   0.16667   0.81492   0.00000  Uiso   1.00
O747   O     0.39400   0.16667   0.68508   0.00000  Uiso   1.00
O748   O     0.46364   0.09007   0.61878   0.00000  Uiso   1.00
C749   C     0.99998   0.08735   0.75002   0.00000  Uiso   1.00
C750   C     0.70962   0.02131   0.74883   0.00000  Uiso   1.00
C751   C     0.66669   0.29061   0.74995   0.00000  Uiso   1.00
C752   C     0.99999   0.04274   0.75000   0.00000  Uiso   1.00
C753   C     0.85261   0.13452   0.76777   0.00000  Uiso   1.00
C754   C     0.81417   0.19863   0.73175   0.00000  Uiso   1.00
C755   C     0.80294   0.13466   0.76808   0.00000  Uiso   1.00
C756   C     0.86377   0.19860   0.73172   0.00000  Uiso   1.00
C757   C     0.97225   0.16419   0.83580   0.00000  Uiso   1.00
C758   C     0.69441   0.16371   0.66444   0.00000  Uiso   1.00
C759   C     0.95595   0.15958   0.88443   0.00000  Uiso   1.00
C760   C     0.66669   0.24599   0.74997   0.00000  Uiso   1.00
C761   C     0.71114   0.15559   0.61674   0.00000  Uiso   1.00
C762   C     0.97308   0.17252   0.95380   0.00000  Uiso   1.00
C763   C     0.69225   0.13890   0.54854   0.00000  Uiso   1.00
C764   C     0.98878   0.16969   0.90836   0.00000  Uiso   1.00
C765   C     0.67706   0.15185   0.59227   0.00000  Uiso   1.00
C766   C     0.90729   0.14734   0.90715   0.00000  Uiso   1.00
C767   C     0.76125   0.14788   0.59580   0.00000  Uiso   1.00
C768   C     0.89113   0.14844   0.95428   0.00000  Uiso   1.00
C769   C     0.77697   0.14560   0.54950   0.00000  Uiso   1.00
C770   C     0.92446   0.16428   0.97650   0.00000  Uiso   1.00
C771   C     0.85978   0.17102   0.54362   0.00000  Uiso   1.00
C772   C     0.74213   0.13536   0.52716   0.00000  Uiso   1.00
C773   C     0.84226   0.13837   0.98025   0.00000  Uiso   1.00
C774   C     0.82661   0.15092   0.52503   0.00000  Uiso   1.00
C775   C     0.79259   0.12750   0.62049   0.00000  Uiso   1.00
C776   C     0.87307   0.13759   0.88102   0.00000  Uiso   1.00
C777   C     0.80778   0.11666   0.96396   0.00000  Uiso   1.00
C778   C     0.90840   0.17500   0.52079   0.00000  Uiso   1.00
C779   C     0.75803   0.11885   0.98504   0.00000  Uiso   1.00
C780   C     0.95705   0.02127   0.75112   0.00000  Uiso   1.00
C781   C     0.70964   0.31208   0.74882   0.00000  Uiso   1.00
C782   C     0.95707   0.31204   0.75108   0.00000  Uiso   1.00
Cu783  Cu    0.71355   0.16667   0.75000   0.00000  Uiso   1.00
Cu784  Cu    0.95311   0.16666   0.75000   0.00000  Uiso   1.00
H785   H     0.93292   0.18949   0.53708   0.00000  Uiso   1.00
H786   H     0.74323   0.29608   0.74788   0.00000  Uiso   1.00
H787   H     0.86677   0.10860   0.78179   0.00000  Uiso   1.00
H788   H     0.80020   0.22408   0.71674   0.00000  Uiso   1.00
H789   H     0.77982   0.10910   0.78285   0.00000  Uiso   1.00
H790   H     0.88697   0.22406   0.71677   0.00000  Uiso   1.00
H791   H     0.83809   0.13276   0.65903   0.00000  Uiso   1.00
H792   H     0.81398   0.15472   0.86201   0.00000  Uiso   1.00
H793   H     0.92349   0.29602   0.75199   0.00000  Uiso   1.00
H794   H     0.74321   0.03734   0.74790   0.00000  Uiso   1.00
H795   H     0.73218   0.10581   0.96928   0.00000  Uiso   1.00
H796   H     0.97173   0.15585   0.60779   0.00000  Uiso   1.00
H797   H     0.69279   0.17820   0.89175   0.00000  Uiso   1.00
H798   H     0.99860   0.18347   0.97108   0.00000  Uiso   1.00
H799   H     0.99850   0.13183   0.53145   0.00000  Uiso   1.00
H800   H     0.84821   0.18537   0.57552   0.00000  Uiso   1.00
H801   H     0.81787   0.09742   0.93531   0.00000  Uiso   1.00
H802   H     0.92345   0.03727   0.75207   0.00000  Uiso   1.00
N803   N     0.78403   0.16668   0.74999   0.00000  Uiso   1.00
N804   N     0.88264   0.16666   0.75001   0.00000  Uiso   1.00
O805   O     0.70625   0.10655   0.75000   0.00000  Uiso   1.00
O806   O     0.81765   0.15055   0.64457   0.00000  Uiso   1.00
O807   O     0.87791   0.10557   0.86003   0.00000  Uiso   1.00
O808   O     0.83555   0.16508   0.88037   0.00000  Uiso   1.00
O809   O     0.96042   0.22678   0.75000   0.00000  Uiso   1.00
O810   O     0.96039   0.10654   0.75001   0.00000  Uiso   1.00
O811   O     0.70628   0.22679   0.74999   0.00000  Uiso   1.00
O812   O     0.68519   0.16668   0.81491   0.00000  Uiso   1.00
O813   O     0.98148   0.16666   0.68509   0.00000  Uiso   1.00
O814   O     0.93933   0.16667   0.81492   0.00000  Uiso   1.00
O815   O     0.72733   0.16667   0.68508   0.00000  Uiso   1.00
O816   O     0.79698   0.09007   0.61878   0.00000  Uiso   1.00
C817   C     0.33331   0.42068   0.75002   0.00000  Uiso   1.00
C818   C     0.04296   0.35465   0.74883   0.00000  Uiso   1.00
C819   C     0.00003   0.62394   0.74995   0.00000  Uiso   1.00
C820   C     0.33333   0.37608   0.75000   0.00000  Uiso   1.00
C821   C     0.18594   0.46785   0.76777   0.00000  Uiso   1.00
C822   C     0.14750   0.53196   0.73175   0.00000  Uiso   1.00
C823   C     0.13628   0.46800   0.76808   0.00000  Uiso   1.00
C824   C     0.19711   0.53193   0.73172   0.00000  Uiso   1.00
C825   C     0.30559   0.49752   0.83580   0.00000  Uiso   1.00
C826   C     0.02774   0.49704   0.66444   0.00000  Uiso   1.00
C827   C     0.28928   0.49292   0.88443   0.00000  Uiso   1.00
C828   C     0.00003   0.57932   0.74997   0.00000  Uiso   1.00
C829   C     0.04447   0.48892   0.61674   0.00000  Uiso   1.00
C830   C     0.30642   0.50585   0.95380   0.00000  Uiso   1.00
C831   C     0.02558   0.47223   0.54854   0.00000  Uiso   1.00
C832   C     0.32212   0.50302   0.90836   0.00000  Uiso   1.00
C833   C     0.01040   0.48518   0.59227   0.00000  Uiso   1.00
C834   C     0.24063   0.48067   0.90715   0.00000  Uiso   1.00
C835   C     0.09459   0.48122   0.59580   0.00000  Uiso   1.00
C836   C     0.22446   0.48178   0.95428   0.00000  Uiso   1.00
C837   C     0.11030   0.47893   0.54950   0.00000  Uiso   1.00
C838   C     0.25779   0.49762   0.97650   0.00000  Uiso   1.00
C839   C     0.19311   0.50435   0.54362   0.00000  Uiso   1.00
C840   C     0.07546   0.46869   0.52716   0.00000  Uiso   1.00
C841   C     0.17559   0.47170   0.98025   0.00000  Uiso   1.00
C842   C     0.15995   0.48425   0.52503   0.00000  Uiso   1.00
C843   C     0.12592   0.46083   0.62049   0.00000  Uiso   1.00
C844   C     0.20640   0.47092   0.88102   0.00000  Uiso   1.00
C845   C     0.14111   0.45000   0.96396   0.00000  Uiso   1.00
C846   C     0.24174   0.50833   0.52079   0.00000  Uiso   1.00
C847   C     0.09136   0.45219   0.98504   0.00000  Uiso   1.00
C848   C     0.29038   0.35461   0.75112   0.00000  Uiso   1.00
C849   C     0.04297   0.64541   0.74882   0.00000  Uiso   1.00
C850   C     0.29040   0.64537   0.75108   0.00000  Uiso   1.00
Cu851  Cu    0.04689   0.50001   0.75000   0.00000  Uiso   1.00
Cu852  Cu    0.28645   0.49999   0.75000   0.00000  Uiso   1.00
H853   H     0.26625   0.52282   0.53708   0.00000  Uiso   1.00
H854   H     0.07656   0.62942   0.74788   0.00000  Uiso   1.00
H855   H     0.20011   0.44193   0.78179   0.00000  Uiso   1.00
H856   H     0.13354   0.55741   0.71674   0.00000  Uiso   1.00
H857   H     0.11315   0.44243   0.78285   0.00000  Uiso   1.00
H858   H     0.22030   0.55739   0.71677   0.00000  Uiso   1.00
H859   H     0.17142   0.46609   0.65903   0.00000  Uiso   1.00
H860   H     0.14731   0.48806   0.86201   0.00000  Uiso   1.00
H861   H     0.25682   0.62935   0.75199   0.00000  Uiso   1.00
H862   H     0.07654   0.37067   0.74790   0.00000  Uiso   1.00
H863   H     0.06552   0.43914   0.96928   0.00000  Uiso   1.00
H864   H     0.30507   0.48918   0.60779   0.00000  Uiso   1.00
H865   H     0.02612   0.51154   0.89175   0.00000  Uiso   1.00
H866   H     0.33194   0.51681   0.97108   0.00000  Uiso   1.00
H867   H     0.33184   0.46516   0.53145   0.00000  Uiso   1.00
H868   H     0.18154   0.51870   0.57552   0.00000  Uiso   1.00
H869   H     0.15120   0.43075   0.93531   0.00000  Uiso   1.00
H870   H     0.25679   0.37060   0.75207   0.00000  Uiso   1.00
N871   N     0.11736   0.50001   0.74999   0.00000  Uiso   1.00
N872   N     0.21597   0.49999   0.75001   0.00000  Uiso   1.00
O873   O     0.03958   0.43989   0.75000   0.00000  Uiso   1.00
O874   O     0.15098   0.48389   0.64457   0.00000  Uiso   1.00
O875   O     0.21125   0.43891   0.86003   0.00000  Uiso   1.00
O876   O     0.16888   0.49841   0.88037   0.00000  Uiso   1.00
O877   O     0.29375   0.56011   0.75000   0.00000  Uiso   1.00
O878   O     0.29372   0.43988   0.75001   0.00000  Uiso   1.00
O879   O     0.03961   0.56012   0.74999   0.00000  Uiso   1.00
O880   O     0.01852   0.50001   0.81491   0.00000  Uiso   1.00
O881   O     0.31481   0.49999   0.68509   0.00000  Uiso   1.00
O882   O     0.27267   0.50000   0.81492   0.00000  Uiso   1.00
O883   O     0.06067   0.50000   0.68508   0.00000  Uiso   1.00
O884   O     0.13031   0.42341   0.61878   0.00000  Uiso   1.00
C885   C     0.66665   0.42068   0.75002   0.00000  Uiso   1.00
C886   C     0.37629   0.35465   0.74883   0.00000  Uiso   1.00
C887   C     0.33336   0.62394   0.74995   0.00000  Uiso   1.00
C888   C     0.66666   0.37608   0.75000   0.00000  Uiso   1.00
C889   C     0.51927   0.46785   0.76777   0.00000  Uiso   1.00
C890   C     0.48084   0.53196   0.73175   0.00000  Uiso   1.00
C891   C     0.46961   0.46800   0.76808   0.00000  Uiso   1.00
C892   C     0.53044   0.53193   0.73172   0.00000  Uiso   1.00
C893   C     0.63892   0.49752   0.83580   0.00000  Uiso   1.00
C894   C     0.36108   0.49704   0.66444   0.00000  Uiso   1.00
C895   C     0.62262   0.49292   0.88443   0.00000  Uiso   1.00
C896   C     0.33336   0.57932   0.74997   0.00000  Uiso   1.00
C897   C     0.37781   0.48892   0.61674   0.00000  Uiso   1.00
C898   C     0.63975   0.50585   0.95380   0.00000  Uiso   1.00
C899   C     0.35892   0.47223   0.54854   0.00000  Uiso   1.00
C900   C     0.65545   0.50302   0.90836   0.00000  Uiso   1.00
C901   C     0.34373   0.48518   0.59227   0.00000  Uiso   1.00
C902   C     0.57396   0.48067   0.90715   0.00000  Uiso   1.00
C903   C     0.42792   0.48122   0.59580   0.00000  Uiso   1.00
C904   C     0.55779   0.48178   0.95428   0.00000  Uiso   1.00
C905   C     0.44364   0.47893   0.54950   0.00000  Uiso   1.00
C906   C     0.59113   0.49762   0.97650   0.00000  Uiso   1.00
C907   C     0.52645   0.50435   0.54362   0.00000  Uiso   1.00
C908   C     0.40879   0.46869   0.52716   0.00000  Uiso   1.00
C909   C     0.50893   0.47170   0.98025   0.00000  Uiso   1.00
C910   C     0.49328   0.48425   0.52503   0.00000  Uiso   1.00
C911   C     0.45925   0.46083   0.62049   0.00000  Uiso   1.00
C912   C     0.53974   0.47092   0.88102   0.00000  Uiso   1.00
C913   C     0.47444   0.45000   0.96396   0.00000  Uiso   1.00
C914   C     0.57507   0.50833   0.52079   0.00000  Uiso   1.00
C915   C     0.42469   0.45219   0.98504   0.00000  Uiso   1.00
C916   C     0.62372   0.35461   0.75112   0.00000  Uiso   1.00
C917   C     0.37630   0.64541   0.74882   0.00000  Uiso   1.00
C918   C     0.62374   0.64537   0.75108   0.00000  Uiso   1.00
Cu919  Cu    0.38022   0.50001   0.75000   0.00000  Uiso   1.00
Cu920  Cu    0.61978   0.49999   0.75000   0.00000  Uiso   1.00
H921   H     0.59959   0.52282   0.53708   0.00000  Uiso   1.00
H922   H     0.40990   0.62942   0.74788   0.00000  Uiso   1.00
H923   H     0.53344   0.44193   0.78179   0.00000  Uiso   1.00
H924   H     0.46687   0.55741   0.71674   0.00000  Uiso   1.00
H925   H     0.44648   0.44243   0.78285   0.00000  Uiso   1.00
H926   H     0.55364   0.55739   0.71677   0.00000  Uiso   1.00
H927   H     0.50476   0.46609   0.65903   0.00000  Uiso   1.00
H928   H     0.48065   0.48806   0.86201   0.00000  Uiso   1.00
H929   H     0.59016   0.62935   0.75199   0.00000  Uiso   1.00
H930   H     0.40988   0.37067   0.74790   0.00000  Uiso   1.00
H931   H     0.39885   0.43914   0.96928   0.00000  Uiso   1.00
H932   H     0.63840   0.48918   0.60779   0.00000  Uiso   1.00
H933   H     0.35945   0.51154   0.89175   0.00000  Uiso   1.00
H934   H     0.66527   0.51681   0.97108   0.00000  Uiso   1.00
H935   H     0.66517   0.46516   0.53145   0.00000  Uiso   1.00
H936   H     0.51487   0.51870   0.57552   0.00000  Uiso   1.00
H937   H     0.48454   0.43075   0.93531   0.00000  Uiso   1.00
H938   H     0.59012   0.37060   0.75207   0.00000  Uiso   1.00
N939   N     0.45069   0.50001   0.74999   0.00000  Uiso   1.00
N940   N     0.54931   0.49999   0.75001   0.00000  Uiso   1.00
O941   O     0.37291   0.43989   0.75000   0.00000  Uiso   1.00
O942   O     0.48431   0.48389   0.64457   0.00000  Uiso   1.00
O943   O     0.54458   0.43891   0.86003   0.00000  Uiso   1.00
O944   O     0.50222   0.49841   0.88037   0.00000  Uiso   1.00
O945   O     0.62709   0.56011   0.75000   0.00000  Uiso   1.00
O946   O     0.62706   0.43988   0.75001   0.00000  Uiso   1.00
O947   O     0.37294   0.56012   0.74999   0.00000  Uiso   1.00
O948   O     0.35186   0.50001   0.81491   0.00000  Uiso   1.00
O949   O     0.64814   0.49999   0.68509   0.00000  Uiso   1.00
O950   O     0.60600   0.50000   0.81492   0.00000  Uiso   1.00
O951   O     0.39400   0.50000   0.68508   0.00000  Uiso   1.00
O952   O     0.46364   0.42341   0.61878   0.00000  Uiso   1.00
C953   C     0.99998   0.42068   0.75002   0.00000  Uiso   1.00
C954   C     0.70962   0.35465   0.74883   0.00000  Uiso   1.00
C955   C     0.66669   0.62394   0.74995   0.00000  Uiso   1.00
C956   C     0.99999   0.37608   0.75000   0.00000  Uiso   1.00
C957   C     0.85261   0.46785   0.76777   0.00000  Uiso   1.00
C958   C     0.81417   0.53196   0.73175   0.00000  Uiso   1.00
C959   C     0.80294   0.46800   0.76808   0.00000  Uiso   1.00
C960   C     0.86377   0.53193   0.73172   0.00000  Uiso   1.00
C961   C     0.97225   0.49752   0.83580   0.00000  Uiso   1.00
C962   C     0.69441   0.49704   0.66444   0.00000  Uiso   1.00
C963   C     0.95595   0.49292   0.88443   0.00000  Uiso   1.00
C964   C     0.66669   0.57932   0.74997   0.00000  Uiso   1.00
C965   C     0.71114   0.48892   0.61674   0.00000  Uiso   1.00
C966   C     0.97308   0.50585   0.95380   0.00000  Uiso   1.00
C967   C     0.69225   0.47223   0.54854   0.00000  Uiso   1.00
C968   C     0.98878   0.50302   0.90836   0.00000  Uiso   1.00
C969   C     0.67706   0.48518   0.59227   0.00000  Uiso   1.00
C970   C     0.90729   0.48067   0.90715   0.00000  Uiso   1.00
C971   C     0.76125   0.48122   0.59580   0.00000  Uiso   1.00
C972   C     0.89113   0.48178   0.95428   0.00000  Uiso   1.00
C973   C     0.77697   0.47893   0.54950   0.00000  Uiso   1.00
C974   C     0.92446   0.49762   0.97650   0.00000  Uiso   1.00
C975   C     0.85978   0.50435   0.54362   0.00000  Uiso   1.00
C976   C     0.74213   0.46869   0.52716   0.00000  Uiso   1.00
C977   C     0.84226   0.47170   0.98025   0.00000  Uiso   1.00
C978   C     0.82661   0.48425   0.52503   0.00000  Uiso   1.00
C979   C     0.79259   0.46083   0.62049   0.00000  Uiso   1.00
C980   C     0.87307   0.47092   0.88102   0.00000  Uiso   1.00
C981   C     0.80778   0.45000   0.96396   0.00000  Uiso   1.00
C982   C     0.90840   0.50833   0.52079   0.00000  Uiso   1.00
C983   C     0.75803   0.45219   0.98504   0.00000  Uiso   1.00
C984   C     0.95705   0.35461   0.75112   0.00000  Uiso   1.00
C985   C     0.70964   0.64541   0.74882   0.00000  Uiso   1.00
C986   C     0.95707   0.64537   0.75108   0.00000  Uiso   1.00
Cu987  Cu    0.71355   0.50001   0.75000   0.00000  Uiso   1.00
Cu988  Cu    0.95311   0.49999   0.75000   0.00000  Uiso   1.00
H989   H     0.93292   0.52282   0.53708   0.00000  Uiso   1.00
H990   H     0.74323   0.62942   0.74788   0.00000  Uiso   1.00
H991   H     0.86677   0.44193   0.78179   0.00000  Uiso   1.00
H992   H     0.80020   0.55741   0.71674   0.00000  Uiso   1.00
H993   H     0.77982   0.44243   0.78285   0.00000  Uiso   1.00
H994   H     0.88697   0.55739   0.71677   0.00000  Uiso   1.00
H995   H     0.83809   0.46609   0.65903   0.00000  Uiso   1.00
H996   H     0.81398   0.48806   0.86201   0.00000  Uiso   1.00
H997   H     0.92349   0.62935   0.75199   0.00000  Uiso   1.00
H998   H     0.74321   0.37067   0.74790   0.00000  Uiso   1.00
H999   H     0.73218   0.43914   0.96928   0.00000  Uiso   1.00
H1000  H     0.97173   0.48918   0.60779   0.00000  Uiso   1.00
H1001  H     0.69279   0.51154   0.89175   0.00000  Uiso   1.00
H1002  H     0.99860   0.51681   0.97108   0.00000  Uiso   1.00
H1003  H     0.99850   0.46516   0.53145   0.00000  Uiso   1.00
H1004  H     0.84821   0.51870   0.57552   0.00000  Uiso   1.00
H1005  H     0.81787   0.43075   0.93531   0.00000  Uiso   1.00
H1006  H     0.92345   0.37060   0.75207   0.00000  Uiso   1.00
N1007  N     0.78403   0.50001   0.74999   0.00000  Uiso   1.00
N1008  N     0.88264   0.49999   0.75001   0.00000  Uiso   1.00
O1009  O     0.70625   0.43989   0.75000   0.00000  Uiso   1.00
O1010  O     0.81765   0.48389   0.64457   0.00000  Uiso   1.00
O1011  O     0.87791   0.43891   0.86003   0.00000  Uiso   1.00
O1012  O     0.83555   0.49841   0.88037   0.00000  Uiso   1.00
O1013  O     0.96042   0.56011   0.75000   0.00000  Uiso   1.00
O1014  O     0.96039   0.43988   0.75001   0.00000  Uiso   1.00
O1015  O     0.70628   0.56012   0.74999   0.00000  Uiso   1.00
O1016  O     0.68519   0.50001   0.81491   0.00000  Uiso   1.00
O1017  O     0.98148   0.49999   0.68509   0.00000  Uiso   1.00
O1018  O     0.93933   0.50000   0.81492   0.00000  Uiso   1.00
O1019  O     0.72733   0.50000   0.68508   0.00000  Uiso   1.00
O1020  O     0.79698   0.42341   0.61878   0.00000  Uiso   1.00
C1021  C     0.33331   0.75401   0.75002   0.00000  Uiso   1.00
C1022  C     0.04296   0.68798   0.74883   0.00000  Uiso   1.00
C1023  C     0.00003   0.95727   0.74995   0.00000  Uiso   1.00
C1024  C     0.33333   0.70941   0.75000   0.00000  Uiso   1.00
C1025  C     0.18594   0.80118   0.76777   0.00000  Uiso   1.00
C1026  C     0.14750   0.86529   0.73175   0.00000  Uiso   1.00
C1027  C     0.13628   0.80133   0.76808   0.00000  Uiso   1.00
C1028  C     0.19711   0.86526   0.73172   0.00000  Uiso   1.00
C1029  C     0.30559   0.83085   0.83580   0.00000  Uiso   1.00
C1030  C     0.02774   0.83038   0.66444   0.00000  Uiso   1.00
C1031  C     0.28928   0.82625   0.88443   0.00000  Uiso   1.00
C1032  C     0.00003   0.91266   0.74997   0.00000  Uiso   1.00
C1033  C     0.04447   0.82226   0.61674   0.00000  Uiso   1.00
C1034  C     0.30642   0.83918   0.95380   0.00000  Uiso   1.00
C1035  C     0.02558   0.80557   0.54854   0.00000  Uiso   1.00
C1036  C     0.32212   0.83636   0.90836   0.00000  Uiso   1.00
C1037  C     0.01040   0.81852   0.59227   0.00000  Uiso   1.00
C1038  C     0.24063   0.81400   0.90715   0.00000  Uiso   1.00
C1039  C     0.09459   0.81455   0.59580   0.00000  Uiso   1.00
C1040  C     0.22446   0.81511   0.95428   0.00000  Uiso   1.00
C1041  C     0.11030   0.81227   0.54950   0.00000  Uiso   1.00
C1042  C     0.25779   0.83095   0.97650   0.00000  Uiso   1.00
C1043  C     0.19311   0.83769   0.54362   0.00000  Uiso   1.00
C1044  C     0.07546   0.80202   0.52716   0.00000  Uiso   1.00
C1045  C     0.17559   0.80503   0.98025   0.00000  Uiso   1.00
C1046  C     0.15995   0.81758   0.52503   0.00000  Uiso   1.00
C1047  C     0.12592   0.79416   0.62049   0.00000  Uiso   1.00
C1048  C     0.20640   0.80426   0.88102   0.00000  Uiso   1.00
C1049  C     0.14111   0.78333   0.96396   0.00000  Uiso   1.00
C1050  C     0.24174   0.84167   0.52079   0.00000  Uiso   1.00
C1051  C     0.09136   0.78552   0.98504   0.00000  Uiso   1.00
C1052  C     0.29038   0.68794   0.75112   0.00000  Uiso   1.00
C1053  C     0.04297   0.97875   0.74882   0.00000  Uiso   1.00
C1054  C     0.29040   0.97871   0.75108   0.00000  Uiso   1.00
Cu1055 Cu    0.04689   0.83334   0.75000   0.00000  Uiso   1.00
Cu1056 Cu    0.28645   0.83333   0.75000   0.00000  Uiso   1.00
H1057  H     0.26625   0.85616   0.53708   0.00000  Uiso   1.00
H1058  H     0.07656   0.96275   0.74788   0.00000  Uiso   1.00
H1059  H     0.20011   0.77527   0.78179   0.00000  Uiso   1.00
H1060  H     0.13354   0.89074   0.71674   0.00000  Uiso   1.00
H1061  H     0.11315   0.77577   0.78285   0.00000  Uiso   1.00
H1062  H     0.22030   0.89073   0.71677   0.00000  Uiso   1.00
H1063  H     0.17142   0.79943   0.65903   0.00000  Uiso   1.00
H1064  H     0.14731   0.82139   0.86201   0.00000  Uiso   1.00
H1065  H     0.25682   0.96268   0.75199   0.00000  Uiso   1.00
H1066  H     0.07654   0.70401   0.74790   0.00000  Uiso   1.00
H1067  H     0.06552   0.77247   0.96928   0.00000  Uiso   1.00
H1068  H     0.30507   0.82252   0.60779   0.00000  Uiso   1.00
H1069  H     0.02612   0.84487   0.89175   0.00000  Uiso   1.00
H1070  H     0.33194   0.85014   0.97108   0.00000  Uiso   1.00
H1071  H     0.33184   0.79849   0.53145   0.00000  Uiso   1.00
H1072  H     0.18154   0.85203   0.57552   0.00000  Uiso   1.00
H1073  H     0.15120   0.76409   0.93531   0.00000  Uiso   1.00
H1074  H     0.25679   0.70394   0.75207   0.00000  Uiso   1.00
N1075  N     0.11736   0.83334   0.74999   0.00000  Uiso   1.00
N1076  N     0.21597   0.83332   0.75001   0.00000  Uiso   1.00
O1077  O     0.03958   0.77322   0.75000   0.00000  Uiso   1.00
O1078  O     0.15098   0.81722   0.64457   0.00000  Uiso   1.00
O1079  O     0.21125   0.77224   0.86003   0.00000  Uiso   1.00
O1080  O     0.16888   0.83174   0.88037   0.00000  Uiso   1.00
O1081  O     0.29375   0.89345   0.75000   0.00000  Uiso   1.00
O1082  O     0.29372   0.77321   0.75001   0.00000  Uiso   1.00
O1083  O     0.03961   0.89346   0.74999   0.00000  Uiso   1.00
O1084  O     0.01852   0.83334   0.81491   0.00000  Uiso   1.00
O1085  O     0.31481   0.83332   0.68509   0.00000  Uiso   1.00
O1086  O     0.27267   0.83333   0.81492   0.00000  Uiso   1.00
O1087  O     0.06067   0.83333   0.68508   0.00000  Uiso   1.00
O1088  O     0.13031   0.75674   0.61878   0.00000  Uiso   1.00
C1089  C     0.66665   0.75401   0.75002   0.00000  Uiso   1.00
C1090  C     0.37629   0.68798   0.74883   0.00000  Uiso   1.00
C1091  C     0.33336   0.95727   0.74995   0.00000  Uiso   1.00
C1092  C     0.66666   0.70941   0.75000   0.00000  Uiso   1.00
C1093  C     0.51927   0.80118   0.76777   0.00000  Uiso   1.00
C1094  C     0.48084   0.86529   0.73175   0.00000  Uiso   1.00
C1095  C     0.46961   0.80133   0.76808   0.00000  Uiso   1.00
C1096  C     0.53044   0.86526   0.73172   0.00000  Uiso   1.00
C1097  C     0.63892   0.83085   0.83580   0.00000  Uiso   1.00
C1098  C     0.36108   0.83038   0.66444   0.00000  Uiso   1.00
C1099  C     0.62262   0.82625   0.88443   0.00000  Uiso   1.00
C1100  C     0.33336   0.91266   0.74997   0.00000  Uiso   1.00
C1101  C     0.37781   0.82226   0.61674   0.00000  Uiso   1.00
C1102  C     0.63975   0.83918   0.95380   0.00000  Uiso   1.00
C1103  C     0.35892   0.80557   0.54854   0.00000  Uiso   1.00
C1104  C     0.65545   0.83636   0.90836   0.00000  Uiso   1.00
C1105  C     0.34373   0.81852   0.59227   0.00000  Uiso   1.00
C1106  C     0.57396   0.81400   0.90715   0.00000  Uiso   1.00
C1107  C     0.42792   0.81455   0.59580   0.00000  Uiso   1.00
C1108  C     0.55779   0.81511   0.95428   0.00000  Uiso   1.00
C1109  C     0.44364   0.81227   0.54950   0.00000  Uiso   1.00
C1110  C     0.59113   0.83095   0.97650   0.00000  Uiso   1.00
C1111  C     0.52645   0.83769   0.54362   0.00000  Uiso   1.00
C1112  C     0.40879   0.80202   0.52716   0.00000  Uiso   1.00
C1113  C     0.50893   0.80503   0.98025   0.00000  Uiso   1.00
C1114  C     0.49328   0.81758   0.52503   0.00000  Uiso   1.00
C1115  C     0.45925   0.79416   0.62049   0.00000  Uiso   1.00
C1116  C     0.53974   0.80426   0.88102   0.00000  Uiso   1.00
C1117  C     0.47444   0.78333   0.96396   0.00000  Uiso   1.00
C1118  C     0.57507   0.84167   0.52079   0.00000  Uiso   1.00
C1119  C     0.42469   0.78552   0.98504   0.00000  Uiso   1.00
C1120  C     0.62372   0.68794   0.75112   0.00000  Uiso   1.00
C1121  C     0.37630   0.97875   0.74882   0.00000  Uiso   1.00
C1122  C     0.62374   0.97871   0.75108   0.00000  Uiso   1.00
Cu1123 Cu    0.38022   0.83334   0.75000   0.00000  Uiso   1.00
Cu1124 Cu    0.61978   0.83333   0.75000   0.00000  Uiso   1.00
H1125  H     0.59959   0.85616   0.53708   0.00000  Uiso   1.00
H1126  H     0.40990   0.96275   0.74788   0.00000  Uiso   1.00
H1127  H     0.53344   0.77527   0.78179   0.00000  Uiso   1.00
H1128  H     0.46687   0.89074   0.71674   0.00000  Uiso   1.00
H1129  H     0.44648   0.77577   0.78285   0.00000  Uiso   1.00
H1130  H     0.55364   0.89073   0.71677   0.00000  Uiso   1.00
H1131  H     0.50476   0.79943   0.65903   0.00000  Uiso   1.00
H1132  H     0.48065   0.82139   0.86201   0.00000  Uiso   1.00
H1133  H     0.59016   0.96268   0.75199   0.00000  Uiso   1.00
H1134  H     0.40988   0.70401   0.74790   0.00000  Uiso   1.00
H1135  H     0.39885   0.77247   0.96928   0.00000  Uiso   1.00
H1136  H     0.63840   0.82252   0.60779   0.00000  Uiso   1.00
H1137  H     0.35945   0.84487   0.89175   0.00000  Uiso   1.00
H1138  H     0.66527   0.85014   0.97108   0.00000  Uiso   1.00
H1139  H     0.66517   0.79849   0.53145   0.00000  Uiso   1.00
H1140  H     0.51487   0.85203   0.57552   0.00000  Uiso   1.00
H1141  H     0.48454   0.76409   0.93531   0.00000  Uiso   1.00
H1142  H     0.59012   0.70394   0.75207   0.00000  Uiso   1.00
N1143  N     0.45069   0.83334   0.74999   0.00000  Uiso   1.00
N1144  N     0.54931   0.83332   0.75001   0.00000  Uiso   1.00
O1145  O     0.37291   0.77322   0.75000   0.00000  Uiso   1.00
O1146  O     0.48431   0.81722   0.64457   0.00000  Uiso   1.00
O1147  O     0.54458   0.77224   0.86003   0.00000  Uiso   1.00
O1148  O     0.50222   0.83174   0.88037   0.00000  Uiso   1.00
O1149  O     0.62709   0.89345   0.75000   0.00000  Uiso   1.00
O1150  O     0.62706   0.77321   0.75001   0.00000  Uiso   1.00
O1151  O     0.37294   0.89346   0.74999   0.00000  Uiso   1.00
O1152  O     0.35186   0.83334   0.81491   0.00000  Uiso   1.00
O1153  O     0.64814   0.83332   0.68509   0.00000  Uiso   1.00
O1154  O     0.60600   0.83333   0.81492   0.00000  Uiso   1.00
O1155  O     0.39400   0.83333   0.68508   0.00000  Uiso   1.00
O1156  O     0.46364   0.75674   0.61878   0.00000  Uiso   1.00
C1157  C     0.99998   0.75401   0.75002   0.00000  Uiso   1.00
C1158  C     0.70962   0.68798   0.74883   0.00000  Uiso   1.00
C1159  C     0.66669   0.95727   0.74995   0.00000  Uiso   1.00
C1160  C     0.99999   0.70941   0.75000   0.00000  Uiso   1.00
C1161  C     0.85261   0.80118   0.76777   0.00000  Uiso   1.00
C1162  C     0.81417   0.86529   0.73175   0.00000  Uiso   1.00
C1163  C     0.80294   0.80133   0.76808   0.00000  Uiso   1.00
C1164  C     0.86377   0.86526   0.73172   0.00000  Uiso   1.00
C1165  C     0.97225   0.83085   0.83580   0.00000  Uiso   1.00
C1166  C     0.69441   0.83038   0.66444   0.00000  Uiso   1.00
C1167  C     0.95595   0.82625   0.88443   0.00000  Uiso   1.00
C1168  C     0.66669   0.91266   0.74997   0.00000  Uiso   1.00
C1169  C     0.71114   0.82226   0.61674   0.00000  Uiso   1.00
C1170  C     0.97308   0.83918   0.95380   0.00000  Uiso   1.00
C1171  C     0.69225   0.80557   0.54854   0.00000  Uiso   1.00
C1172  C     0.98878   0.83636   0.90836   0.00000  Uiso   1.00
C1173  C     0.67706   0.81852   0.59227   0.00000  Uiso   1.00
C1174  C     0.90729   0.81400   0.90715   0.00000  Uiso   1.00
C1175  C     0.76125   0.81455   0.59580   0.00000  Uiso   1.00
C1176  C     0.89113   0.81511   0.95428   0.00000  Uiso   1.00
C1177  C     0.77697   0.81227   0.54950   0.00000  Uiso   1.00
C1178  C     0.92446   0.83095   0.97650   0.00000  Uiso   1.00
C1179  C     0.85978   0.83769   0.54362   0.00000  Uiso   1.00
C1180  C     0.74213   0.80202   0.52716   0.00000  Uiso   1.00
C1181  C     0.84226   0.80503   0.98025   0.00000  Uiso   1.00
C1182  C     0.82661   0.81758   0.52503   0.00000  Uiso   1.00
C1183  C     0.79259   0.79416   0.62049   0.00000  Uiso   1.00
C1184  C     0.87307   0.80426   0.88102   0.00000  Uiso   1.00
C1185  C     0.80778   0.78333   0.96396   0.00000  Uiso   1.00
C1186  C     0.90840   0.84167   0.52079   0.00000  Uiso   1.00
C1187  C     0.75803   0.78552   0.98504   0.00000  Uiso   1.00
C1188  C     0.95705   0.68794   0.75112   0.00000  Uiso   1.00
C1189  C     0.70964   0.97875   0.74882   0.00000  Uiso   1.00
C1190  C     0.95707   0.97871   0.75108   0.00000  Uiso   1.00
Cu1191 Cu    0.71355   0.83334   0.75000   0.00000  Uiso   1.00
Cu1192 Cu    0.95311   0.83333   0.75000   0.00000  Uiso   1.00
H1193  H     0.93292   0.85616   0.53708   0.00000  Uiso   1.00
H1194  H     0.74323   0.96275   0.74788   0.00000  Uiso   1.00
H1195  H     0.86677   0.77527   0.78179   0.00000  Uiso   1.00
H1196  H     0.80020   0.89074   0.71674   0.00000  Uiso   1.00
H1197  H     0.77982   0.77577   0.78285   0.00000  Uiso   1.00
H1198  H     0.88697   0.89073   0.71677   0.00000  Uiso   1.00
H1199  H     0.83809   0.79943   0.65903   0.00000  Uiso   1.00
H1200  H     0.81398   0.82139   0.86201   0.00000  Uiso   1.00
H1201  H     0.92349   0.96268   0.75199   0.00000  Uiso   1.00
H1202  H     0.74321   0.70401   0.74790   0.00000  Uiso   1.00
H1203  H     0.73218   0.77247   0.96928   0.00000  Uiso   1.00
H1204  H     0.97173   0.82252   0.60779   0.00000  Uiso   1.00
H1205  H     0.69279   0.84487   0.89175   0.00000  Uiso   1.00
H1206  H     0.99860   0.85014   0.97108   0.00000  Uiso   1.00
H1207  H     0.99850   0.79849   0.53145   0.00000  Uiso   1.00
H1208  H     0.84821   0.85203   0.57552   0.00000  Uiso   1.00
H1209  H     0.81787   0.76409   0.93531   0.00000  Uiso   1.00
H1210  H     0.92345   0.70394   0.75207   0.00000  Uiso   1.00
N1211  N     0.78403   0.83334   0.74999   0.00000  Uiso   1.00
N1212  N     0.88264   0.83332   0.75001   0.00000  Uiso   1.00
O1213  O     0.70625   0.77322   0.75000   0.00000  Uiso   1.00
O1214  O     0.81765   0.81722   0.64457   0.00000  Uiso   1.00
O1215  O     0.87791   0.77224   0.86003   0.00000  Uiso   1.00
O1216  O     0.83555   0.83174   0.88037   0.00000  Uiso   1.00
O1217  O     0.96042   0.89345   0.75000   0.00000  Uiso   1.00
O1218  O     0.96039   0.77321   0.75001   0.00000  Uiso   1.00
O1219  O     0.70628   0.89346   0.74999   0.00000  Uiso   1.00
O1220  O     0.68519   0.83334   0.81491   0.00000  Uiso   1.00
O1221  O     0.98148   0.83332   0.68509   0.00000  Uiso   1.00
O1222  O     0.93933   0.83333   0.81492   0.00000  Uiso   1.00
O1223  O     0.72733   0.83333   0.68508   0.00000  Uiso   1.00
O1224  O     0.79698   0.75674   0.61878   0.00000  Uiso   1.00
loop_
_geom_bond_atom_site_label_1
_geom_bond_atom_site_label_2
_geom_bond_distance
_geom_bond_site_symmetry_2
_ccdc_geom_bond_type
C1     C4      1.450   .     S
C1     O62     1.290   .     A
C1     O125    1.290   .     S
C2     H46     1.083   .     S
C2     C140    1.401   1_455 S
C2     C441    1.384   1_545 S
C3     C33     1.401   .     A
C3     C12     1.450   .     S
C3     C170    1.401   1_455 S
C4     C32     1.401   .     A
C4     C70     1.401   .     S
C5     N56     1.367   .     A
C5     C7      1.413   .     A
C5     H39     1.079   .     S
C6     N55     1.367   .     A
C6     H40     1.081   .     S
C6     C8      1.414   .     A
C7     N55     1.366   .     A
C7     H41     1.081   .     S
C8     H42     1.081   .     S
C8     N56     1.367   .     A
C9     C11     1.482   .     S
C9     O66     1.290   .     A
C9     O132    1.303   .     S
C10    O67     1.287   .     A
C10    C13     1.473   .     S
C10    O201    1.303   1_455 S
C11    C18     1.429   .     A
C11    C16     1.396   .     A
C12    O63     1.290   .     A
C12    O197    1.290   1_455 S
C13    C17     1.404   .     A
C13    C19     1.421   .     A
C14    C22     1.398   .     A
C14    H50     1.084   .     S
C14    C16     1.382   .     A
C15    C24     1.400   .     A
C15    C17     1.394   .     A
C15    H187    1.083   1_455 S
C16    H117    1.083   .     S
C17    H184    1.083   1_455 S
C18    C20     1.431   .     A
C18    C28     1.477   .     S
C19    C27     1.492   .     S
C19    C21     1.407   .     A
C20    C22     1.426   .     A
C20    C25     1.444   .     A
C21    C26     1.422   .     A
C21    C24     1.409   .     A
C22    C642    1.391   .     S
C23    H52     1.077   .     S
C23    C30     1.380   .     A
C23    C26     1.406   .     A
C24    C643    1.390   1_554 S
C25    C29     1.418   .     A
C25    C638    1.421   .     S
C26    C637    1.421   1_554 S
C27    O68     1.223   .     D
C27    O58     1.399   .     S
C28    O60     1.398   .     S
C28    O59     1.223   .     D
C29    C31     1.392   .     A
C29    H53     1.074   .     S
C30    H37     1.085   .     S
C30    C634    1.391   1_554 S
C31    H47     1.084   .     S
C31    C636    1.390   .     S
C32    H54     1.083   .     S
C32    C442    1.383   1_545 S
C33    H38     1.083   .     S
C33    C206    1.384   .     S
C34    H45     1.083   .     S
C34    C71     1.401   .     S
C34    C236    1.383   .     S
Cu35   O64     1.983   .     S
Cu35   O57     1.965   .     S
Cu35   O67     1.976   .     S
Cu35   N55     2.009   .     S
Cu35   O63     1.965   .     S
Cu35   Cu172   2.674   1_455 S
Cu36   N56     2.009   .     S
Cu36   O62     1.965   .     S
Cu36   O65     1.983   .     S
Cu36   O66     1.976   .     S
Cu36   O61     1.965   .     S
Cu36   Cu103   2.674   .     S
H43    O58     1.014   .     S
H44    O60     1.013   .     S
H48    C85     1.083   .     S
H49    C152    1.083   1_455 S
H51    C83     1.083   .     S
O57    C137    1.290   1_455 S
O61    C80     1.290   .     S
O64    C145    1.303   1_455 S
O65    C78     1.303   .     S
C69    C72     1.450   .     S
C69    O130    1.290   .     A
C69    O193    1.290   .     S
C70    H114    1.083   .     S
C70    C509    1.384   1_545 S
C71    C101    1.401   .     A
C71    C80     1.450   .     S
C72    C100    1.401   .     A
C72    C138    1.401   .     S
C73    N124    1.367   .     A
C73    C75     1.413   .     A
C73    H107    1.079   .     S
C74    N123    1.367   .     A
C74    H108    1.081   .     S
C74    C76     1.414   .     A
C75    N123    1.366   .     A
C75    H109    1.081   .     S
C76    H110    1.081   .     S
C76    N124    1.367   .     A
C77    C79     1.482   .     S
C77    O134    1.290   .     A
C77    O200    1.303   .     S
C78    O135    1.287   .     A
C78    C81     1.473   .     S
C79    C86     1.429   .     A
C79    C84     1.396   .     A
C80    O131    1.290   .     A
C81    C85     1.404   .     A
C81    C87     1.421   .     A
C82    C90     1.398   .     A
C82    H118    1.084   .     S
C82    C84     1.382   .     A
C83    C92     1.400   .     A
C83    C85     1.394   .     A
C84    H185    1.083   .     S
C86    C88     1.431   .     A
C86    C96     1.477   .     S
C87    C95     1.492   .     S
C87    C89     1.407   .     A
C88    C90     1.426   .     A
C88    C93     1.444   .     A
C89    C94     1.422   .     A
C89    C92     1.409   .     A
C90    C710    1.391   .     S
C91    H120    1.077   .     S
C91    C98     1.380   .     A
C91    C94     1.406   .     A
C92    C711    1.390   1_554 S
C93    C97     1.418   .     A
C93    C706    1.421   .     S
C94    C705    1.421   1_554 S
C95    O136    1.223   .     D
C95    O126    1.399   .     S
C96    O128    1.398   .     S
C96    O127    1.223   .     D
C97    C99     1.392   .     A
C97    H121    1.074   .     S
C98    H105    1.085   .     S
C98    C702    1.391   1_554 S
C99    H115    1.084   .     S
C99    C704    1.390   .     S
C100   H122    1.083   .     S
C100   C510    1.383   1_545 S
C101   H106    1.083   .     S
C101   C274    1.384   .     S
C102   H113    1.083   .     S
C102   C139    1.401   .     S
C102   C304    1.383   .     S
Cu103  O132    1.983   .     S
Cu103  O125    1.965   .     S
Cu103  O135    1.976   .     S
Cu103  N123    2.009   .     S
Cu103  O131    1.965   .     S
Cu104  N124    2.009   .     S
Cu104  O130    1.965   .     S
Cu104  O133    1.983   .     S
Cu104  O134    1.976   .     S
Cu104  O129    1.965   .     S
Cu104  Cu171   2.674   .     S
H111   O126    1.014   .     S
H112   O128    1.013   .     S
H116   C153    1.083   .     S
H119   C151    1.083   .     S
O129   C148    1.290   .     S
O133   C146    1.303   .     S
C137   C140    1.450   .     S
C137   O198    1.290   .     A
C137   O57     1.290   1_655 S
C138   H182    1.083   .     S
C138   C577    1.384   1_545 S
C139   C169    1.401   .     A
C139   C148    1.450   .     S
C140   C168    1.401   .     A
C140   C2      1.401   1_655 S
C141   N192    1.367   .     A
C141   C143    1.413   .     A
C141   H175    1.079   .     S
C142   N191    1.367   .     A
C142   H176    1.081   .     S
C142   C144    1.414   .     A
C143   N191    1.366   .     A
C143   H177    1.081   .     S
C144   H178    1.081   .     S
C144   N192    1.367   .     A
C145   C147    1.482   .     S
C145   O202    1.290   .     A
C145   O64     1.303   1_655 S
C146   O203    1.287   .     A
C146   C149    1.473   .     S
C147   C154    1.429   .     A
C147   C152    1.396   .     A
C148   O199    1.290   .     A
C149   C153    1.404   .     A
C149   C155    1.421   .     A
C150   C158    1.398   .     A
C150   H186    1.084   .     S
C150   C152    1.382   .     A
C151   C160    1.400   .     A
C151   C153    1.394   .     A
C152   H49     1.083   1_655 S
C154   C156    1.431   .     A
C154   C164    1.477   .     S
C155   C163    1.492   .     S
C155   C157    1.407   .     A
C156   C158    1.426   .     A
C156   C161    1.444   .     A
C157   C162    1.422   .     A
C157   C160    1.409   .     A
C158   C778    1.391   .     S
C159   H188    1.077   .     S
C159   C166    1.380   .     A
C159   C162    1.406   .     A
C160   C779    1.390   1_554 S
C161   C165    1.418   .     A
C161   C774    1.421   .     S
C162   C773    1.421   1_554 S
C163   O204    1.223   .     D
C163   O194    1.399   .     S
C164   O196    1.398   .     S
C164   O195    1.223   .     D
C165   C167    1.392   .     A
C165   H189    1.074   .     S
C166   H173    1.085   .     S
C166   C770    1.391   1_554 S
C167   H183    1.084   .     S
C167   C772    1.390   .     S
C168   H190    1.083   .     S
C168   C578    1.383   1_545 S
C169   H174    1.083   .     S
C169   C342    1.384   .     S
C170   H181    1.083   .     S
C170   C3      1.401   1_655 S
C170   C372    1.383   .     S
Cu171  O200    1.983   .     S
Cu171  O193    1.965   .     S
Cu171  O203    1.976   .     S
Cu171  N191    2.009   .     S
Cu171  O199    1.965   .     S
Cu172  N192    2.009   .     S
Cu172  O198    1.965   .     S
Cu172  O201    1.983   .     S
Cu172  O202    1.976   .     S
Cu172  O197    1.965   .     S
Cu172  Cu35    2.674   1_655 S
H179   O194    1.014   .     S
H180   O196    1.013   .     S
H184   C17     1.083   1_655 S
H187   C15     1.083   1_655 S
O197   C12     1.290   1_655 S
O201   C10     1.303   1_655 S
C205   C208    1.450   .     S
C205   O266    1.290   .     A
C205   O329    1.290   .     S
C206   H250    1.083   .     S
C206   C344    1.401   1_455 S
C207   C237    1.401   .     A
C207   C216    1.450   .     S
C207   C374    1.401   1_455 S
C208   C236    1.401   .     A
C208   C274    1.401   .     S
C209   N260    1.367   .     A
C209   C211    1.413   .     A
C209   H243    1.079   .     S
C210   N259    1.367   .     A
C210   H244    1.081   .     S
C210   C212    1.414   .     A
C211   N259    1.366   .     A
C211   H245    1.081   .     S
C212   H246    1.081   .     S
C212   N260    1.367   .     A
C213   C215    1.482   .     S
C213   O270    1.290   .     A
C213   O336    1.303   .     S
C214   O271    1.287   .     A
C214   C217    1.473   .     S
C214   O405    1.303   1_455 S
C215   C222    1.429   .     A
C215   C220    1.396   .     A
C216   O267    1.290   .     A
C216   O401    1.290   1_455 S
C217   C221    1.404   .     A
C217   C223    1.421   .     A
C218   C226    1.398   .     A
C218   H254    1.084   .     S
C218   C220    1.382   .     A
C219   C228    1.400   .     A
C219   C221    1.394   .     A
C219   H391    1.083   1_455 S
C220   H321    1.083   .     S
C221   H388    1.083   1_455 S
C222   C224    1.431   .     A
C222   C232    1.477   .     S
C223   C231    1.492   .     S
C223   C225    1.407   .     A
C224   C226    1.426   .     A
C224   C229    1.444   .     A
C225   C230    1.422   .     A
C225   C228    1.409   .     A
C226   C846    1.391   .     S
C227   H256    1.077   .     S
C227   C234    1.380   .     A
C227   C230    1.406   .     A
C228   C847    1.390   1_554 S
C229   C233    1.418   .     A
C229   C842    1.421   .     S
C230   C841    1.421   1_554 S
C231   O272    1.223   .     D
C231   O262    1.399   .     S
C232   O264    1.398   .     S
C232   O263    1.223   .     D
C233   C235    1.392   .     A
C233   H257    1.074   .     S
C234   H241    1.085   .     S
C234   C838    1.391   1_554 S
C235   H251    1.084   .     S
C235   C840    1.390   .     S
C236   H258    1.083   .     S
C237   H242    1.083   .     S
C237   C410    1.384   .     S
C238   H249    1.083   .     S
C238   C275    1.401   .     S
C238   C440    1.383   .     S
Cu239  O268    1.983   .     S
Cu239  O261    1.965   .     S
Cu239  O271    1.976   .     S
Cu239  N259    2.009   .     S
Cu239  O267    1.965   .     S
Cu239  Cu376   2.674   1_455 S
Cu240  N260    2.009   .     S
Cu240  O266    1.965   .     S
Cu240  O269    1.983   .     S
Cu240  O270    1.976   .     S
Cu240  O265    1.965   .     S
Cu240  Cu307   2.674   .     S
H247   O262    1.014   .     S
H248   O264    1.013   .     S
H252   C289    1.083   .     S
H253   C356    1.083   1_455 S
H255   C287    1.083   .     S
O261   C341    1.290   1_455 S
O265   C284    1.290   .     S
O268   C349    1.303   1_455 S
O269   C282    1.303   .     S
C273   C276    1.450   .     S
C273   O334    1.290   .     A
C273   O397    1.290   .     S
C274   H318    1.083   .     S
C275   C305    1.401   .     A
C275   C284    1.450   .     S
C276   C304    1.401   .     A
C276   C342    1.401   .     S
C277   N328    1.367   .     A
C277   C279    1.413   .     A
C277   H311    1.079   .     S
C278   N327    1.367   .     A
C278   H312    1.081   .     S
C278   C280    1.414   .     A
C279   N327    1.366   .     A
C279   H313    1.081   .     S
C280   H314    1.081   .     S
C280   N328    1.367   .     A
C281   C283    1.482   .     S
C281   O338    1.290   .     A
C281   O404    1.303   .     S
C282   O339    1.287   .     A
C282   C285    1.473   .     S
C283   C290    1.429   .     A
C283   C288    1.396   .     A
C284   O335    1.290   .     A
C285   C289    1.404   .     A
C285   C291    1.421   .     A
C286   C294    1.398   .     A
C286   H322    1.084   .     S
C286   C288    1.382   .     A
C287   C296    1.400   .     A
C287   C289    1.394   .     A
C288   H389    1.083   .     S
C290   C292    1.431   .     A
C290   C300    1.477   .     S
C291   C299    1.492   .     S
C291   C293    1.407   .     A
C292   C294    1.426   .     A
C292   C297    1.444   .     A
C293   C298    1.422   .     A
C293   C296    1.409   .     A
C294   C914    1.391   .     S
C295   H324    1.077   .     S
C295   C302    1.380   .     A
C295   C298    1.406   .     A
C296   C915    1.390   1_554 S
C297   C301    1.418   .     A
C297   C910    1.421   .     S
C298   C909    1.421   1_554 S
C299   O340    1.223   .     D
C299   O330    1.399   .     S
C300   O332    1.398   .     S
C300   O331    1.223   .     D
C301   C303    1.392   .     A
C301   H325    1.074   .     S
C302   H309    1.085   .     S
C302   C906    1.391   1_554 S
C303   H319    1.084   .     S
C303   C908    1.390   .     S
C304   H326    1.083   .     S
C305   H310    1.083   .     S
C305   C478    1.384   .     S
C306   H317    1.083   .     S
C306   C343    1.401   .     S
C306   C508    1.383   .     S
Cu307  O336    1.983   .     S
Cu307  O329    1.965   .     S
Cu307  O339    1.976   .     S
Cu307  N327    2.009   .     S
Cu307  O335    1.965   .     S
Cu308  N328    2.009   .     S
Cu308  O334    1.965   .     S
Cu308  O337    1.983   .     S
Cu308  O338    1.976   .     S
Cu308  O333    1.965   .     S
Cu308  Cu375   2.674   .     S
H315   O330    1.014   .     S
H316   O332    1.013   .     S
H320   C357    1.083   .     S
H323   C355    1.083   .     S
O333   C352    1.290   .     S
O337   C350    1.303   .     S
C341   C344    1.450   .     S
C341   O402    1.290   .     A
C341   O261    1.290   1_655 S
C342   H386    1.083   .     S
C343   C373    1.401   .     A
C343   C352    1.450   .     S
C344   C372    1.401   .     A
C344   C206    1.401   1_655 S
C345   N396    1.367   .     A
C345   C347    1.413   .     A
C345   H379    1.079   .     S
C346   N395    1.367   .     A
C346   H380    1.081   .     S
C346   C348    1.414   .     A
C347   N395    1.366   .     A
C347   H381    1.081   .     S
C348   H382    1.081   .     S
C348   N396    1.367   .     A
C349   C351    1.482   .     S
C349   O406    1.290   .     A
C349   O268    1.303   1_655 S
C350   O407    1.287   .     A
C350   C353    1.473   .     S
C351   C358    1.429   .     A
C351   C356    1.396   .     A
C352   O403    1.290   .     A
C353   C357    1.404   .     A
C353   C359    1.421   .     A
C354   C362    1.398   .     A
C354   H390    1.084   .     S
C354   C356    1.382   .     A
C355   C364    1.400   .     A
C355   C357    1.394   .     A
C356   H253    1.083   1_655 S
C358   C360    1.431   .     A
C358   C368    1.477   .     S
C359   C367    1.492   .     S
C359   C361    1.407   .     A
C360   C362    1.426   .     A
C360   C365    1.444   .     A
C361   C366    1.422   .     A
C361   C364    1.409   .     A
C362   C982    1.391   .     S
C363   H392    1.077   .     S
C363   C370    1.380   .     A
C363   C366    1.406   .     A
C364   C983    1.390   1_554 S
C365   C369    1.418   .     A
C365   C978    1.421   .     S
C366   C977    1.421   1_554 S
C367   O408    1.223   .     D
C367   O398    1.399   .     S
C368   O400    1.398   .     S
C368   O399    1.223   .     D
C369   C371    1.392   .     A
C369   H393    1.074   .     S
C370   H377    1.085   .     S
C370   C974    1.391   1_554 S
C371   H387    1.084   .     S
C371   C976    1.390   .     S
C372   H394    1.083   .     S
C373   H378    1.083   .     S
C373   C546    1.384   .     S
C374   H385    1.083   .     S
C374   C207    1.401   1_655 S
C374   C576    1.383   .     S
Cu375  O404    1.983   .     S
Cu375  O397    1.965   .     S
Cu375  O407    1.976   .     S
Cu375  N395    2.009   .     S
Cu375  O403    1.965   .     S
Cu376  N396    2.009   .     S
Cu376  O402    1.965   .     S
Cu376  O405    1.983   .     S
Cu376  O406    1.976   .     S
Cu376  O401    1.965   .     S
Cu376  Cu239   2.674   1_655 S
H383   O398    1.014   .     S
H384   O400    1.013   .     S
H388   C221    1.083   1_655 S
H391   C219    1.083   1_655 S
O401   C216    1.290   1_655 S
O405   C214    1.303   1_655 S
C409   C412    1.450   .     S
C409   O470    1.290   .     A
C409   O533    1.290   .     S
C410   H454    1.083   .     S
C410   C548    1.401   1_455 S
C411   C441    1.401   .     A
C411   C420    1.450   .     S
C411   C578    1.401   1_455 S
C412   C440    1.401   .     A
C412   C478    1.401   .     S
C413   N464    1.367   .     A
C413   C415    1.413   .     A
C413   H447    1.079   .     S
C414   N463    1.367   .     A
C414   H448    1.081   .     S
C414   C416    1.414   .     A
C415   N463    1.366   .     A
C415   H449    1.081   .     S
C416   H450    1.081   .     S
C416   N464    1.367   .     A
C417   C419    1.482   .     S
C417   O474    1.290   .     A
C417   O540    1.303   .     S
C418   O475    1.287   .     A
C418   C421    1.473   .     S
C418   O609    1.303   1_455 S
C419   C426    1.429   .     A
C419   C424    1.396   .     A
C420   O471    1.290   .     A
C420   O605    1.290   1_455 S
C421   C425    1.404   .     A
C421   C427    1.421   .     A
C422   C430    1.398   .     A
C422   H458    1.084   .     S
C422   C424    1.382   .     A
C423   C432    1.400   .     A
C423   C425    1.394   .     A
C423   H595    1.083   1_455 S
C424   H525    1.083   .     S
C425   H592    1.083   1_455 S
C426   C428    1.431   .     A
C426   C436    1.477   .     S
C427   C435    1.492   .     S
C427   C429    1.407   .     A
C428   C430    1.426   .     A
C428   C433    1.444   .     A
C429   C434    1.422   .     A
C429   C432    1.409   .     A
C430   C1050   1.391   .     S
C431   H460    1.077   .     S
C431   C438    1.380   .     A
C431   C434    1.406   .     A
C432   C1051   1.390   1_554 S
C433   C437    1.418   .     A
C433   C1046   1.421   .     S
C434   C1045   1.421   1_554 S
C435   O476    1.223   .     D
C435   O466    1.399   .     S
C436   O468    1.398   .     S
C436   O467    1.223   .     D
C437   C439    1.392   .     A
C437   H461    1.074   .     S
C438   H445    1.085   .     S
C438   C1042   1.391   1_554 S
C439   H455    1.084   .     S
C439   C1044   1.390   .     S
C440   H462    1.083   .     S
C441   H446    1.083   .     S
C441   C2      1.384   1_565 S
C442   H453    1.083   .     S
C442   C479    1.401   .     S
C442   C32     1.383   1_565 S
Cu443  O472    1.983   .     S
Cu443  O465    1.965   .     S
Cu443  O475    1.976   .     S
Cu443  N463    2.009   .     S
Cu443  O471    1.965   .     S
Cu443  Cu580   2.674   1_455 S
Cu444  N464    2.009   .     S
Cu444  O470    1.965   .     S
Cu444  O473    1.983   .     S
Cu444  O474    1.976   .     S
Cu444  O469    1.965   .     S
Cu444  Cu511   2.674   .     S
H451   O466    1.014   .     S
H452   O468    1.013   .     S
H456   C493    1.083   .     S
H457   C560    1.083   1_455 S
H459   C491    1.083   .     S
O465   C545    1.290   1_455 S
O469   C488    1.290   .     S
O472   C553    1.303   1_455 S
O473   C486    1.303   .     S
C477   C480    1.450   .     S
C477   O538    1.290   .     A
C477   O601    1.290   .     S
C478   H522    1.083   .     S
C479   C509    1.401   .     A
C479   C488    1.450   .     S
C480   C508    1.401   .     A
C480   C546    1.401   .     S
C481   N532    1.367   .     A
C481   C483    1.413   .     A
C481   H515    1.079   .     S
C482   N531    1.367   .     A
C482   H516    1.081   .     S
C482   C484    1.414   .     A
C483   N531    1.366   .     A
C483   H517    1.081   .     S
C484   H518    1.081   .     S
C484   N532    1.367   .     A
C485   C487    1.482   .     S
C485   O542    1.290   .     A
C485   O608    1.303   .     S
C486   O543    1.287   .     A
C486   C489    1.473   .     S
C487   C494    1.429   .     A
C487   C492    1.396   .     A
C488   O539    1.290   .     A
C489   C493    1.404   .     A
C489   C495    1.421   .     A
C490   C498    1.398   .     A
C490   H526    1.084   .     S
C490   C492    1.382   .     A
C491   C500    1.400   .     A
C491   C493    1.394   .     A
C492   H593    1.083   .     S
C494   C496    1.431   .     A
C494   C504    1.477   .     S
C495   C503    1.492   .     S
C495   C497    1.407   .     A
C496   C498    1.426   .     A
C496   C501    1.444   .     A
C497   C502    1.422   .     A
C497   C500    1.409   .     A
C498   C1118   1.391   .     S
C499   H528    1.077   .     S
C499   C506    1.380   .     A
C499   C502    1.406   .     A
C500   C1119   1.390   1_554 S
C501   C505    1.418   .     A
C501   C1114   1.421   .     S
C502   C1113   1.421   1_554 S
C503   O544    1.223   .     D
C503   O534    1.399   .     S
C504   O536    1.398   .     S
C504   O535    1.223   .     D
C505   C507    1.392   .     A
C505   H529    1.074   .     S
C506   H513    1.085   .     S
C506   C1110   1.391   1_554 S
C507   H523    1.084   .     S
C507   C1112   1.390   .     S
C508   H530    1.083   .     S
C509   H514    1.083   .     S
C509   C70     1.384   1_565 S
C510   H521    1.083   .     S
C510   C547    1.401   .     S
C510   C100    1.383   1_565 S
Cu511  O540    1.983   .     S
Cu511  O533    1.965   .     S
Cu511  O543    1.976   .     S
Cu511  N531    2.009   .     S
Cu511  O539    1.965   .     S
Cu512  N532    2.009   .     S
Cu512  O538    1.965   .     S
Cu512  O541    1.983   .     S
Cu512  O542    1.976   .     S
Cu512  O537    1.965   .     S
Cu512  Cu579   2.674   .     S
H519   O534    1.014   .     S
H520   O536    1.013   .     S
H524   C561    1.083   .     S
H527   C559    1.083   .     S
O537   C556    1.290   .     S
O541   C554    1.303   .     S
C545   C548    1.450   .     S
C545   O606    1.290   .     A
C545   O465    1.290   1_655 S
C546   H590    1.083   .     S
C547   C577    1.401   .     A
C547   C556    1.450   .     S
C548   C576    1.401   .     A
C548   C410    1.401   1_655 S
C549   N600    1.367   .     A
C549   C551    1.413   .     A
C549   H583    1.079   .     S
C550   N599    1.367   .     A
C550   H584    1.081   .     S
C550   C552    1.414   .     A
C551   N599    1.366   .     A
C551   H585    1.081   .     S
C552   H586    1.081   .     S
C552   N600    1.367   .     A
C553   C555    1.482   .     S
C553   O610    1.290   .     A
C553   O472    1.303   1_655 S
C554   O611    1.287   .     A
C554   C557    1.473   .     S
C555   C562    1.429   .     A
C555   C560    1.396   .     A
C556   O607    1.290   .     A
C557   C561    1.404   .     A
C557   C563    1.421   .     A
C558   C566    1.398   .     A
C558   H594    1.084   .     S
C558   C560    1.382   .     A
C559   C568    1.400   .     A
C559   C561    1.394   .     A
C560   H457    1.083   1_655 S
C562   C564    1.431   .     A
C562   C572    1.477   .     S
C563   C571    1.492   .     S
C563   C565    1.407   .     A
C564   C566    1.426   .     A
C564   C569    1.444   .     A
C565   C570    1.422   .     A
C565   C568    1.409   .     A
C566   C1186   1.391   .     S
C567   H596    1.077   .     S
C567   C574    1.380   .     A
C567   C570    1.406   .     A
C568   C1187   1.390   1_554 S
C569   C573    1.418   .     A
C569   C1182   1.421   .     S
C570   C1181   1.421   1_554 S
C571   O612    1.223   .     D
C571   O602    1.399   .     S
C572   O604    1.398   .     S
C572   O603    1.223   .     D
C573   C575    1.392   .     A
C573   H597    1.074   .     S
C574   H581    1.085   .     S
C574   C1178   1.391   1_554 S
C575   H591    1.084   .     S
C575   C1180   1.390   .     S
C576   H598    1.083   .     S
C577   H582    1.083   .     S
C577   C138    1.384   1_565 S
C578   H589    1.083   .     S
C578   C411    1.401   1_655 S
C578   C168    1.383   1_565 S
Cu579  O608    1.983   .     S
Cu579  O601    1.965   .     S
Cu579  O611    1.976   .     S
Cu579  N599    2.009   .     S
Cu579  O607    1.965   .     S
Cu580  N600    2.009   .     S
Cu580  O606    1.965   .     S
Cu580  O609    1.983   .     S
Cu580  O610    1.976   .     S
Cu580  O605    1.965   .     S
Cu580  Cu443   2.674   1_655 S
H587   O602    1.014   .     S
H588   O604    1.013   .     S
H592   C425    1.083   1_655 S
H595   C423    1.083   1_655 S
O605   C420    1.290   1_655 S
O609   C418    1.303   1_655 S
C613   C616    1.450   .     S
C613   O674    1.290   .     A
C613   O737    1.290   .     S
C614   H658    1.083   .     S
C614   C752    1.401   1_455 S
C614   C1053   1.384   1_545 S
C615   C645    1.401   .     A
C615   C624    1.450   .     S
C615   C782    1.401   1_455 S
C616   C644    1.401   .     A
C616   C682    1.401   .     S
C617   N668    1.367   .     A
C617   C619    1.413   .     A
C617   H651    1.079   .     S
C618   N667    1.367   .     A
C618   H652    1.081   .     S
C618   C620    1.414   .     A
C619   N667    1.366   .     A
C619   H653    1.081   .     S
C620   H654    1.081   .     S
C620   N668    1.367   .     A
C621   C623    1.482   .     S
C621   O678    1.290   .     A
C621   O744    1.303   .     S
C622   O679    1.287   .     A
C622   C625    1.473   .     S
C622   O813    1.303   1_455 S
C623   C630    1.429   .     A
C623   C628    1.396   .     A
C624   O675    1.290   .     A
C624   O809    1.290   1_455 S
C625   C629    1.404   .     A
C625   C631    1.421   .     A
C626   C634    1.398   .     A
C626   H662    1.084   .     S
C626   C628    1.382   .     A
C627   C636    1.400   .     A
C627   C629    1.394   .     A
C627   H799    1.083   1_455 S
C628   H729    1.083   .     S
C629   H796    1.083   1_455 S
C630   C632    1.431   .     A
C630   C640    1.477   .     S
C631   C639    1.492   .     S
C631   C633    1.407   .     A
C632   C634    1.426   .     A
C632   C637    1.444   .     A
C633   C638    1.422   .     A
C633   C636    1.409   .     A
C634   C30     1.391   1_556 S
C635   H664    1.077   .     S
C635   C642    1.380   .     A
C635   C638    1.406   .     A
C637   C641    1.418   .     A
C637   C26     1.421   1_556 S
C639   O680    1.223   .     D
C639   O670    1.399   .     S
C640   O672    1.398   .     S
C640   O671    1.223   .     D
C641   C643    1.392   .     A
C641   H665    1.074   .     S
C642   H649    1.085   .     S
C643   H659    1.084   .     S
C643   C24     1.390   1_556 S
C644   H666    1.083   .     S
C644   C1054   1.383   1_545 S
C645   H650    1.083   .     S
C645   C818    1.384   .     S
C646   H657    1.083   .     S
C646   C683    1.401   .     S
C646   C848    1.383   .     S
Cu647  O676    1.983   .     S
Cu647  O669    1.965   .     S
Cu647  O679    1.976   .     S
Cu647  N667    2.009   .     S
Cu647  O675    1.965   .     S
Cu647  Cu784   2.674   1_455 S
Cu648  N668    2.009   .     S
Cu648  O674    1.965   .     S
Cu648  O677    1.983   .     S
Cu648  O678    1.976   .     S
Cu648  O673    1.965   .     S
Cu648  Cu715   2.674   .     S
H655   O670    1.014   .     S
H656   O672    1.013   .     S
H660   C697    1.083   .     S
H661   C764    1.083   1_455 S
H663   C695    1.083   .     S
O669   C749    1.290   1_455 S
O673   C692    1.290   .     S
O676   C757    1.303   1_455 S
O677   C690    1.303   .     S
C681   C684    1.450   .     S
C681   O742    1.290   .     A
C681   O805    1.290   .     S
C682   H726    1.083   .     S
C682   C1121   1.384   1_545 S
C683   C713    1.401   .     A
C683   C692    1.450   .     S
C684   C712    1.401   .     A
C684   C750    1.401   .     S
C685   N736    1.367   .     A
C685   C687    1.413   .     A
C685   H719    1.079   .     S
C686   N735    1.367   .     A
C686   H720    1.081   .     S
C686   C688    1.414   .     A
C687   N735    1.366   .     A
C687   H721    1.081   .     S
C688   H722    1.081   .     S
C688   N736    1.367   .     A
C689   C691    1.482   .     S
C689   O746    1.290   .     A
C689   O812    1.303   .     S
C690   O747    1.287   .     A
C690   C693    1.473   .     S
C691   C698    1.429   .     A
C691   C696    1.396   .     A
C692   O743    1.290   .     A
C693   C697    1.404   .     A
C693   C699    1.421   .     A
C694   C702    1.398   .     A
C694   H730    1.084   .     S
C694   C696    1.382   .     A
C695   C704    1.400   .     A
C695   C697    1.394   .     A
C696   H797    1.083   .     S
C698   C700    1.431   .     A
C698   C708    1.477   .     S
C699   C707    1.492   .     S
C699   C701    1.407   .     A
C700   C702    1.426   .     A
C700   C705    1.444   .     A
C701   C706    1.422   .     A
C701   C704    1.409   .     A
C702   C98     1.391   1_556 S
C703   H732    1.077   .     S
C703   C710    1.380   .     A
C703   C706    1.406   .     A
C705   C709    1.418   .     A
C705   C94     1.421   1_556 S
C707   O748    1.223   .     D
C707   O738    1.399   .     S
C708   O740    1.398   .     S
C708   O739    1.223   .     D
C709   C711    1.392   .     A
C709   H733    1.074   .     S
C710   H717    1.085   .     S
C711   H727    1.084   .     S
C711   C92     1.390   1_556 S
C712   H734    1.083   .     S
C712   C1122   1.383   1_545 S
C713   H718    1.083   .     S
C713   C886    1.384   .     S
C714   H725    1.083   .     S
C714   C751    1.401   .     S
C714   C916    1.383   .     S
Cu715  O744    1.983   .     S
Cu715  O737    1.965   .     S
Cu715  O747    1.976   .     S
Cu715  N735    2.009   .     S
Cu715  O743    1.965   .     S
Cu716  N736    2.009   .     S
Cu716  O742    1.965   .     S
Cu716  O745    1.983   .     S
Cu716  O746    1.976   .     S
Cu716  O741    1.965   .     S
Cu716  Cu783   2.674   .     S
H723   O738    1.014   .     S
H724   O740    1.013   .     S
H728   C765    1.083   .     S
H731   C763    1.083   .     S
O741   C760    1.290   .     S
O745   C758    1.303   .     S
C749   C752    1.450   .     S
C749   O810    1.290   .     A
C749   O669    1.290   1_655 S
C750   H794    1.083   .     S
C750   C1189   1.384   1_545 S
C751   C781    1.401   .     A
C751   C760    1.450   .     S
C752   C780    1.401   .     A
C752   C614    1.401   1_655 S
C753   N804    1.367   .     A
C753   C755    1.413   .     A
C753   H787    1.079   .     S
C754   N803    1.367   .     A
C754   H788    1.081   .     S
C754   C756    1.414   .     A
C755   N803    1.366   .     A
C755   H789    1.081   .     S
C756   H790    1.081   .     S
C756   N804    1.367   .     A
C757   C759    1.482   .     S
C757   O814    1.290   .     A
C757   O676    1.303   1_655 S
C758   O815    1.287   .     A
C758   C761    1.473   .     S
C759   C766    1.429   .     A
C759   C764    1.396   .     A
C760   O811    1.290   .     A
C761   C765    1.404   .     A
C761   C767    1.421   .     A
C762   C770    1.398   .     A
C762   H798    1.084   .     S
C762   C764    1.382   .     A
C763   C772    1.400   .     A
C763   C765    1.394   .     A
C764   H661    1.083   1_655 S
C766   C768    1.431   .     A
C766   C776    1.477   .     S
C767   C775    1.492   .     S
C767   C769    1.407   .     A
C768   C770    1.426   .     A
C768   C773    1.444   .     A
C769   C774    1.422   .     A
C769   C772    1.409   .     A
C770   C166    1.391   1_556 S
C771   H800    1.077   .     S
C771   C778    1.380   .     A
C771   C774    1.406   .     A
C773   C777    1.418   .     A
C773   C162    1.421   1_556 S
C775   O816    1.223   .     D
C775   O806    1.399   .     S
C776   O808    1.398   .     S
C776   O807    1.223   .     D
C777   C779    1.392   .     A
C777   H801    1.074   .     S
C778   H785    1.085   .     S
C779   H795    1.084   .     S
C779   C160    1.390   1_556 S
C780   H802    1.083   .     S
C780   C1190   1.383   1_545 S
C781   H786    1.083   .     S
C781   C954    1.384   .     S
C782   H793    1.083   .     S
C782   C615    1.401   1_655 S
C782   C984    1.383   .     S
Cu783  O812    1.983   .     S
Cu783  O805    1.965   .     S
Cu783  O815    1.976   .     S
Cu783  N803    2.009   .     S
Cu783  O811    1.965   .     S
Cu784  N804    2.009   .     S
Cu784  O810    1.965   .     S
Cu784  O813    1.983   .     S
Cu784  O814    1.976   .     S
Cu784  O809    1.965   .     S
Cu784  Cu647   2.674   1_655 S
H791   O806    1.014   .     S
H792   O808    1.013   .     S
H796   C629    1.083   1_655 S
H799   C627    1.083   1_655 S
O809   C624    1.290   1_655 S
O813   C622    1.303   1_655 S
C817   C820    1.450   .     S
C817   O878    1.290   .     A
C817   O941    1.290   .     S
C818   H862    1.083   .     S
C818   C956    1.401   1_455 S
C819   C849    1.401   .     A
C819   C828    1.450   .     S
C819   C986    1.401   1_455 S
C820   C848    1.401   .     A
C820   C886    1.401   .     S
C821   N872    1.367   .     A
C821   C823    1.413   .     A
C821   H855    1.079   .     S
C822   N871    1.367   .     A
C822   H856    1.081   .     S
C822   C824    1.414   .     A
C823   N871    1.366   .     A
C823   H857    1.081   .     S
C824   H858    1.081   .     S
C824   N872    1.367   .     A
C825   C827    1.482   .     S
C825   O882    1.290   .     A
C825   O948    1.303   .     S
C826   O883    1.287   .     A
C826   C829    1.473   .     S
C826   O1017   1.303   1_455 S
C827   C834    1.429   .     A
C827   C832    1.396   .     A
C828   O879    1.290   .     A
C828   O1013   1.290   1_455 S
C829   C833    1.404   .     A
C829   C835    1.421   .     A
C830   C838    1.398   .     A
C830   H866    1.084   .     S
C830   C832    1.382   .     A
C831   C840    1.400   .     A
C831   C833    1.394   .     A
C831   H1003   1.083   1_455 S
C832   H933    1.083   .     S
C833   H1000   1.083   1_455 S
C834   C836    1.431   .     A
C834   C844    1.477   .     S
C835   C843    1.492   .     S
C835   C837    1.407   .     A
C836   C838    1.426   .     A
C836   C841    1.444   .     A
C837   C842    1.422   .     A
C837   C840    1.409   .     A
C838   C234    1.391   1_556 S
C839   H868    1.077   .     S
C839   C846    1.380   .     A
C839   C842    1.406   .     A
C841   C845    1.418   .     A
C841   C230    1.421   1_556 S
C843   O884    1.223   .     D
C843   O874    1.399   .     S
C844   O876    1.398   .     S
C844   O875    1.223   .     D
C845   C847    1.392   .     A
C845   H869    1.074   .     S
C846   H853    1.085   .     S
C847   H863    1.084   .     S
C847   C228    1.390   1_556 S
C848   H870    1.083   .     S
C849   H854    1.083   .     S
C849   C1022   1.384   .     S
C850   H861    1.083   .     S
C850   C887    1.401   .     S
C850   C1052   1.383   .     S
Cu851  O880    1.983   .     S
Cu851  O873    1.965   .     S
Cu851  O883    1.976   .     S
Cu851  N871    2.009   .     S
Cu851  O879    1.965   .     S
Cu851  Cu988   2.674   1_455 S
Cu852  N872    2.009   .     S
Cu852  O878    1.965   .     S
Cu852  O881    1.983   .     S
Cu852  O882    1.976   .     S
Cu852  O877    1.965   .     S
Cu852  Cu919   2.674   .     S
H859   O874    1.014   .     S
H860   O876    1.013   .     S
H864   C901    1.083   .     S
H865   C968    1.083   1_455 S
H867   C899    1.083   .     S
O873   C953    1.290   1_455 S
O877   C896    1.290   .     S
O880   C961    1.303   1_455 S
O881   C894    1.303   .     S
C885   C888    1.450   .     S
C885   O946    1.290   .     A
C885   O1009   1.290   .     S
C886   H930    1.083   .     S
C887   C917    1.401   .     A
C887   C896    1.450   .     S
C888   C916    1.401   .     A
C888   C954    1.401   .     S
C889   N940    1.367   .     A
C889   C891    1.413   .     A
C889   H923    1.079   .     S
C890   N939    1.367   .     A
C890   H924    1.081   .     S
C890   C892    1.414   .     A
C891   N939    1.366   .     A
C891   H925    1.081   .     S
C892   H926    1.081   .     S
C892   N940    1.367   .     A
C893   C895    1.482   .     S
C893   O950    1.290   .     A
C893   O1016   1.303   .     S
C894   O951    1.287   .     A
C894   C897    1.473   .     S
C895   C902    1.429   .     A
C895   C900    1.396   .     A
C896   O947    1.290   .     A
C897   C901    1.404   .     A
C897   C903    1.421   .     A
C898   C906    1.398   .     A
C898   H934    1.084   .     S
C898   C900    1.382   .     A
C899   C908    1.400   .     A
C899   C901    1.394   .     A
C900   H1001   1.083   .     S
C902   C904    1.431   .     A
C902   C912    1.477   .     S
C903   C911    1.492   .     S
C903   C905    1.407   .     A
C904   C906    1.426   .     A
C904   C909    1.444   .     A
C905   C910    1.422   .     A
C905   C908    1.409   .     A
C906   C302    1.391   1_556 S
C907   H936    1.077   .     S
C907   C914    1.380   .     A
C907   C910    1.406   .     A
C909   C913    1.418   .     A
C909   C298    1.421   1_556 S
C911   O952    1.223   .     D
C911   O942    1.399   .     S
C912   O944    1.398   .     S
C912   O943    1.223   .     D
C913   C915    1.392   .     A
C913   H937    1.074   .     S
C914   H921    1.085   .     S
C915   H931    1.084   .     S
C915   C296    1.390   1_556 S
C916   H938    1.083   .     S
C917   H922    1.083   .     S
C917   C1090   1.384   .     S
C918   H929    1.083   .     S
C918   C955    1.401   .     S
C918   C1120   1.383   .     S
Cu919  O948    1.983   .     S
Cu919  O941    1.965   .     S
Cu919  O951    1.976   .     S
Cu919  N939    2.009   .     S
Cu919  O947    1.965   .     S
Cu920  N940    2.009   .     S
Cu920  O946    1.965   .     S
Cu920  O949    1.983   .     S
Cu920  O950    1.976   .     S
Cu920  O945    1.965   .     S
Cu920  Cu987   2.674   .     S
H927   O942    1.014   .     S
H928   O944    1.013   .     S
H932   C969    1.083   .     S
H935   C967    1.083   .     S
O945   C964    1.290   .     S
O949   C962    1.303   .     S
C953   C956    1.450   .     S
C953   O1014   1.290   .     A
C953   O873    1.290   1_655 S
C954   H998    1.083   .     S
C955   C985    1.401   .     A
C955   C964    1.450   .     S
C956   C984    1.401   .     A
C956   C818    1.401   1_655 S
C957   N1008   1.367   .     A
C957   C959    1.413   .     A
C957   H991    1.079   .     S
C958   N1007   1.367   .     A
C958   H992    1.081   .     S
C958   C960    1.414   .     A
C959   N1007   1.366   .     A
C959   H993    1.081   .     S
C960   H994    1.081   .     S
C960   N1008   1.367   .     A
C961   C963    1.482   .     S
C961   O1018   1.290   .     A
C961   O880    1.303   1_655 S
C962   O1019   1.287   .     A
C962   C965    1.473   .     S
C963   C970    1.429   .     A
C963   C968    1.396   .     A
C964   O1015   1.290   .     A
C965   C969    1.404   .     A
C965   C971    1.421   .     A
C966   C974    1.398   .     A
C966   H1002   1.084   .     S
C966   C968    1.382   .     A
C967   C976    1.400   .     A
C967   C969    1.394   .     A
C968   H865    1.083   1_655 S
C970   C972    1.431   .     A
C970   C980    1.477   .     S
C971   C979    1.492   .     S
C971   C973    1.407   .     A
C972   C974    1.426   .     A
C972   C977    1.444   .     A
C973   C978    1.422   .     A
C973   C976    1.409   .     A
C974   C370    1.391   1_556 S
C975   H1004   1.077   .     S
C975   C982    1.380   .     A
C975   C978    1.406   .     A
C977   C981    1.418   .     A
C977   C366    1.421   1_556 S
C979   O1020   1.223   .     D
C979   O1010   1.399   .     S
C980   O1012   1.398   .     S
C980   O1011   1.223   .     D
C981   C983    1.392   .     A
C981   H1005   1.074   .     S
C982   H989    1.085   .     S
C983   H999    1.084   .     S
C983   C364    1.390   1_556 S
C984   H1006   1.083   .     S
C985   H990    1.083   .     S
C985   C1158   1.384   .     S
C986   H997    1.083   .     S
C986   C819    1.401   1_655 S
C986   C1188   1.383   .     S
Cu987  O1016   1.983   .     S
Cu987  O1009   1.965   .     S
Cu987  O1019   1.976   .     S
Cu987  N1007   2.009   .     S
Cu987  O1015   1.965   .     S
Cu988  N1008   2.009   .     S
Cu988  O1014   1.965   .     S
Cu988  O1017   1.983   .     S
Cu988  O1018   1.976   .     S
Cu988  O1013   1.965   .     S
Cu988  Cu851   2.674   1_655 S
H995   O1010   1.014   .     S
H996   O1012   1.013   .     S
H1000  C833    1.083   1_655 S
H1003  C831    1.083   1_655 S
O1013  C828    1.290   1_655 S
O1017  C826    1.303   1_655 S
C1021  C1024   1.450   .     S
C1021  O1082   1.290   .     A
C1021  O1145   1.290   .     S
C1022  H1066   1.083   .     S
C1022  C1160   1.401   1_455 S
C1023  C1053   1.401   .     A
C1023  C1032   1.450   .     S
C1023  C1190   1.401   1_455 S
C1024  C1052   1.401   .     A
C1024  C1090   1.401   .     S
C1025  N1076   1.367   .     A
C1025  C1027   1.413   .     A
C1025  H1059   1.079   .     S
C1026  N1075   1.367   .     A
C1026  H1060   1.081   .     S
C1026  C1028   1.414   .     A
C1027  N1075   1.366   .     A
C1027  H1061   1.081   .     S
C1028  H1062   1.081   .     S
C1028  N1076   1.367   .     A
C1029  C1031   1.482   .     S
C1029  O1086   1.290   .     A
C1029  O1152   1.303   .     S
C1030  O1087   1.287   .     A
C1030  C1033   1.473   .     S
C1030  O1221   1.303   1_455 S
C1031  C1038   1.429   .     A
C1031  C1036   1.396   .     A
C1032  O1083   1.290   .     A
C1032  O1217   1.290   1_455 S
C1033  C1037   1.404   .     A
C1033  C1039   1.421   .     A
C1034  C1042   1.398   .     A
C1034  H1070   1.084   .     S
C1034  C1036   1.382   .     A
C1035  C1044   1.400   .     A
C1035  C1037   1.394   .     A
C1035  H1207   1.083   1_455 S
C1036  H1137   1.083   .     S
C1037  H1204   1.083   1_455 S
C1038  C1040   1.431   .     A
C1038  C1048   1.477   .     S
C1039  C1047   1.492   .     S
C1039  C1041   1.407   .     A
C1040  C1042   1.426   .     A
C1040  C1045   1.444   .     A
C1041  C1046   1.422   .     A
C1041  C1044   1.409   .     A
C1042  C438    1.391   1_556 S
C1043  H1072   1.077   .     S
C1043  C1050   1.380   .     A
C1043  C1046   1.406   .     A
C1045  C1049   1.418   .     A
C1045  C434    1.421   1_556 S
C1047  O1088   1.223   .     D
C1047  O1078   1.399   .     S
C1048  O1080   1.398   .     S
C1048  O1079   1.223   .     D
C1049  C1051   1.392   .     A
C1049  H1073   1.074   .     S
C1050  H1057   1.085   .     S
C1051  H1067   1.084   .     S
C1051  C432    1.390   1_556 S
C1052  H1074   1.083   .     S
C1053  H1058   1.083   .     S
C1053  C614    1.384   1_565 S
C1054  H1065   1.083   .     S
C1054  C1091   1.401   .     S
C1054  C644    1.383   1_565 S
Cu1055 O1084   1.983   .     S
Cu1055 O1077   1.965   .     S
Cu1055 O1087   1.976   .     S
Cu1055 N1075   2.009   .     S
Cu1055 O1083   1.965   .     S
Cu1055 Cu1192  2.674   1_455 S
Cu1056 N1076   2.009   .     S
Cu1056 O1082   1.965   .     S
Cu1056 O1085   1.983   .     S
Cu1056 O1086   1.976   .     S
Cu1056 O1081   1.965   .     S
Cu1056 Cu1123  2.674   .     S
H1063  O1078   1.014   .     S
H1064  O1080   1.013   .     S
H1068  C1105   1.083   .     S
H1069  C1172   1.083   1_455 S
H1071  C1103   1.083   .     S
O1077  C1157   1.290   1_455 S
O1081  C1100   1.290   .     S
O1084  C1165   1.303   1_455 S
O1085  C1098   1.303   .     S
C1089  C1092   1.450   .     S
C1089  O1150   1.290   .     A
C1089  O1213   1.290   .     S
C1090  H1134   1.083   .     S
C1091  C1121   1.401   .     A
C1091  C1100   1.450   .     S
C1092  C1120   1.401   .     A
C1092  C1158   1.401   .     S
C1093  N1144   1.367   .     A
C1093  C1095   1.413   .     A
C1093  H1127   1.079   .     S
C1094  N1143   1.367   .     A
C1094  H1128   1.081   .     S
C1094  C1096   1.414   .     A
C1095  N1143   1.366   .     A
C1095  H1129   1.081   .     S
C1096  H1130   1.081   .     S
C1096  N1144   1.367   .     A
C1097  C1099   1.482   .     S
C1097  O1154   1.290   .     A
C1097  O1220   1.303   .     S
C1098  O1155   1.287   .     A
C1098  C1101   1.473   .     S
C1099  C1106   1.429   .     A
C1099  C1104   1.396   .     A
C1100  O1151   1.290   .     A
C1101  C1105   1.404   .     A
C1101  C1107   1.421   .     A
C1102  C1110   1.398   .     A
C1102  H1138   1.084   .     S
C1102  C1104   1.382   .     A
C1103  C1112   1.400   .     A
C1103  C1105   1.394   .     A
C1104  H1205   1.083   .     S
C1106  C1108   1.431   .     A
C1106  C1116   1.477   .     S
C1107  C1115   1.492   .     S
C1107  C1109   1.407   .     A
C1108  C1110   1.426   .     A
C1108  C1113   1.444   .     A
C1109  C1114   1.422   .     A
C1109  C1112   1.409   .     A
C1110  C506    1.391   1_556 S
C1111  H1140   1.077   .     S
C1111  C1118   1.380   .     A
C1111  C1114   1.406   .     A
C1113  C1117   1.418   .     A
C1113  C502    1.421   1_556 S
C1115  O1156   1.223   .     D
C1115  O1146   1.399   .     S
C1116  O1148   1.398   .     S
C1116  O1147   1.223   .     D
C1117  C1119   1.392   .     A
C1117  H1141   1.074   .     S
C1118  H1125   1.085   .     S
C1119  H1135   1.084   .     S
C1119  C500    1.390   1_556 S
C1120  H1142   1.083   .     S
C1121  H1126   1.083   .     S
C1121  C682    1.384   1_565 S
C1122  H1133   1.083   .     S
C1122  C1159   1.401   .     S
C1122  C712    1.383   1_565 S
Cu1123 O1152   1.983   .     S
Cu1123 O1145   1.965   .     S
Cu1123 O1155   1.976   .     S
Cu1123 N1143   2.009   .     S
Cu1123 O1151   1.965   .     S
Cu1124 N1144   2.009   .     S
Cu1124 O1150   1.965   .     S
Cu1124 O1153   1.983   .     S
Cu1124 O1154   1.976   .     S
Cu1124 O1149   1.965   .     S
Cu1124 Cu1191  2.674   .     S
H1131  O1146   1.014   .     S
H1132  O1148   1.013   .     S
H1136  C1173   1.083   .     S
H1139  C1171   1.083   .     S
O1149  C1168   1.290   .     S
O1153  C1166   1.303   .     S
C1157  C1160   1.450   .     S
C1157  O1218   1.290   .     A
C1157  O1077   1.290   1_655 S
C1158  H1202   1.083   .     S
C1159  C1189   1.401   .     A
C1159  C1168   1.450   .     S
C1160  C1188   1.401   .     A
C1160  C1022   1.401   1_655 S
C1161  N1212   1.367   .     A
C1161  C1163   1.413   .     A
C1161  H1195   1.079   .     S
C1162  N1211   1.367   .     A
C1162  H1196   1.081   .     S
C1162  C1164   1.414   .     A
C1163  N1211   1.366   .     A
C1163  H1197   1.081   .     S
C1164  H1198   1.081   .     S
C1164  N1212   1.367   .     A
C1165  C1167   1.482   .     S
C1165  O1222   1.290   .     A
C1165  O1084   1.303   1_655 S
C1166  O1223   1.287   .     A
C1166  C1169   1.473   .     S
C1167  C1174   1.429   .     A
C1167  C1172   1.396   .     A
C1168  O1219   1.290   .     A
C1169  C1173   1.404   .     A
C1169  C1175   1.421   .     A
C1170  C1178   1.398   .     A
C1170  H1206   1.084   .     S
C1170  C1172   1.382   .     A
C1171  C1180   1.400   .     A
C1171  C1173   1.394   .     A
C1172  H1069   1.083   1_655 S
C1174  C1176   1.431   .     A
C1174  C1184   1.477   .     S
C1175  C1183   1.492   .     S
C1175  C1177   1.407   .     A
C1176  C1178   1.426   .     A
C1176  C1181   1.444   .     A
C1177  C1182   1.422   .     A
C1177  C1180   1.409   .     A
C1178  C574    1.391   1_556 S
C1179  H1208   1.077   .     S
C1179  C1186   1.380   .     A
C1179  C1182   1.406   .     A
C1181  C1185   1.418   .     A
C1181  C570    1.421   1_556 S
C1183  O1224   1.223   .     D
C1183  O1214   1.399   .     S
C1184  O1216   1.398   .     S
C1184  O1215   1.223   .     D
C1185  C1187   1.392   .     A
C1185  H1209   1.074   .     S
C1186  H1193   1.085   .     S
C1187  H1203   1.084   .     S
C1187  C568    1.390   1_556 S
C1188  H1210   1.083   .     S
C1189  H1194   1.083   .     S
C1189  C750    1.384   1_565 S
C1190  H1201   1.083   .     S
C1190  C1023   1.401   1_655 S
C1190  C780    1.383   1_565 S
Cu1191 O1220   1.983   .     S
Cu1191 O1213   1.965   .     S
Cu1191 O1223   1.976   .     S
Cu1191 N1211   2.009   .     S
Cu1191 O1219   1.965   .     S
Cu1192 N1212   2.009   .     S
Cu1192 O1218   1.965   .     S
Cu1192 O1221   1.983   .     S
Cu1192 O1222   1.976   .     S
Cu1192 O1217   1.965   .     S
Cu1192 Cu1055  2.674   1_655 S
H1199  O1214   1.014   .     S
H1200  O1216   1.013   .     S
H1204  C1037   1.083   1_655 S
H1207  C1035   1.083   1_655 S
O1217  C1032   1.290   1_655 S
O1221  C1030   1.303   1_655 S
