data_str_m3_o5_o17_pcu_sym.15
_audit_creation_date              2020-01-03
_audit_creation_method            'Materials Studio'
_symmetry_space_group_name_H-M    'P1'
_symmetry_Int_Tables_number       1
_symmetry_cell_setting            triclinic
loop_
_symmetry_equiv_pos_as_xyz
  x,y,z
_cell_length_a                    30.0240
_cell_length_b                    26.7483
_cell_length_c                    24.3381
_cell_angle_alpha                 89.9755
_cell_angle_beta                  89.9346
_cell_angle_gamma                 90.1624
loop_
_atom_site_label
_atom_site_type_symbol
_atom_site_fract_x
_atom_site_fract_y
_atom_site_fract_z
_atom_site_U_iso_or_equiv
_atom_site_adp_type
_atom_site_occupancy
O1     O     0.25000   0.09512   0.21228   0.00000  Uiso   1.00
O2     O     0.25000   0.23822   0.12105   0.00000  Uiso   1.00
O3     O     0.25000   0.23822   0.21228   0.00000  Uiso   1.00
O4     O     0.25000   0.09512   0.12105   0.00000  Uiso   1.00
C5     C     0.24990   0.07268   0.16668   0.00000  Uiso   1.00
C6     C     0.24990   0.26065   0.16666   0.00000  Uiso   1.00
O7     O     0.18392   0.16667   0.21230   0.00000  Uiso   1.00
O8     O     0.31607   0.16667   0.12104   0.00000  Uiso   1.00
O9     O     0.31607   0.16667   0.21230   0.00000  Uiso   1.00
O10    O     0.18392   0.16667   0.12104   0.00000  Uiso   1.00
C11    C     0.16335   0.16680   0.16676   0.00000  Uiso   1.00
C12    C     0.33668   0.16680   0.16669   0.00000  Uiso   1.00
Zn13   Zn    0.25000   0.16667   0.22759   0.00000  Uiso   1.00
Zn14   Zn    0.25000   0.16667   0.10574   0.00000  Uiso   1.00
N15    N     0.25000   0.16667   0.02455   0.00000  Uiso   1.00
N16    N     0.25000   0.16667   0.30879   0.00000  Uiso   1.00
C17    C     0.40645   0.20483   0.19576   0.00000  Uiso   1.00
C18    C     0.09298   0.12670   0.14340   0.00000  Uiso   1.00
C19    C     0.40716   0.12720   0.14275   0.00000  Uiso   1.00
C20    C     0.09378   0.20486   0.19546   0.00000  Uiso   1.00
C21    C     0.38437   0.16668   0.16744   0.00000  Uiso   1.00
C22    C     0.11567   0.16648   0.16769   0.00000  Uiso   1.00
C23    C     0.45327   0.12334   0.15050   0.00000  Uiso   1.00
C24    C     0.04704   0.20502   0.19748   0.00000  Uiso   1.00
C25    C     0.45324   0.20549   0.19678   0.00000  Uiso   1.00
C26    C     0.04652   0.12365   0.14881   0.00000  Uiso   1.00
C27    C     0.47666   0.16422   0.17410   0.00000  Uiso   1.00
C28    C     0.02340   0.16428   0.17361   0.00000  Uiso   1.00
C29    C     0.47651   0.07949   0.13547   0.00000  Uiso   1.00
C30    C     0.02356   0.24471   0.22255   0.00000  Uiso   1.00
C31    C     0.47691   0.24664   0.21863   0.00000  Uiso   1.00
C32    C     0.02303   0.08027   0.13224   0.00000  Uiso   1.00
C33    C     0.24987   0.02174   0.16670   0.00000  Uiso   1.00
C34    C     0.24986   0.31159   0.16666   0.00000  Uiso   1.00
O35    O     0.45490   0.03454   0.12696   0.00000  Uiso   1.00
H36    H     0.43117   0.03151   0.15511   0.00000  Uiso   1.00
O37    O     0.04638   0.28168   0.25054   0.00000  Uiso   1.00
H38    H     0.02775   0.29344   0.28159   0.00000  Uiso   1.00
O39    O     0.45429   0.28939   0.23401   0.00000  Uiso   1.00
H40    H     0.47399   0.31887   0.22927   0.00000  Uiso   1.00
O41    O     0.04631   0.03777   0.11713   0.00000  Uiso   1.00
H42    H     0.02600   0.01229   0.10150   0.00000  Uiso   1.00
N43    N     0.38073   0.24293   0.22255   0.00000  Uiso   1.00
O44    O     0.35816   0.27493   0.19356   0.00000  Uiso   1.00
O45    O     0.37734   0.24327   0.27588   0.00000  Uiso   1.00
N46    N     0.11764   0.09002   0.11296   0.00000  Uiso   1.00
O47    O     0.11439   0.08824   0.05969   0.00000  Uiso   1.00
O48    O     0.14450   0.05966   0.13823   0.00000  Uiso   1.00
N49    N     0.38363   0.09277   0.10774   0.00000  Uiso   1.00
O50    O     0.35151   0.06524   0.12728   0.00000  Uiso   1.00
O51    O     0.39547   0.08770   0.05660   0.00000  Uiso   1.00
N52    N     0.11971   0.24492   0.21837   0.00000  Uiso   1.00
O53    O     0.13163   0.24337   0.26973   0.00000  Uiso   1.00
O54    O     0.13596   0.27942   0.18637   0.00000  Uiso   1.00
O55    O     0.75000   0.09512   0.21228   0.00000  Uiso   1.00
O56    O     0.75000   0.23822   0.12105   0.00000  Uiso   1.00
O57    O     0.75000   0.23822   0.21228   0.00000  Uiso   1.00
O58    O     0.75000   0.09512   0.12105   0.00000  Uiso   1.00
C59    C     0.74990   0.07268   0.16668   0.00000  Uiso   1.00
C60    C     0.74990   0.26065   0.16666   0.00000  Uiso   1.00
O61    O     0.68392   0.16667   0.21230   0.00000  Uiso   1.00
O62    O     0.81607   0.16667   0.12104   0.00000  Uiso   1.00
O63    O     0.81607   0.16667   0.21230   0.00000  Uiso   1.00
O64    O     0.68392   0.16667   0.12104   0.00000  Uiso   1.00
C65    C     0.66335   0.16680   0.16676   0.00000  Uiso   1.00
C66    C     0.83668   0.16680   0.16669   0.00000  Uiso   1.00
Zn67   Zn    0.75000   0.16667   0.22759   0.00000  Uiso   1.00
Zn68   Zn    0.75000   0.16667   0.10574   0.00000  Uiso   1.00
N69    N     0.75000   0.16667   0.02455   0.00000  Uiso   1.00
N70    N     0.75000   0.16667   0.30879   0.00000  Uiso   1.00
C71    C     0.90645   0.20483   0.19576   0.00000  Uiso   1.00
C72    C     0.59298   0.12670   0.14340   0.00000  Uiso   1.00
C73    C     0.90716   0.12720   0.14275   0.00000  Uiso   1.00
C74    C     0.59378   0.20486   0.19546   0.00000  Uiso   1.00
C75    C     0.88437   0.16668   0.16744   0.00000  Uiso   1.00
C76    C     0.61567   0.16648   0.16769   0.00000  Uiso   1.00
C77    C     0.95327   0.12334   0.15050   0.00000  Uiso   1.00
C78    C     0.54704   0.20502   0.19748   0.00000  Uiso   1.00
C79    C     0.95324   0.20549   0.19678   0.00000  Uiso   1.00
C80    C     0.54652   0.12365   0.14881   0.00000  Uiso   1.00
C81    C     0.97666   0.16422   0.17410   0.00000  Uiso   1.00
C82    C     0.52340   0.16428   0.17361   0.00000  Uiso   1.00
C83    C     0.97651   0.07949   0.13547   0.00000  Uiso   1.00
C84    C     0.52356   0.24471   0.22255   0.00000  Uiso   1.00
C85    C     0.97691   0.24664   0.21863   0.00000  Uiso   1.00
C86    C     0.52303   0.08027   0.13224   0.00000  Uiso   1.00
C87    C     0.74987   0.02174   0.16670   0.00000  Uiso   1.00
C88    C     0.74986   0.31159   0.16666   0.00000  Uiso   1.00
O89    O     0.95490   0.03454   0.12696   0.00000  Uiso   1.00
H90    H     0.93117   0.03151   0.15511   0.00000  Uiso   1.00
O91    O     0.54638   0.28168   0.25054   0.00000  Uiso   1.00
H92    H     0.52775   0.29344   0.28159   0.00000  Uiso   1.00
O93    O     0.95429   0.28939   0.23401   0.00000  Uiso   1.00
H94    H     0.97399   0.31887   0.22927   0.00000  Uiso   1.00
O95    O     0.54631   0.03777   0.11713   0.00000  Uiso   1.00
H96    H     0.52600   0.01229   0.10150   0.00000  Uiso   1.00
N97    N     0.88073   0.24293   0.22255   0.00000  Uiso   1.00
O98    O     0.85816   0.27493   0.19356   0.00000  Uiso   1.00
O99    O     0.87734   0.24327   0.27588   0.00000  Uiso   1.00
N100   N     0.61764   0.09002   0.11296   0.00000  Uiso   1.00
O101   O     0.61439   0.08824   0.05969   0.00000  Uiso   1.00
O102   O     0.64450   0.05966   0.13823   0.00000  Uiso   1.00
N103   N     0.88363   0.09277   0.10774   0.00000  Uiso   1.00
O104   O     0.85151   0.06524   0.12728   0.00000  Uiso   1.00
O105   O     0.89547   0.08770   0.05660   0.00000  Uiso   1.00
N106   N     0.61971   0.24492   0.21837   0.00000  Uiso   1.00
O107   O     0.63163   0.24337   0.26973   0.00000  Uiso   1.00
O108   O     0.63596   0.27942   0.18637   0.00000  Uiso   1.00
O109   O     0.25000   0.42845   0.21228   0.00000  Uiso   1.00
O110   O     0.25000   0.57155   0.12105   0.00000  Uiso   1.00
O111   O     0.25000   0.57155   0.21228   0.00000  Uiso   1.00
O112   O     0.25000   0.42845   0.12105   0.00000  Uiso   1.00
C113   C     0.24990   0.40602   0.16668   0.00000  Uiso   1.00
C114   C     0.24990   0.59398   0.16666   0.00000  Uiso   1.00
O115   O     0.18392   0.50000   0.21230   0.00000  Uiso   1.00
O116   O     0.31607   0.50000   0.12104   0.00000  Uiso   1.00
O117   O     0.31607   0.50000   0.21230   0.00000  Uiso   1.00
O118   O     0.18392   0.50000   0.12104   0.00000  Uiso   1.00
C119   C     0.16335   0.50014   0.16676   0.00000  Uiso   1.00
C120   C     0.33668   0.50013   0.16669   0.00000  Uiso   1.00
Zn121  Zn    0.25000   0.50000   0.22759   0.00000  Uiso   1.00
Zn122  Zn    0.25000   0.50000   0.10574   0.00000  Uiso   1.00
N123   N     0.25000   0.50000   0.02455   0.00000  Uiso   1.00
N124   N     0.25000   0.50000   0.30879   0.00000  Uiso   1.00
C125   C     0.40645   0.53816   0.19576   0.00000  Uiso   1.00
C126   C     0.09298   0.46003   0.14340   0.00000  Uiso   1.00
C127   C     0.40716   0.46053   0.14275   0.00000  Uiso   1.00
C128   C     0.09378   0.53819   0.19546   0.00000  Uiso   1.00
C129   C     0.38437   0.50001   0.16744   0.00000  Uiso   1.00
C130   C     0.11567   0.49981   0.16769   0.00000  Uiso   1.00
C131   C     0.45327   0.45667   0.15050   0.00000  Uiso   1.00
C132   C     0.04704   0.53835   0.19748   0.00000  Uiso   1.00
C133   C     0.45324   0.53882   0.19678   0.00000  Uiso   1.00
C134   C     0.04652   0.45699   0.14881   0.00000  Uiso   1.00
C135   C     0.47666   0.49755   0.17410   0.00000  Uiso   1.00
C136   C     0.02340   0.49761   0.17361   0.00000  Uiso   1.00
C137   C     0.47651   0.41282   0.13547   0.00000  Uiso   1.00
C138   C     0.02356   0.57804   0.22255   0.00000  Uiso   1.00
C139   C     0.47691   0.57998   0.21863   0.00000  Uiso   1.00
C140   C     0.02303   0.41361   0.13224   0.00000  Uiso   1.00
C141   C     0.24987   0.35507   0.16670   0.00000  Uiso   1.00
C142   C     0.24986   0.64492   0.16666   0.00000  Uiso   1.00
O143   O     0.45490   0.36787   0.12696   0.00000  Uiso   1.00
H144   H     0.43117   0.36485   0.15511   0.00000  Uiso   1.00
O145   O     0.04638   0.61501   0.25054   0.00000  Uiso   1.00
H146   H     0.02775   0.62677   0.28159   0.00000  Uiso   1.00
O147   O     0.45429   0.62273   0.23401   0.00000  Uiso   1.00
H148   H     0.47399   0.65220   0.22927   0.00000  Uiso   1.00
O149   O     0.04631   0.37111   0.11713   0.00000  Uiso   1.00
H150   H     0.02600   0.34562   0.10150   0.00000  Uiso   1.00
N151   N     0.38073   0.57626   0.22255   0.00000  Uiso   1.00
O152   O     0.35816   0.60826   0.19356   0.00000  Uiso   1.00
O153   O     0.37734   0.57660   0.27588   0.00000  Uiso   1.00
N154   N     0.11764   0.42335   0.11296   0.00000  Uiso   1.00
O155   O     0.11439   0.42158   0.05969   0.00000  Uiso   1.00
O156   O     0.14450   0.39300   0.13823   0.00000  Uiso   1.00
N157   N     0.38363   0.42611   0.10774   0.00000  Uiso   1.00
O158   O     0.35151   0.39858   0.12728   0.00000  Uiso   1.00
O159   O     0.39547   0.42103   0.05660   0.00000  Uiso   1.00
N160   N     0.11971   0.57826   0.21837   0.00000  Uiso   1.00
O161   O     0.13163   0.57670   0.26973   0.00000  Uiso   1.00
O162   O     0.13596   0.61276   0.18637   0.00000  Uiso   1.00
O163   O     0.75000   0.42845   0.21228   0.00000  Uiso   1.00
O164   O     0.75000   0.57155   0.12105   0.00000  Uiso   1.00
O165   O     0.75000   0.57155   0.21228   0.00000  Uiso   1.00
O166   O     0.75000   0.42845   0.12105   0.00000  Uiso   1.00
C167   C     0.74990   0.40602   0.16668   0.00000  Uiso   1.00
C168   C     0.74990   0.59398   0.16666   0.00000  Uiso   1.00
O169   O     0.68392   0.50000   0.21230   0.00000  Uiso   1.00
O170   O     0.81607   0.50000   0.12104   0.00000  Uiso   1.00
O171   O     0.81607   0.50000   0.21230   0.00000  Uiso   1.00
O172   O     0.68392   0.50000   0.12104   0.00000  Uiso   1.00
C173   C     0.66335   0.50014   0.16676   0.00000  Uiso   1.00
C174   C     0.83668   0.50013   0.16669   0.00000  Uiso   1.00
Zn175  Zn    0.75000   0.50000   0.22759   0.00000  Uiso   1.00
Zn176  Zn    0.75000   0.50000   0.10574   0.00000  Uiso   1.00
N177   N     0.75000   0.50000   0.02455   0.00000  Uiso   1.00
N178   N     0.75000   0.50000   0.30879   0.00000  Uiso   1.00
C179   C     0.90645   0.53816   0.19576   0.00000  Uiso   1.00
C180   C     0.59298   0.46003   0.14340   0.00000  Uiso   1.00
C181   C     0.90716   0.46053   0.14275   0.00000  Uiso   1.00
C182   C     0.59378   0.53819   0.19546   0.00000  Uiso   1.00
C183   C     0.88437   0.50001   0.16744   0.00000  Uiso   1.00
C184   C     0.61567   0.49981   0.16769   0.00000  Uiso   1.00
C185   C     0.95327   0.45667   0.15050   0.00000  Uiso   1.00
C186   C     0.54704   0.53835   0.19748   0.00000  Uiso   1.00
C187   C     0.95324   0.53882   0.19678   0.00000  Uiso   1.00
C188   C     0.54652   0.45699   0.14881   0.00000  Uiso   1.00
C189   C     0.97666   0.49755   0.17410   0.00000  Uiso   1.00
C190   C     0.52340   0.49761   0.17361   0.00000  Uiso   1.00
C191   C     0.97651   0.41282   0.13547   0.00000  Uiso   1.00
C192   C     0.52356   0.57804   0.22255   0.00000  Uiso   1.00
C193   C     0.97691   0.57998   0.21863   0.00000  Uiso   1.00
C194   C     0.52303   0.41361   0.13224   0.00000  Uiso   1.00
C195   C     0.74987   0.35507   0.16670   0.00000  Uiso   1.00
C196   C     0.74986   0.64492   0.16666   0.00000  Uiso   1.00
O197   O     0.95490   0.36787   0.12696   0.00000  Uiso   1.00
H198   H     0.93117   0.36485   0.15511   0.00000  Uiso   1.00
O199   O     0.54638   0.61501   0.25054   0.00000  Uiso   1.00
H200   H     0.52775   0.62677   0.28159   0.00000  Uiso   1.00
O201   O     0.95429   0.62273   0.23401   0.00000  Uiso   1.00
H202   H     0.97399   0.65220   0.22927   0.00000  Uiso   1.00
O203   O     0.54631   0.37111   0.11713   0.00000  Uiso   1.00
H204   H     0.52600   0.34562   0.10150   0.00000  Uiso   1.00
N205   N     0.88073   0.57626   0.22255   0.00000  Uiso   1.00
O206   O     0.85816   0.60826   0.19356   0.00000  Uiso   1.00
O207   O     0.87734   0.57660   0.27588   0.00000  Uiso   1.00
N208   N     0.61764   0.42335   0.11296   0.00000  Uiso   1.00
O209   O     0.61439   0.42158   0.05969   0.00000  Uiso   1.00
O210   O     0.64450   0.39300   0.13823   0.00000  Uiso   1.00
N211   N     0.88363   0.42611   0.10774   0.00000  Uiso   1.00
O212   O     0.85151   0.39858   0.12728   0.00000  Uiso   1.00
O213   O     0.89547   0.42103   0.05660   0.00000  Uiso   1.00
N214   N     0.61971   0.57826   0.21837   0.00000  Uiso   1.00
O215   O     0.63163   0.57670   0.26973   0.00000  Uiso   1.00
O216   O     0.63596   0.61276   0.18637   0.00000  Uiso   1.00
O217   O     0.25000   0.76178   0.21228   0.00000  Uiso   1.00
O218   O     0.25000   0.90488   0.12105   0.00000  Uiso   1.00
O219   O     0.25000   0.90488   0.21228   0.00000  Uiso   1.00
O220   O     0.25000   0.76178   0.12105   0.00000  Uiso   1.00
C221   C     0.24990   0.73935   0.16668   0.00000  Uiso   1.00
C222   C     0.24990   0.92731   0.16666   0.00000  Uiso   1.00
O223   O     0.18392   0.83333   0.21230   0.00000  Uiso   1.00
O224   O     0.31607   0.83333   0.12104   0.00000  Uiso   1.00
O225   O     0.31607   0.83333   0.21230   0.00000  Uiso   1.00
O226   O     0.18392   0.83333   0.12104   0.00000  Uiso   1.00
C227   C     0.16335   0.83347   0.16676   0.00000  Uiso   1.00
C228   C     0.33668   0.83347   0.16669   0.00000  Uiso   1.00
Zn229  Zn    0.25000   0.83333   0.22759   0.00000  Uiso   1.00
Zn230  Zn    0.25000   0.83333   0.10574   0.00000  Uiso   1.00
N231   N     0.25000   0.83333   0.02455   0.00000  Uiso   1.00
N232   N     0.25000   0.83333   0.30879   0.00000  Uiso   1.00
C233   C     0.40645   0.87150   0.19576   0.00000  Uiso   1.00
C234   C     0.09298   0.79336   0.14340   0.00000  Uiso   1.00
C235   C     0.40716   0.79386   0.14275   0.00000  Uiso   1.00
C236   C     0.09378   0.87153   0.19546   0.00000  Uiso   1.00
C237   C     0.38437   0.83335   0.16744   0.00000  Uiso   1.00
C238   C     0.11567   0.83314   0.16769   0.00000  Uiso   1.00
C239   C     0.45327   0.79001   0.15050   0.00000  Uiso   1.00
C240   C     0.04704   0.87169   0.19748   0.00000  Uiso   1.00
C241   C     0.45324   0.87215   0.19678   0.00000  Uiso   1.00
C242   C     0.04652   0.79032   0.14881   0.00000  Uiso   1.00
C243   C     0.47666   0.83088   0.17410   0.00000  Uiso   1.00
C244   C     0.02340   0.83094   0.17361   0.00000  Uiso   1.00
C245   C     0.47651   0.74616   0.13547   0.00000  Uiso   1.00
C246   C     0.02356   0.91137   0.22255   0.00000  Uiso   1.00
C247   C     0.47691   0.91331   0.21863   0.00000  Uiso   1.00
C248   C     0.02303   0.74694   0.13224   0.00000  Uiso   1.00
C249   C     0.24987   0.68841   0.16670   0.00000  Uiso   1.00
C250   C     0.24986   0.97825   0.16666   0.00000  Uiso   1.00
O251   O     0.45490   0.70120   0.12696   0.00000  Uiso   1.00
H252   H     0.43117   0.69818   0.15511   0.00000  Uiso   1.00
O253   O     0.04638   0.94834   0.25054   0.00000  Uiso   1.00
H254   H     0.02775   0.96011   0.28159   0.00000  Uiso   1.00
O255   O     0.45429   0.95606   0.23401   0.00000  Uiso   1.00
H256   H     0.47399   0.98554   0.22927   0.00000  Uiso   1.00
O257   O     0.04631   0.70444   0.11713   0.00000  Uiso   1.00
H258   H     0.02600   0.67896   0.10150   0.00000  Uiso   1.00
N259   N     0.38073   0.90960   0.22255   0.00000  Uiso   1.00
O260   O     0.35816   0.94160   0.19356   0.00000  Uiso   1.00
O261   O     0.37734   0.90994   0.27588   0.00000  Uiso   1.00
N262   N     0.11764   0.75668   0.11296   0.00000  Uiso   1.00
O263   O     0.11439   0.75491   0.05969   0.00000  Uiso   1.00
O264   O     0.14450   0.72633   0.13823   0.00000  Uiso   1.00
N265   N     0.38363   0.75944   0.10774   0.00000  Uiso   1.00
O266   O     0.35151   0.73191   0.12728   0.00000  Uiso   1.00
O267   O     0.39547   0.75436   0.05660   0.00000  Uiso   1.00
N268   N     0.11971   0.91159   0.21837   0.00000  Uiso   1.00
O269   O     0.13163   0.91004   0.26973   0.00000  Uiso   1.00
O270   O     0.13596   0.94609   0.18637   0.00000  Uiso   1.00
O271   O     0.75000   0.76178   0.21228   0.00000  Uiso   1.00
O272   O     0.75000   0.90488   0.12105   0.00000  Uiso   1.00
O273   O     0.75000   0.90488   0.21228   0.00000  Uiso   1.00
O274   O     0.75000   0.76178   0.12105   0.00000  Uiso   1.00
C275   C     0.74990   0.73935   0.16668   0.00000  Uiso   1.00
C276   C     0.74990   0.92731   0.16666   0.00000  Uiso   1.00
O277   O     0.68392   0.83333   0.21230   0.00000  Uiso   1.00
O278   O     0.81607   0.83333   0.12104   0.00000  Uiso   1.00
O279   O     0.81607   0.83333   0.21230   0.00000  Uiso   1.00
O280   O     0.68392   0.83333   0.12104   0.00000  Uiso   1.00
C281   C     0.66335   0.83347   0.16676   0.00000  Uiso   1.00
C282   C     0.83668   0.83347   0.16669   0.00000  Uiso   1.00
Zn283  Zn    0.75000   0.83333   0.22759   0.00000  Uiso   1.00
Zn284  Zn    0.75000   0.83333   0.10574   0.00000  Uiso   1.00
N285   N     0.75000   0.83333   0.02455   0.00000  Uiso   1.00
N286   N     0.75000   0.83333   0.30879   0.00000  Uiso   1.00
C287   C     0.90645   0.87150   0.19576   0.00000  Uiso   1.00
C288   C     0.59298   0.79336   0.14340   0.00000  Uiso   1.00
C289   C     0.90716   0.79386   0.14275   0.00000  Uiso   1.00
C290   C     0.59378   0.87153   0.19546   0.00000  Uiso   1.00
C291   C     0.88437   0.83335   0.16744   0.00000  Uiso   1.00
C292   C     0.61567   0.83314   0.16769   0.00000  Uiso   1.00
C293   C     0.95327   0.79001   0.15050   0.00000  Uiso   1.00
C294   C     0.54704   0.87169   0.19748   0.00000  Uiso   1.00
C295   C     0.95324   0.87215   0.19678   0.00000  Uiso   1.00
C296   C     0.54652   0.79032   0.14881   0.00000  Uiso   1.00
C297   C     0.97666   0.83088   0.17410   0.00000  Uiso   1.00
C298   C     0.52340   0.83094   0.17361   0.00000  Uiso   1.00
C299   C     0.97651   0.74616   0.13547   0.00000  Uiso   1.00
C300   C     0.52356   0.91137   0.22255   0.00000  Uiso   1.00
C301   C     0.97691   0.91331   0.21863   0.00000  Uiso   1.00
C302   C     0.52303   0.74694   0.13224   0.00000  Uiso   1.00
C303   C     0.74987   0.68841   0.16670   0.00000  Uiso   1.00
C304   C     0.74986   0.97825   0.16666   0.00000  Uiso   1.00
O305   O     0.95490   0.70120   0.12696   0.00000  Uiso   1.00
H306   H     0.93117   0.69818   0.15511   0.00000  Uiso   1.00
O307   O     0.54638   0.94834   0.25054   0.00000  Uiso   1.00
H308   H     0.52775   0.96011   0.28159   0.00000  Uiso   1.00
O309   O     0.95429   0.95606   0.23401   0.00000  Uiso   1.00
H310   H     0.97399   0.98554   0.22927   0.00000  Uiso   1.00
O311   O     0.54631   0.70444   0.11713   0.00000  Uiso   1.00
H312   H     0.52600   0.67896   0.10150   0.00000  Uiso   1.00
N313   N     0.88073   0.90960   0.22255   0.00000  Uiso   1.00
O314   O     0.85816   0.94160   0.19356   0.00000  Uiso   1.00
O315   O     0.87734   0.90994   0.27588   0.00000  Uiso   1.00
N316   N     0.61764   0.75668   0.11296   0.00000  Uiso   1.00
O317   O     0.61439   0.75491   0.05969   0.00000  Uiso   1.00
O318   O     0.64450   0.72633   0.13823   0.00000  Uiso   1.00
N319   N     0.88363   0.75944   0.10774   0.00000  Uiso   1.00
O320   O     0.85151   0.73191   0.12728   0.00000  Uiso   1.00
O321   O     0.89547   0.75436   0.05660   0.00000  Uiso   1.00
N322   N     0.61971   0.91159   0.21837   0.00000  Uiso   1.00
O323   O     0.63163   0.91004   0.26973   0.00000  Uiso   1.00
O324   O     0.63596   0.94609   0.18637   0.00000  Uiso   1.00
O325   O     0.25000   0.09512   0.54562   0.00000  Uiso   1.00
O326   O     0.25000   0.23822   0.45438   0.00000  Uiso   1.00
O327   O     0.25000   0.23822   0.54562   0.00000  Uiso   1.00
O328   O     0.25000   0.09512   0.45438   0.00000  Uiso   1.00
C329   C     0.24990   0.07268   0.50002   0.00000  Uiso   1.00
C330   C     0.24990   0.26065   0.49999   0.00000  Uiso   1.00
O331   O     0.18392   0.16667   0.54563   0.00000  Uiso   1.00
O332   O     0.31607   0.16667   0.45437   0.00000  Uiso   1.00
O333   O     0.31607   0.16667   0.54563   0.00000  Uiso   1.00
O334   O     0.18392   0.16667   0.45437   0.00000  Uiso   1.00
C335   C     0.16335   0.16680   0.50010   0.00000  Uiso   1.00
C336   C     0.33668   0.16680   0.50002   0.00000  Uiso   1.00
Zn337  Zn    0.25000   0.16667   0.56093   0.00000  Uiso   1.00
Zn338  Zn    0.25000   0.16667   0.43907   0.00000  Uiso   1.00
N339   N     0.25000   0.16667   0.35788   0.00000  Uiso   1.00
N340   N     0.25000   0.16667   0.64212   0.00000  Uiso   1.00
C341   C     0.40645   0.20483   0.52909   0.00000  Uiso   1.00
C342   C     0.09298   0.12670   0.47674   0.00000  Uiso   1.00
C343   C     0.40716   0.12720   0.47609   0.00000  Uiso   1.00
C344   C     0.09378   0.20486   0.52879   0.00000  Uiso   1.00
C345   C     0.38437   0.16668   0.50077   0.00000  Uiso   1.00
C346   C     0.11567   0.16648   0.50102   0.00000  Uiso   1.00
C347   C     0.45327   0.12334   0.48383   0.00000  Uiso   1.00
C348   C     0.04704   0.20502   0.53082   0.00000  Uiso   1.00
C349   C     0.45324   0.20549   0.53011   0.00000  Uiso   1.00
C350   C     0.04652   0.12365   0.48215   0.00000  Uiso   1.00
C351   C     0.47666   0.16422   0.50744   0.00000  Uiso   1.00
C352   C     0.02340   0.16428   0.50694   0.00000  Uiso   1.00
C353   C     0.47651   0.07949   0.46880   0.00000  Uiso   1.00
C354   C     0.02356   0.24471   0.55589   0.00000  Uiso   1.00
C355   C     0.47691   0.24664   0.55196   0.00000  Uiso   1.00
C356   C     0.02303   0.08027   0.46557   0.00000  Uiso   1.00
C357   C     0.24987   0.02174   0.50003   0.00000  Uiso   1.00
C358   C     0.24986   0.31159   0.50000   0.00000  Uiso   1.00
O359   O     0.45490   0.03454   0.46030   0.00000  Uiso   1.00
H360   H     0.43117   0.03151   0.48845   0.00000  Uiso   1.00
O361   O     0.04638   0.28168   0.58387   0.00000  Uiso   1.00
H362   H     0.02775   0.29344   0.61492   0.00000  Uiso   1.00
O363   O     0.45429   0.28939   0.56735   0.00000  Uiso   1.00
H364   H     0.47399   0.31887   0.56260   0.00000  Uiso   1.00
O365   O     0.04631   0.03777   0.45047   0.00000  Uiso   1.00
H366   H     0.02600   0.01229   0.43484   0.00000  Uiso   1.00
N367   N     0.38073   0.24293   0.55589   0.00000  Uiso   1.00
O368   O     0.35816   0.27493   0.52689   0.00000  Uiso   1.00
O369   O     0.37734   0.24327   0.60921   0.00000  Uiso   1.00
N370   N     0.11764   0.09002   0.44629   0.00000  Uiso   1.00
O371   O     0.11439   0.08824   0.39302   0.00000  Uiso   1.00
O372   O     0.14450   0.05966   0.47156   0.00000  Uiso   1.00
N373   N     0.38363   0.09277   0.44107   0.00000  Uiso   1.00
O374   O     0.35151   0.06524   0.46061   0.00000  Uiso   1.00
O375   O     0.39547   0.08770   0.38993   0.00000  Uiso   1.00
N376   N     0.11971   0.24492   0.55170   0.00000  Uiso   1.00
O377   O     0.13163   0.24337   0.60306   0.00000  Uiso   1.00
O378   O     0.13596   0.27942   0.51971   0.00000  Uiso   1.00
O379   O     0.75000   0.09512   0.54562   0.00000  Uiso   1.00
O380   O     0.75000   0.23822   0.45438   0.00000  Uiso   1.00
O381   O     0.75000   0.23822   0.54562   0.00000  Uiso   1.00
O382   O     0.75000   0.09512   0.45438   0.00000  Uiso   1.00
C383   C     0.74990   0.07268   0.50002   0.00000  Uiso   1.00
C384   C     0.74990   0.26065   0.49999   0.00000  Uiso   1.00
O385   O     0.68392   0.16667   0.54563   0.00000  Uiso   1.00
O386   O     0.81607   0.16667   0.45437   0.00000  Uiso   1.00
O387   O     0.81607   0.16667   0.54563   0.00000  Uiso   1.00
O388   O     0.68392   0.16667   0.45437   0.00000  Uiso   1.00
C389   C     0.66335   0.16680   0.50010   0.00000  Uiso   1.00
C390   C     0.83668   0.16680   0.50002   0.00000  Uiso   1.00
Zn391  Zn    0.75000   0.16667   0.56093   0.00000  Uiso   1.00
Zn392  Zn    0.75000   0.16667   0.43907   0.00000  Uiso   1.00
N393   N     0.75000   0.16667   0.35788   0.00000  Uiso   1.00
N394   N     0.75000   0.16667   0.64212   0.00000  Uiso   1.00
C395   C     0.90645   0.20483   0.52909   0.00000  Uiso   1.00
C396   C     0.59298   0.12670   0.47674   0.00000  Uiso   1.00
C397   C     0.90716   0.12720   0.47609   0.00000  Uiso   1.00
C398   C     0.59378   0.20486   0.52879   0.00000  Uiso   1.00
C399   C     0.88437   0.16668   0.50077   0.00000  Uiso   1.00
C400   C     0.61567   0.16648   0.50102   0.00000  Uiso   1.00
C401   C     0.95327   0.12334   0.48383   0.00000  Uiso   1.00
C402   C     0.54704   0.20502   0.53082   0.00000  Uiso   1.00
C403   C     0.95324   0.20549   0.53011   0.00000  Uiso   1.00
C404   C     0.54652   0.12365   0.48215   0.00000  Uiso   1.00
C405   C     0.97666   0.16422   0.50744   0.00000  Uiso   1.00
C406   C     0.52340   0.16428   0.50694   0.00000  Uiso   1.00
C407   C     0.97651   0.07949   0.46880   0.00000  Uiso   1.00
C408   C     0.52356   0.24471   0.55589   0.00000  Uiso   1.00
C409   C     0.97691   0.24664   0.55196   0.00000  Uiso   1.00
C410   C     0.52303   0.08027   0.46557   0.00000  Uiso   1.00
C411   C     0.74987   0.02174   0.50003   0.00000  Uiso   1.00
C412   C     0.74986   0.31159   0.50000   0.00000  Uiso   1.00
O413   O     0.95490   0.03454   0.46030   0.00000  Uiso   1.00
H414   H     0.93117   0.03151   0.48845   0.00000  Uiso   1.00
O415   O     0.54638   0.28168   0.58387   0.00000  Uiso   1.00
H416   H     0.52775   0.29344   0.61492   0.00000  Uiso   1.00
O417   O     0.95429   0.28939   0.56735   0.00000  Uiso   1.00
H418   H     0.97399   0.31887   0.56260   0.00000  Uiso   1.00
O419   O     0.54631   0.03777   0.45047   0.00000  Uiso   1.00
H420   H     0.52600   0.01229   0.43484   0.00000  Uiso   1.00
N421   N     0.88073   0.24293   0.55589   0.00000  Uiso   1.00
O422   O     0.85816   0.27493   0.52689   0.00000  Uiso   1.00
O423   O     0.87734   0.24327   0.60921   0.00000  Uiso   1.00
N424   N     0.61764   0.09002   0.44629   0.00000  Uiso   1.00
O425   O     0.61439   0.08824   0.39302   0.00000  Uiso   1.00
O426   O     0.64450   0.05966   0.47156   0.00000  Uiso   1.00
N427   N     0.88363   0.09277   0.44107   0.00000  Uiso   1.00
O428   O     0.85151   0.06524   0.46061   0.00000  Uiso   1.00
O429   O     0.89547   0.08770   0.38993   0.00000  Uiso   1.00
N430   N     0.61971   0.24492   0.55170   0.00000  Uiso   1.00
O431   O     0.63163   0.24337   0.60306   0.00000  Uiso   1.00
O432   O     0.63596   0.27942   0.51971   0.00000  Uiso   1.00
O433   O     0.25000   0.42845   0.54562   0.00000  Uiso   1.00
O434   O     0.25000   0.57155   0.45438   0.00000  Uiso   1.00
O435   O     0.25000   0.57155   0.54562   0.00000  Uiso   1.00
O436   O     0.25000   0.42845   0.45438   0.00000  Uiso   1.00
C437   C     0.24990   0.40602   0.50002   0.00000  Uiso   1.00
C438   C     0.24990   0.59398   0.49999   0.00000  Uiso   1.00
O439   O     0.18392   0.50000   0.54563   0.00000  Uiso   1.00
O440   O     0.31607   0.50000   0.45437   0.00000  Uiso   1.00
O441   O     0.31607   0.50000   0.54563   0.00000  Uiso   1.00
O442   O     0.18392   0.50000   0.45437   0.00000  Uiso   1.00
C443   C     0.16335   0.50014   0.50010   0.00000  Uiso   1.00
C444   C     0.33668   0.50013   0.50002   0.00000  Uiso   1.00
Zn445  Zn    0.25000   0.50000   0.56093   0.00000  Uiso   1.00
Zn446  Zn    0.25000   0.50000   0.43907   0.00000  Uiso   1.00
N447   N     0.25000   0.50000   0.35788   0.00000  Uiso   1.00
N448   N     0.25000   0.50000   0.64212   0.00000  Uiso   1.00
C449   C     0.40645   0.53816   0.52909   0.00000  Uiso   1.00
C450   C     0.09298   0.46003   0.47674   0.00000  Uiso   1.00
C451   C     0.40716   0.46053   0.47609   0.00000  Uiso   1.00
C452   C     0.09378   0.53819   0.52879   0.00000  Uiso   1.00
C453   C     0.38437   0.50001   0.50077   0.00000  Uiso   1.00
C454   C     0.11567   0.49981   0.50102   0.00000  Uiso   1.00
C455   C     0.45327   0.45667   0.48383   0.00000  Uiso   1.00
C456   C     0.04704   0.53835   0.53082   0.00000  Uiso   1.00
C457   C     0.45324   0.53882   0.53011   0.00000  Uiso   1.00
C458   C     0.04652   0.45699   0.48215   0.00000  Uiso   1.00
C459   C     0.47666   0.49755   0.50744   0.00000  Uiso   1.00
C460   C     0.02340   0.49761   0.50694   0.00000  Uiso   1.00
C461   C     0.47651   0.41282   0.46880   0.00000  Uiso   1.00
C462   C     0.02356   0.57804   0.55589   0.00000  Uiso   1.00
C463   C     0.47691   0.57998   0.55196   0.00000  Uiso   1.00
C464   C     0.02303   0.41361   0.46557   0.00000  Uiso   1.00
C465   C     0.24987   0.35507   0.50003   0.00000  Uiso   1.00
C466   C     0.24986   0.64492   0.50000   0.00000  Uiso   1.00
O467   O     0.45490   0.36787   0.46030   0.00000  Uiso   1.00
H468   H     0.43117   0.36485   0.48845   0.00000  Uiso   1.00
O469   O     0.04638   0.61501   0.58387   0.00000  Uiso   1.00
H470   H     0.02775   0.62677   0.61492   0.00000  Uiso   1.00
O471   O     0.45429   0.62273   0.56735   0.00000  Uiso   1.00
H472   H     0.47399   0.65220   0.56260   0.00000  Uiso   1.00
O473   O     0.04631   0.37111   0.45047   0.00000  Uiso   1.00
H474   H     0.02600   0.34562   0.43484   0.00000  Uiso   1.00
N475   N     0.38073   0.57626   0.55589   0.00000  Uiso   1.00
O476   O     0.35816   0.60826   0.52689   0.00000  Uiso   1.00
O477   O     0.37734   0.57660   0.60921   0.00000  Uiso   1.00
N478   N     0.11764   0.42335   0.44629   0.00000  Uiso   1.00
O479   O     0.11439   0.42158   0.39302   0.00000  Uiso   1.00
O480   O     0.14450   0.39300   0.47156   0.00000  Uiso   1.00
N481   N     0.38363   0.42611   0.44107   0.00000  Uiso   1.00
O482   O     0.35151   0.39858   0.46061   0.00000  Uiso   1.00
O483   O     0.39547   0.42103   0.38993   0.00000  Uiso   1.00
N484   N     0.11971   0.57826   0.55170   0.00000  Uiso   1.00
O485   O     0.13163   0.57670   0.60306   0.00000  Uiso   1.00
O486   O     0.13596   0.61276   0.51971   0.00000  Uiso   1.00
O487   O     0.75000   0.42845   0.54562   0.00000  Uiso   1.00
O488   O     0.75000   0.57155   0.45438   0.00000  Uiso   1.00
O489   O     0.75000   0.57155   0.54562   0.00000  Uiso   1.00
O490   O     0.75000   0.42845   0.45438   0.00000  Uiso   1.00
C491   C     0.74990   0.40602   0.50002   0.00000  Uiso   1.00
C492   C     0.74990   0.59398   0.49999   0.00000  Uiso   1.00
O493   O     0.68392   0.50000   0.54563   0.00000  Uiso   1.00
O494   O     0.81607   0.50000   0.45437   0.00000  Uiso   1.00
O495   O     0.81607   0.50000   0.54563   0.00000  Uiso   1.00
O496   O     0.68392   0.50000   0.45437   0.00000  Uiso   1.00
C497   C     0.66335   0.50014   0.50010   0.00000  Uiso   1.00
C498   C     0.83668   0.50013   0.50002   0.00000  Uiso   1.00
Zn499  Zn    0.75000   0.50000   0.56093   0.00000  Uiso   1.00
Zn500  Zn    0.75000   0.50000   0.43907   0.00000  Uiso   1.00
N501   N     0.75000   0.50000   0.35788   0.00000  Uiso   1.00
N502   N     0.75000   0.50000   0.64212   0.00000  Uiso   1.00
C503   C     0.90645   0.53816   0.52909   0.00000  Uiso   1.00
C504   C     0.59298   0.46003   0.47674   0.00000  Uiso   1.00
C505   C     0.90716   0.46053   0.47609   0.00000  Uiso   1.00
C506   C     0.59378   0.53819   0.52879   0.00000  Uiso   1.00
C507   C     0.88437   0.50001   0.50077   0.00000  Uiso   1.00
C508   C     0.61567   0.49981   0.50102   0.00000  Uiso   1.00
C509   C     0.95327   0.45667   0.48383   0.00000  Uiso   1.00
C510   C     0.54704   0.53835   0.53082   0.00000  Uiso   1.00
C511   C     0.95324   0.53882   0.53011   0.00000  Uiso   1.00
C512   C     0.54652   0.45699   0.48215   0.00000  Uiso   1.00
C513   C     0.97666   0.49755   0.50744   0.00000  Uiso   1.00
C514   C     0.52340   0.49761   0.50694   0.00000  Uiso   1.00
C515   C     0.97651   0.41282   0.46880   0.00000  Uiso   1.00
C516   C     0.52356   0.57804   0.55589   0.00000  Uiso   1.00
C517   C     0.97691   0.57998   0.55196   0.00000  Uiso   1.00
C518   C     0.52303   0.41361   0.46557   0.00000  Uiso   1.00
C519   C     0.74987   0.35507   0.50003   0.00000  Uiso   1.00
C520   C     0.74986   0.64492   0.50000   0.00000  Uiso   1.00
O521   O     0.95490   0.36787   0.46030   0.00000  Uiso   1.00
H522   H     0.93117   0.36485   0.48845   0.00000  Uiso   1.00
O523   O     0.54638   0.61501   0.58387   0.00000  Uiso   1.00
H524   H     0.52775   0.62677   0.61492   0.00000  Uiso   1.00
O525   O     0.95429   0.62273   0.56735   0.00000  Uiso   1.00
H526   H     0.97399   0.65220   0.56260   0.00000  Uiso   1.00
O527   O     0.54631   0.37111   0.45047   0.00000  Uiso   1.00
H528   H     0.52600   0.34562   0.43484   0.00000  Uiso   1.00
N529   N     0.88073   0.57626   0.55589   0.00000  Uiso   1.00
O530   O     0.85816   0.60826   0.52689   0.00000  Uiso   1.00
O531   O     0.87734   0.57660   0.60921   0.00000  Uiso   1.00
N532   N     0.61764   0.42335   0.44629   0.00000  Uiso   1.00
O533   O     0.61439   0.42158   0.39302   0.00000  Uiso   1.00
O534   O     0.64450   0.39300   0.47156   0.00000  Uiso   1.00
N535   N     0.88363   0.42611   0.44107   0.00000  Uiso   1.00
O536   O     0.85151   0.39858   0.46061   0.00000  Uiso   1.00
O537   O     0.89547   0.42103   0.38993   0.00000  Uiso   1.00
N538   N     0.61971   0.57826   0.55170   0.00000  Uiso   1.00
O539   O     0.63163   0.57670   0.60306   0.00000  Uiso   1.00
O540   O     0.63596   0.61276   0.51971   0.00000  Uiso   1.00
O541   O     0.25000   0.76178   0.54562   0.00000  Uiso   1.00
O542   O     0.25000   0.90488   0.45438   0.00000  Uiso   1.00
O543   O     0.25000   0.90488   0.54562   0.00000  Uiso   1.00
O544   O     0.25000   0.76178   0.45438   0.00000  Uiso   1.00
C545   C     0.24990   0.73935   0.50002   0.00000  Uiso   1.00
C546   C     0.24990   0.92731   0.49999   0.00000  Uiso   1.00
O547   O     0.18392   0.83333   0.54563   0.00000  Uiso   1.00
O548   O     0.31607   0.83333   0.45437   0.00000  Uiso   1.00
O549   O     0.31607   0.83333   0.54563   0.00000  Uiso   1.00
O550   O     0.18392   0.83333   0.45437   0.00000  Uiso   1.00
C551   C     0.16335   0.83347   0.50010   0.00000  Uiso   1.00
C552   C     0.33668   0.83347   0.50002   0.00000  Uiso   1.00
Zn553  Zn    0.25000   0.83333   0.56093   0.00000  Uiso   1.00
Zn554  Zn    0.25000   0.83333   0.43907   0.00000  Uiso   1.00
N555   N     0.25000   0.83333   0.35788   0.00000  Uiso   1.00
N556   N     0.25000   0.83333   0.64212   0.00000  Uiso   1.00
C557   C     0.40645   0.87150   0.52909   0.00000  Uiso   1.00
C558   C     0.09298   0.79336   0.47674   0.00000  Uiso   1.00
C559   C     0.40716   0.79386   0.47609   0.00000  Uiso   1.00
C560   C     0.09378   0.87153   0.52879   0.00000  Uiso   1.00
C561   C     0.38437   0.83335   0.50077   0.00000  Uiso   1.00
C562   C     0.11567   0.83314   0.50102   0.00000  Uiso   1.00
C563   C     0.45327   0.79001   0.48383   0.00000  Uiso   1.00
C564   C     0.04704   0.87169   0.53082   0.00000  Uiso   1.00
C565   C     0.45324   0.87215   0.53011   0.00000  Uiso   1.00
C566   C     0.04652   0.79032   0.48215   0.00000  Uiso   1.00
C567   C     0.47666   0.83088   0.50744   0.00000  Uiso   1.00
C568   C     0.02340   0.83094   0.50694   0.00000  Uiso   1.00
C569   C     0.47651   0.74616   0.46880   0.00000  Uiso   1.00
C570   C     0.02356   0.91137   0.55589   0.00000  Uiso   1.00
C571   C     0.47691   0.91331   0.55196   0.00000  Uiso   1.00
C572   C     0.02303   0.74694   0.46557   0.00000  Uiso   1.00
C573   C     0.24987   0.68841   0.50003   0.00000  Uiso   1.00
C574   C     0.24986   0.97825   0.50000   0.00000  Uiso   1.00
O575   O     0.45490   0.70120   0.46030   0.00000  Uiso   1.00
H576   H     0.43117   0.69818   0.48845   0.00000  Uiso   1.00
O577   O     0.04638   0.94834   0.58387   0.00000  Uiso   1.00
H578   H     0.02775   0.96011   0.61492   0.00000  Uiso   1.00
O579   O     0.45429   0.95606   0.56735   0.00000  Uiso   1.00
H580   H     0.47399   0.98554   0.56260   0.00000  Uiso   1.00
O581   O     0.04631   0.70444   0.45047   0.00000  Uiso   1.00
H582   H     0.02600   0.67896   0.43484   0.00000  Uiso   1.00
N583   N     0.38073   0.90960   0.55589   0.00000  Uiso   1.00
O584   O     0.35816   0.94160   0.52689   0.00000  Uiso   1.00
O585   O     0.37734   0.90994   0.60921   0.00000  Uiso   1.00
N586   N     0.11764   0.75668   0.44629   0.00000  Uiso   1.00
O587   O     0.11439   0.75491   0.39302   0.00000  Uiso   1.00
O588   O     0.14450   0.72633   0.47156   0.00000  Uiso   1.00
N589   N     0.38363   0.75944   0.44107   0.00000  Uiso   1.00
O590   O     0.35151   0.73191   0.46061   0.00000  Uiso   1.00
O591   O     0.39547   0.75436   0.38993   0.00000  Uiso   1.00
N592   N     0.11971   0.91159   0.55170   0.00000  Uiso   1.00
O593   O     0.13163   0.91004   0.60306   0.00000  Uiso   1.00
O594   O     0.13596   0.94609   0.51971   0.00000  Uiso   1.00
O595   O     0.75000   0.76178   0.54562   0.00000  Uiso   1.00
O596   O     0.75000   0.90488   0.45438   0.00000  Uiso   1.00
O597   O     0.75000   0.90488   0.54562   0.00000  Uiso   1.00
O598   O     0.75000   0.76178   0.45438   0.00000  Uiso   1.00
C599   C     0.74990   0.73935   0.50002   0.00000  Uiso   1.00
C600   C     0.74990   0.92731   0.49999   0.00000  Uiso   1.00
O601   O     0.68392   0.83333   0.54563   0.00000  Uiso   1.00
O602   O     0.81607   0.83333   0.45437   0.00000  Uiso   1.00
O603   O     0.81607   0.83333   0.54563   0.00000  Uiso   1.00
O604   O     0.68392   0.83333   0.45437   0.00000  Uiso   1.00
C605   C     0.66335   0.83347   0.50010   0.00000  Uiso   1.00
C606   C     0.83668   0.83347   0.50002   0.00000  Uiso   1.00
Zn607  Zn    0.75000   0.83333   0.56093   0.00000  Uiso   1.00
Zn608  Zn    0.75000   0.83333   0.43907   0.00000  Uiso   1.00
N609   N     0.75000   0.83333   0.35788   0.00000  Uiso   1.00
N610   N     0.75000   0.83333   0.64212   0.00000  Uiso   1.00
C611   C     0.90645   0.87150   0.52909   0.00000  Uiso   1.00
C612   C     0.59298   0.79336   0.47674   0.00000  Uiso   1.00
C613   C     0.90716   0.79386   0.47609   0.00000  Uiso   1.00
C614   C     0.59378   0.87153   0.52879   0.00000  Uiso   1.00
C615   C     0.88437   0.83335   0.50077   0.00000  Uiso   1.00
C616   C     0.61567   0.83314   0.50102   0.00000  Uiso   1.00
C617   C     0.95327   0.79001   0.48383   0.00000  Uiso   1.00
C618   C     0.54704   0.87169   0.53082   0.00000  Uiso   1.00
C619   C     0.95324   0.87215   0.53011   0.00000  Uiso   1.00
C620   C     0.54652   0.79032   0.48215   0.00000  Uiso   1.00
C621   C     0.97666   0.83088   0.50744   0.00000  Uiso   1.00
C622   C     0.52340   0.83094   0.50694   0.00000  Uiso   1.00
C623   C     0.97651   0.74616   0.46880   0.00000  Uiso   1.00
C624   C     0.52356   0.91137   0.55589   0.00000  Uiso   1.00
C625   C     0.97691   0.91331   0.55196   0.00000  Uiso   1.00
C626   C     0.52303   0.74694   0.46557   0.00000  Uiso   1.00
C627   C     0.74987   0.68841   0.50003   0.00000  Uiso   1.00
C628   C     0.74986   0.97825   0.50000   0.00000  Uiso   1.00
O629   O     0.95490   0.70120   0.46030   0.00000  Uiso   1.00
H630   H     0.93117   0.69818   0.48845   0.00000  Uiso   1.00
O631   O     0.54638   0.94834   0.58387   0.00000  Uiso   1.00
H632   H     0.52775   0.96011   0.61492   0.00000  Uiso   1.00
O633   O     0.95429   0.95606   0.56735   0.00000  Uiso   1.00
H634   H     0.97399   0.98554   0.56260   0.00000  Uiso   1.00
O635   O     0.54631   0.70444   0.45047   0.00000  Uiso   1.00
H636   H     0.52600   0.67896   0.43484   0.00000  Uiso   1.00
N637   N     0.88073   0.90960   0.55589   0.00000  Uiso   1.00
O638   O     0.85816   0.94160   0.52689   0.00000  Uiso   1.00
O639   O     0.87734   0.90994   0.60921   0.00000  Uiso   1.00
N640   N     0.61764   0.75668   0.44629   0.00000  Uiso   1.00
O641   O     0.61439   0.75491   0.39302   0.00000  Uiso   1.00
O642   O     0.64450   0.72633   0.47156   0.00000  Uiso   1.00
N643   N     0.88363   0.75944   0.44107   0.00000  Uiso   1.00
O644   O     0.85151   0.73191   0.46061   0.00000  Uiso   1.00
O645   O     0.89547   0.75436   0.38993   0.00000  Uiso   1.00
N646   N     0.61971   0.91159   0.55170   0.00000  Uiso   1.00
O647   O     0.63163   0.91004   0.60306   0.00000  Uiso   1.00
O648   O     0.63596   0.94609   0.51971   0.00000  Uiso   1.00
O649   O     0.25000   0.09512   0.87895   0.00000  Uiso   1.00
O650   O     0.25000   0.23822   0.78772   0.00000  Uiso   1.00
O651   O     0.25000   0.23822   0.87895   0.00000  Uiso   1.00
O652   O     0.25000   0.09512   0.78772   0.00000  Uiso   1.00
C653   C     0.24990   0.07268   0.83335   0.00000  Uiso   1.00
C654   C     0.24990   0.26065   0.83333   0.00000  Uiso   1.00
O655   O     0.18392   0.16667   0.87896   0.00000  Uiso   1.00
O656   O     0.31607   0.16667   0.78770   0.00000  Uiso   1.00
O657   O     0.31607   0.16667   0.87896   0.00000  Uiso   1.00
O658   O     0.18392   0.16667   0.78770   0.00000  Uiso   1.00
C659   C     0.16335   0.16680   0.83343   0.00000  Uiso   1.00
C660   C     0.33668   0.16680   0.83335   0.00000  Uiso   1.00
Zn661  Zn    0.25000   0.16667   0.89426   0.00000  Uiso   1.00
Zn662  Zn    0.25000   0.16667   0.77241   0.00000  Uiso   1.00
N663   N     0.25000   0.16667   0.69121   0.00000  Uiso   1.00
N664   N     0.25000   0.16667   0.97545   0.00000  Uiso   1.00
C665   C     0.40645   0.20483   0.86242   0.00000  Uiso   1.00
C666   C     0.09298   0.12670   0.81007   0.00000  Uiso   1.00
C667   C     0.40716   0.12720   0.80942   0.00000  Uiso   1.00
C668   C     0.09378   0.20486   0.86213   0.00000  Uiso   1.00
C669   C     0.38437   0.16668   0.83410   0.00000  Uiso   1.00
C670   C     0.11567   0.16648   0.83436   0.00000  Uiso   1.00
C671   C     0.45327   0.12334   0.81717   0.00000  Uiso   1.00
C672   C     0.04704   0.20502   0.86415   0.00000  Uiso   1.00
C673   C     0.45324   0.20549   0.86345   0.00000  Uiso   1.00
C674   C     0.04652   0.12365   0.81548   0.00000  Uiso   1.00
C675   C     0.47666   0.16422   0.84077   0.00000  Uiso   1.00
C676   C     0.02340   0.16428   0.84027   0.00000  Uiso   1.00
C677   C     0.47651   0.07949   0.80214   0.00000  Uiso   1.00
C678   C     0.02356   0.24471   0.88922   0.00000  Uiso   1.00
C679   C     0.47691   0.24664   0.88529   0.00000  Uiso   1.00
C680   C     0.02303   0.08027   0.79890   0.00000  Uiso   1.00
C681   C     0.24987   0.02174   0.83336   0.00000  Uiso   1.00
C682   C     0.24986   0.31159   0.83333   0.00000  Uiso   1.00
O683   O     0.45490   0.03454   0.79363   0.00000  Uiso   1.00
H684   H     0.43117   0.03151   0.82178   0.00000  Uiso   1.00
O685   O     0.04638   0.28168   0.91721   0.00000  Uiso   1.00
H686   H     0.02775   0.29344   0.94825   0.00000  Uiso   1.00
O687   O     0.45429   0.28939   0.90068   0.00000  Uiso   1.00
H688   H     0.47399   0.31887   0.89594   0.00000  Uiso   1.00
O689   O     0.04631   0.03777   0.78380   0.00000  Uiso   1.00
H690   H     0.02600   0.01229   0.76817   0.00000  Uiso   1.00
N691   N     0.38073   0.24293   0.88922   0.00000  Uiso   1.00
O692   O     0.35816   0.27493   0.86023   0.00000  Uiso   1.00
O693   O     0.37734   0.24327   0.94254   0.00000  Uiso   1.00
N694   N     0.11764   0.09002   0.77963   0.00000  Uiso   1.00
O695   O     0.11439   0.08824   0.72636   0.00000  Uiso   1.00
O696   O     0.14450   0.05966   0.80490   0.00000  Uiso   1.00
N697   N     0.38363   0.09277   0.77440   0.00000  Uiso   1.00
O698   O     0.35151   0.06524   0.79395   0.00000  Uiso   1.00
O699   O     0.39547   0.08770   0.72327   0.00000  Uiso   1.00
N700   N     0.11971   0.24492   0.88504   0.00000  Uiso   1.00
O701   O     0.13163   0.24337   0.93639   0.00000  Uiso   1.00
O702   O     0.13596   0.27942   0.85304   0.00000  Uiso   1.00
O703   O     0.75000   0.09512   0.87895   0.00000  Uiso   1.00
O704   O     0.75000   0.23822   0.78772   0.00000  Uiso   1.00
O705   O     0.75000   0.23822   0.87895   0.00000  Uiso   1.00
O706   O     0.75000   0.09512   0.78772   0.00000  Uiso   1.00
C707   C     0.74990   0.07268   0.83335   0.00000  Uiso   1.00
C708   C     0.74990   0.26065   0.83333   0.00000  Uiso   1.00
O709   O     0.68392   0.16667   0.87896   0.00000  Uiso   1.00
O710   O     0.81607   0.16667   0.78770   0.00000  Uiso   1.00
O711   O     0.81607   0.16667   0.87896   0.00000  Uiso   1.00
O712   O     0.68392   0.16667   0.78770   0.00000  Uiso   1.00
C713   C     0.66335   0.16680   0.83343   0.00000  Uiso   1.00
C714   C     0.83668   0.16680   0.83335   0.00000  Uiso   1.00
Zn715  Zn    0.75000   0.16667   0.89426   0.00000  Uiso   1.00
Zn716  Zn    0.75000   0.16667   0.77241   0.00000  Uiso   1.00
N717   N     0.75000   0.16667   0.69121   0.00000  Uiso   1.00
N718   N     0.75000   0.16667   0.97545   0.00000  Uiso   1.00
C719   C     0.90645   0.20483   0.86242   0.00000  Uiso   1.00
C720   C     0.59298   0.12670   0.81007   0.00000  Uiso   1.00
C721   C     0.90716   0.12720   0.80942   0.00000  Uiso   1.00
C722   C     0.59378   0.20486   0.86213   0.00000  Uiso   1.00
C723   C     0.88437   0.16668   0.83410   0.00000  Uiso   1.00
C724   C     0.61567   0.16648   0.83436   0.00000  Uiso   1.00
C725   C     0.95327   0.12334   0.81717   0.00000  Uiso   1.00
C726   C     0.54704   0.20502   0.86415   0.00000  Uiso   1.00
C727   C     0.95324   0.20549   0.86345   0.00000  Uiso   1.00
C728   C     0.54652   0.12365   0.81548   0.00000  Uiso   1.00
C729   C     0.97666   0.16422   0.84077   0.00000  Uiso   1.00
C730   C     0.52340   0.16428   0.84027   0.00000  Uiso   1.00
C731   C     0.97651   0.07949   0.80214   0.00000  Uiso   1.00
C732   C     0.52356   0.24471   0.88922   0.00000  Uiso   1.00
C733   C     0.97691   0.24664   0.88529   0.00000  Uiso   1.00
C734   C     0.52303   0.08027   0.79890   0.00000  Uiso   1.00
C735   C     0.74987   0.02174   0.83336   0.00000  Uiso   1.00
C736   C     0.74986   0.31159   0.83333   0.00000  Uiso   1.00
O737   O     0.95490   0.03454   0.79363   0.00000  Uiso   1.00
H738   H     0.93117   0.03151   0.82178   0.00000  Uiso   1.00
O739   O     0.54638   0.28168   0.91721   0.00000  Uiso   1.00
H740   H     0.52775   0.29344   0.94825   0.00000  Uiso   1.00
O741   O     0.95429   0.28939   0.90068   0.00000  Uiso   1.00
H742   H     0.97399   0.31887   0.89594   0.00000  Uiso   1.00
O743   O     0.54631   0.03777   0.78380   0.00000  Uiso   1.00
H744   H     0.52600   0.01229   0.76817   0.00000  Uiso   1.00
N745   N     0.88073   0.24293   0.88922   0.00000  Uiso   1.00
O746   O     0.85816   0.27493   0.86023   0.00000  Uiso   1.00
O747   O     0.87734   0.24327   0.94254   0.00000  Uiso   1.00
N748   N     0.61764   0.09002   0.77963   0.00000  Uiso   1.00
O749   O     0.61439   0.08824   0.72636   0.00000  Uiso   1.00
O750   O     0.64450   0.05966   0.80490   0.00000  Uiso   1.00
N751   N     0.88363   0.09277   0.77440   0.00000  Uiso   1.00
O752   O     0.85151   0.06524   0.79395   0.00000  Uiso   1.00
O753   O     0.89547   0.08770   0.72327   0.00000  Uiso   1.00
N754   N     0.61971   0.24492   0.88504   0.00000  Uiso   1.00
O755   O     0.63163   0.24337   0.93639   0.00000  Uiso   1.00
O756   O     0.63596   0.27942   0.85304   0.00000  Uiso   1.00
O757   O     0.25000   0.42845   0.87895   0.00000  Uiso   1.00
O758   O     0.25000   0.57155   0.78772   0.00000  Uiso   1.00
O759   O     0.25000   0.57155   0.87895   0.00000  Uiso   1.00
O760   O     0.25000   0.42845   0.78772   0.00000  Uiso   1.00
C761   C     0.24990   0.40602   0.83335   0.00000  Uiso   1.00
C762   C     0.24990   0.59398   0.83333   0.00000  Uiso   1.00
O763   O     0.18392   0.50000   0.87896   0.00000  Uiso   1.00
O764   O     0.31607   0.50000   0.78770   0.00000  Uiso   1.00
O765   O     0.31607   0.50000   0.87896   0.00000  Uiso   1.00
O766   O     0.18392   0.50000   0.78770   0.00000  Uiso   1.00
C767   C     0.16335   0.50014   0.83343   0.00000  Uiso   1.00
C768   C     0.33668   0.50013   0.83335   0.00000  Uiso   1.00
Zn769  Zn    0.25000   0.50000   0.89426   0.00000  Uiso   1.00
Zn770  Zn    0.25000   0.50000   0.77241   0.00000  Uiso   1.00
N771   N     0.25000   0.50000   0.69121   0.00000  Uiso   1.00
N772   N     0.25000   0.50000   0.97545   0.00000  Uiso   1.00
C773   C     0.40645   0.53816   0.86242   0.00000  Uiso   1.00
C774   C     0.09298   0.46003   0.81007   0.00000  Uiso   1.00
C775   C     0.40716   0.46053   0.80942   0.00000  Uiso   1.00
C776   C     0.09378   0.53819   0.86213   0.00000  Uiso   1.00
C777   C     0.38437   0.50001   0.83410   0.00000  Uiso   1.00
C778   C     0.11567   0.49981   0.83436   0.00000  Uiso   1.00
C779   C     0.45327   0.45667   0.81717   0.00000  Uiso   1.00
C780   C     0.04704   0.53835   0.86415   0.00000  Uiso   1.00
C781   C     0.45324   0.53882   0.86345   0.00000  Uiso   1.00
C782   C     0.04652   0.45699   0.81548   0.00000  Uiso   1.00
C783   C     0.47666   0.49755   0.84077   0.00000  Uiso   1.00
C784   C     0.02340   0.49761   0.84027   0.00000  Uiso   1.00
C785   C     0.47651   0.41282   0.80214   0.00000  Uiso   1.00
C786   C     0.02356   0.57804   0.88922   0.00000  Uiso   1.00
C787   C     0.47691   0.57998   0.88529   0.00000  Uiso   1.00
C788   C     0.02303   0.41361   0.79890   0.00000  Uiso   1.00
C789   C     0.24987   0.35507   0.83336   0.00000  Uiso   1.00
C790   C     0.24986   0.64492   0.83333   0.00000  Uiso   1.00
O791   O     0.45490   0.36787   0.79363   0.00000  Uiso   1.00
H792   H     0.43117   0.36485   0.82178   0.00000  Uiso   1.00
O793   O     0.04638   0.61501   0.91721   0.00000  Uiso   1.00
H794   H     0.02775   0.62677   0.94825   0.00000  Uiso   1.00
O795   O     0.45429   0.62273   0.90068   0.00000  Uiso   1.00
H796   H     0.47399   0.65220   0.89594   0.00000  Uiso   1.00
O797   O     0.04631   0.37111   0.78380   0.00000  Uiso   1.00
H798   H     0.02600   0.34562   0.76817   0.00000  Uiso   1.00
N799   N     0.38073   0.57626   0.88922   0.00000  Uiso   1.00
O800   O     0.35816   0.60826   0.86023   0.00000  Uiso   1.00
O801   O     0.37734   0.57660   0.94254   0.00000  Uiso   1.00
N802   N     0.11764   0.42335   0.77963   0.00000  Uiso   1.00
O803   O     0.11439   0.42158   0.72636   0.00000  Uiso   1.00
O804   O     0.14450   0.39300   0.80490   0.00000  Uiso   1.00
N805   N     0.38363   0.42611   0.77440   0.00000  Uiso   1.00
O806   O     0.35151   0.39858   0.79395   0.00000  Uiso   1.00
O807   O     0.39547   0.42103   0.72327   0.00000  Uiso   1.00
N808   N     0.11971   0.57826   0.88504   0.00000  Uiso   1.00
O809   O     0.13163   0.57670   0.93639   0.00000  Uiso   1.00
O810   O     0.13596   0.61276   0.85304   0.00000  Uiso   1.00
O811   O     0.75000   0.42845   0.87895   0.00000  Uiso   1.00
O812   O     0.75000   0.57155   0.78772   0.00000  Uiso   1.00
O813   O     0.75000   0.57155   0.87895   0.00000  Uiso   1.00
O814   O     0.75000   0.42845   0.78772   0.00000  Uiso   1.00
C815   C     0.74990   0.40602   0.83335   0.00000  Uiso   1.00
C816   C     0.74990   0.59398   0.83333   0.00000  Uiso   1.00
O817   O     0.68392   0.50000   0.87896   0.00000  Uiso   1.00
O818   O     0.81607   0.50000   0.78770   0.00000  Uiso   1.00
O819   O     0.81607   0.50000   0.87896   0.00000  Uiso   1.00
O820   O     0.68392   0.50000   0.78770   0.00000  Uiso   1.00
C821   C     0.66335   0.50014   0.83343   0.00000  Uiso   1.00
C822   C     0.83668   0.50013   0.83335   0.00000  Uiso   1.00
Zn823  Zn    0.75000   0.50000   0.89426   0.00000  Uiso   1.00
Zn824  Zn    0.75000   0.50000   0.77241   0.00000  Uiso   1.00
N825   N     0.75000   0.50000   0.69121   0.00000  Uiso   1.00
N826   N     0.75000   0.50000   0.97545   0.00000  Uiso   1.00
C827   C     0.90645   0.53816   0.86242   0.00000  Uiso   1.00
C828   C     0.59298   0.46003   0.81007   0.00000  Uiso   1.00
C829   C     0.90716   0.46053   0.80942   0.00000  Uiso   1.00
C830   C     0.59378   0.53819   0.86213   0.00000  Uiso   1.00
C831   C     0.88437   0.50001   0.83410   0.00000  Uiso   1.00
C832   C     0.61567   0.49981   0.83436   0.00000  Uiso   1.00
C833   C     0.95327   0.45667   0.81717   0.00000  Uiso   1.00
C834   C     0.54704   0.53835   0.86415   0.00000  Uiso   1.00
C835   C     0.95324   0.53882   0.86345   0.00000  Uiso   1.00
C836   C     0.54652   0.45699   0.81548   0.00000  Uiso   1.00
C837   C     0.97666   0.49755   0.84077   0.00000  Uiso   1.00
C838   C     0.52340   0.49761   0.84027   0.00000  Uiso   1.00
C839   C     0.97651   0.41282   0.80214   0.00000  Uiso   1.00
C840   C     0.52356   0.57804   0.88922   0.00000  Uiso   1.00
C841   C     0.97691   0.57998   0.88529   0.00000  Uiso   1.00
C842   C     0.52303   0.41361   0.79890   0.00000  Uiso   1.00
C843   C     0.74987   0.35507   0.83336   0.00000  Uiso   1.00
C844   C     0.74986   0.64492   0.83333   0.00000  Uiso   1.00
O845   O     0.95490   0.36787   0.79363   0.00000  Uiso   1.00
H846   H     0.93117   0.36485   0.82178   0.00000  Uiso   1.00
O847   O     0.54638   0.61501   0.91721   0.00000  Uiso   1.00
H848   H     0.52775   0.62677   0.94825   0.00000  Uiso   1.00
O849   O     0.95429   0.62273   0.90068   0.00000  Uiso   1.00
H850   H     0.97399   0.65220   0.89594   0.00000  Uiso   1.00
O851   O     0.54631   0.37111   0.78380   0.00000  Uiso   1.00
H852   H     0.52600   0.34562   0.76817   0.00000  Uiso   1.00
N853   N     0.88073   0.57626   0.88922   0.00000  Uiso   1.00
O854   O     0.85816   0.60826   0.86023   0.00000  Uiso   1.00
O855   O     0.87734   0.57660   0.94254   0.00000  Uiso   1.00
N856   N     0.61764   0.42335   0.77963   0.00000  Uiso   1.00
O857   O     0.61439   0.42158   0.72636   0.00000  Uiso   1.00
O858   O     0.64450   0.39300   0.80490   0.00000  Uiso   1.00
N859   N     0.88363   0.42611   0.77440   0.00000  Uiso   1.00
O860   O     0.85151   0.39858   0.79395   0.00000  Uiso   1.00
O861   O     0.89547   0.42103   0.72327   0.00000  Uiso   1.00
N862   N     0.61971   0.57826   0.88504   0.00000  Uiso   1.00
O863   O     0.63163   0.57670   0.93639   0.00000  Uiso   1.00
O864   O     0.63596   0.61276   0.85304   0.00000  Uiso   1.00
O865   O     0.25000   0.76178   0.87895   0.00000  Uiso   1.00
O866   O     0.25000   0.90488   0.78772   0.00000  Uiso   1.00
O867   O     0.25000   0.90488   0.87895   0.00000  Uiso   1.00
O868   O     0.25000   0.76178   0.78772   0.00000  Uiso   1.00
C869   C     0.24990   0.73935   0.83335   0.00000  Uiso   1.00
C870   C     0.24990   0.92731   0.83333   0.00000  Uiso   1.00
O871   O     0.18392   0.83333   0.87896   0.00000  Uiso   1.00
O872   O     0.31607   0.83333   0.78770   0.00000  Uiso   1.00
O873   O     0.31607   0.83333   0.87896   0.00000  Uiso   1.00
O874   O     0.18392   0.83333   0.78770   0.00000  Uiso   1.00
C875   C     0.16335   0.83347   0.83343   0.00000  Uiso   1.00
C876   C     0.33668   0.83347   0.83335   0.00000  Uiso   1.00
Zn877  Zn    0.25000   0.83333   0.89426   0.00000  Uiso   1.00
Zn878  Zn    0.25000   0.83333   0.77241   0.00000  Uiso   1.00
N879   N     0.25000   0.83333   0.69121   0.00000  Uiso   1.00
N880   N     0.25000   0.83333   0.97545   0.00000  Uiso   1.00
C881   C     0.40645   0.87150   0.86242   0.00000  Uiso   1.00
C882   C     0.09298   0.79336   0.81007   0.00000  Uiso   1.00
C883   C     0.40716   0.79386   0.80942   0.00000  Uiso   1.00
C884   C     0.09378   0.87153   0.86213   0.00000  Uiso   1.00
C885   C     0.38437   0.83335   0.83410   0.00000  Uiso   1.00
C886   C     0.11567   0.83314   0.83436   0.00000  Uiso   1.00
C887   C     0.45327   0.79001   0.81717   0.00000  Uiso   1.00
C888   C     0.04704   0.87169   0.86415   0.00000  Uiso   1.00
C889   C     0.45324   0.87215   0.86345   0.00000  Uiso   1.00
C890   C     0.04652   0.79032   0.81548   0.00000  Uiso   1.00
C891   C     0.47666   0.83088   0.84077   0.00000  Uiso   1.00
C892   C     0.02340   0.83094   0.84027   0.00000  Uiso   1.00
C893   C     0.47651   0.74616   0.80214   0.00000  Uiso   1.00
C894   C     0.02356   0.91137   0.88922   0.00000  Uiso   1.00
C895   C     0.47691   0.91331   0.88529   0.00000  Uiso   1.00
C896   C     0.02303   0.74694   0.79890   0.00000  Uiso   1.00
C897   C     0.24987   0.68841   0.83336   0.00000  Uiso   1.00
C898   C     0.24986   0.97825   0.83333   0.00000  Uiso   1.00
O899   O     0.45490   0.70120   0.79363   0.00000  Uiso   1.00
H900   H     0.43117   0.69818   0.82178   0.00000  Uiso   1.00
O901   O     0.04638   0.94834   0.91721   0.00000  Uiso   1.00
H902   H     0.02775   0.96011   0.94825   0.00000  Uiso   1.00
O903   O     0.45429   0.95606   0.90068   0.00000  Uiso   1.00
H904   H     0.47399   0.98554   0.89594   0.00000  Uiso   1.00
O905   O     0.04631   0.70444   0.78380   0.00000  Uiso   1.00
H906   H     0.02600   0.67896   0.76817   0.00000  Uiso   1.00
N907   N     0.38073   0.90960   0.88922   0.00000  Uiso   1.00
O908   O     0.35816   0.94160   0.86023   0.00000  Uiso   1.00
O909   O     0.37734   0.90994   0.94254   0.00000  Uiso   1.00
N910   N     0.11764   0.75668   0.77963   0.00000  Uiso   1.00
O911   O     0.11439   0.75491   0.72636   0.00000  Uiso   1.00
O912   O     0.14450   0.72633   0.80490   0.00000  Uiso   1.00
N913   N     0.38363   0.75944   0.77440   0.00000  Uiso   1.00
O914   O     0.35151   0.73191   0.79395   0.00000  Uiso   1.00
O915   O     0.39547   0.75436   0.72327   0.00000  Uiso   1.00
N916   N     0.11971   0.91159   0.88504   0.00000  Uiso   1.00
O917   O     0.13163   0.91004   0.93639   0.00000  Uiso   1.00
O918   O     0.13596   0.94609   0.85304   0.00000  Uiso   1.00
O919   O     0.75000   0.76178   0.87895   0.00000  Uiso   1.00
O920   O     0.75000   0.90488   0.78772   0.00000  Uiso   1.00
O921   O     0.75000   0.90488   0.87895   0.00000  Uiso   1.00
O922   O     0.75000   0.76178   0.78772   0.00000  Uiso   1.00
C923   C     0.74990   0.73935   0.83335   0.00000  Uiso   1.00
C924   C     0.74990   0.92731   0.83333   0.00000  Uiso   1.00
O925   O     0.68392   0.83333   0.87896   0.00000  Uiso   1.00
O926   O     0.81607   0.83333   0.78770   0.00000  Uiso   1.00
O927   O     0.81607   0.83333   0.87896   0.00000  Uiso   1.00
O928   O     0.68392   0.83333   0.78770   0.00000  Uiso   1.00
C929   C     0.66335   0.83347   0.83343   0.00000  Uiso   1.00
C930   C     0.83668   0.83347   0.83335   0.00000  Uiso   1.00
Zn931  Zn    0.75000   0.83333   0.89426   0.00000  Uiso   1.00
Zn932  Zn    0.75000   0.83333   0.77241   0.00000  Uiso   1.00
N933   N     0.75000   0.83333   0.69121   0.00000  Uiso   1.00
N934   N     0.75000   0.83333   0.97545   0.00000  Uiso   1.00
C935   C     0.90645   0.87150   0.86242   0.00000  Uiso   1.00
C936   C     0.59298   0.79336   0.81007   0.00000  Uiso   1.00
C937   C     0.90716   0.79386   0.80942   0.00000  Uiso   1.00
C938   C     0.59378   0.87153   0.86213   0.00000  Uiso   1.00
C939   C     0.88437   0.83335   0.83410   0.00000  Uiso   1.00
C940   C     0.61567   0.83314   0.83436   0.00000  Uiso   1.00
C941   C     0.95327   0.79001   0.81717   0.00000  Uiso   1.00
C942   C     0.54704   0.87169   0.86415   0.00000  Uiso   1.00
C943   C     0.95324   0.87215   0.86345   0.00000  Uiso   1.00
C944   C     0.54652   0.79032   0.81548   0.00000  Uiso   1.00
C945   C     0.97666   0.83088   0.84077   0.00000  Uiso   1.00
C946   C     0.52340   0.83094   0.84027   0.00000  Uiso   1.00
C947   C     0.97651   0.74616   0.80214   0.00000  Uiso   1.00
C948   C     0.52356   0.91137   0.88922   0.00000  Uiso   1.00
C949   C     0.97691   0.91331   0.88529   0.00000  Uiso   1.00
C950   C     0.52303   0.74694   0.79890   0.00000  Uiso   1.00
C951   C     0.74987   0.68841   0.83336   0.00000  Uiso   1.00
C952   C     0.74986   0.97825   0.83333   0.00000  Uiso   1.00
O953   O     0.95490   0.70120   0.79363   0.00000  Uiso   1.00
H954   H     0.93117   0.69818   0.82178   0.00000  Uiso   1.00
O955   O     0.54638   0.94834   0.91721   0.00000  Uiso   1.00
H956   H     0.52775   0.96011   0.94825   0.00000  Uiso   1.00
O957   O     0.95429   0.95606   0.90068   0.00000  Uiso   1.00
H958   H     0.97399   0.98554   0.89594   0.00000  Uiso   1.00
O959   O     0.54631   0.70444   0.78380   0.00000  Uiso   1.00
H960   H     0.52600   0.67896   0.76817   0.00000  Uiso   1.00
N961   N     0.88073   0.90960   0.88922   0.00000  Uiso   1.00
O962   O     0.85816   0.94160   0.86023   0.00000  Uiso   1.00
O963   O     0.87734   0.90994   0.94254   0.00000  Uiso   1.00
N964   N     0.61764   0.75668   0.77963   0.00000  Uiso   1.00
O965   O     0.61439   0.75491   0.72636   0.00000  Uiso   1.00
O966   O     0.64450   0.72633   0.80490   0.00000  Uiso   1.00
N967   N     0.88363   0.75944   0.77440   0.00000  Uiso   1.00
O968   O     0.85151   0.73191   0.79395   0.00000  Uiso   1.00
O969   O     0.89547   0.75436   0.72327   0.00000  Uiso   1.00
N970   N     0.61971   0.91159   0.88504   0.00000  Uiso   1.00
O971   O     0.63163   0.91004   0.93639   0.00000  Uiso   1.00
O972   O     0.63596   0.94609   0.85304   0.00000  Uiso   1.00
loop_
_geom_bond_atom_site_label_1
_geom_bond_atom_site_label_2
_geom_bond_distance
_geom_bond_site_symmetry_2
_ccdc_geom_bond_type
O1     C5      1.262   .     A
O1     Zn13    1.950   .     S
O2     C6      1.262   .     A
O2     Zn14    1.950   .     S
O3     Zn13    1.950   .     S
O3     C6      1.262   .     A
O4     Zn14    1.950   .     S
O4     C5      1.262   .     A
C5     C33     1.363   .     S
C6     C34     1.363   .     S
O7     C11     1.269   .     A
O7     Zn13    2.019   .     S
O8     C12     1.272   .     A
O8     Zn14    2.019   .     S
O9     C12     1.270   .     A
O9     Zn13    2.018   .     S
O10    C11     1.272   .     A
O10    Zn14    2.018   .     S
C11    C22     1.432   .     S
C12    C21     1.432   .     S
Zn13   N16     1.976   .     S
Zn14   N15     1.976   .     S
N15    N664    1.195   1_554 S
N16    N339    1.195   .     S
C17    N43     1.437   .     S
C17    C25     1.405   .     A
C17    C21     1.398   .     A
C18    C26     1.403   .     A
C18    N46     1.436   .     S
C18    C22     1.394   .     A
C19    C23     1.401   .     A
C19    C21     1.396   .     A
C19    N49     1.439   .     S
C20    N52     1.436   .     S
C20    C24     1.404   .     A
C20    C22     1.395   .     A
C23    C27     1.420   .     A
C23    C29     1.414   .     A
C24    C30     1.414   .     A
C24    C28     1.423   .     A
C25    C31     1.413   .     A
C25    C27     1.422   .     A
C26    C32     1.415   .     A
C26    C28     1.425   .     A
C27    C82     1.403   .     S
C28    C81     1.403   1_455 S
C29    O35     1.380   .     S
C29    C86     1.399   .     S
C30    O37     1.382   .     S
C30    C85     1.405   1_455 S
C31    O39     1.383   .     S
C31    C84     1.405   .     S
C32    O41     1.386   .     S
C32    C83     1.399   1_455 S
C33    C250    1.163   1_545 S
C34    C141    1.163   .     S
O35    H36     0.991   .     S
O37    H38     0.991   .     S
O39    H40     0.991   .     S
O41    H42     0.990   .     S
N43    O44     1.301   .     A
N43    O45     1.302   .     A
N46    O47     1.301   .     A
N46    O48     1.301   .     A
N49    O50     1.301   .     A
N49    O51     1.301   .     A
N52    O54     1.301   .     A
N52    O53     1.301   .     A
O55    C59     1.262   .     A
O55    Zn67    1.950   .     S
O56    C60     1.262   .     A
O56    Zn68    1.950   .     S
O57    Zn67    1.950   .     S
O57    C60     1.262   .     A
O58    Zn68    1.950   .     S
O58    C59     1.262   .     A
C59    C87     1.363   .     S
C60    C88     1.363   .     S
O61    C65     1.269   .     A
O61    Zn67    2.019   .     S
O62    C66     1.272   .     A
O62    Zn68    2.019   .     S
O63    C66     1.270   .     A
O63    Zn67    2.018   .     S
O64    C65     1.272   .     A
O64    Zn68    2.018   .     S
C65    C76     1.432   .     S
C66    C75     1.432   .     S
Zn67   N70     1.976   .     S
Zn68   N69     1.976   .     S
N69    N718    1.195   1_554 S
N70    N393    1.195   .     S
C71    N97     1.437   .     S
C71    C79     1.405   .     A
C71    C75     1.398   .     A
C72    C80     1.403   .     A
C72    N100    1.436   .     S
C72    C76     1.394   .     A
C73    C77     1.401   .     A
C73    C75     1.396   .     A
C73    N103    1.439   .     S
C74    N106    1.436   .     S
C74    C78     1.404   .     A
C74    C76     1.395   .     A
C77    C81     1.420   .     A
C77    C83     1.414   .     A
C78    C84     1.414   .     A
C78    C82     1.423   .     A
C79    C85     1.413   .     A
C79    C81     1.422   .     A
C80    C86     1.415   .     A
C80    C82     1.425   .     A
C81    C28     1.403   1_655 S
C83    O89     1.380   .     S
C83    C32     1.399   1_655 S
C84    O91     1.382   .     S
C85    O93     1.383   .     S
C85    C30     1.405   1_655 S
C86    O95     1.386   .     S
C87    C304    1.163   1_545 S
C88    C195    1.163   .     S
O89    H90     0.991   .     S
O91    H92     0.991   .     S
O93    H94     0.991   .     S
O95    H96     0.990   .     S
N97    O98     1.301   .     A
N97    O99     1.302   .     A
N100   O101    1.301   .     A
N100   O102    1.301   .     A
N103   O104    1.301   .     A
N103   O105    1.301   .     A
N106   O108    1.301   .     A
N106   O107    1.301   .     A
O109   C113    1.262   .     A
O109   Zn121   1.950   .     S
O110   C114    1.262   .     A
O110   Zn122   1.950   .     S
O111   Zn121   1.950   .     S
O111   C114    1.262   .     A
O112   Zn122   1.950   .     S
O112   C113    1.262   .     A
C113   C141    1.363   .     S
C114   C142    1.363   .     S
O115   C119    1.269   .     A
O115   Zn121   2.019   .     S
O116   C120    1.272   .     A
O116   Zn122   2.019   .     S
O117   C120    1.270   .     A
O117   Zn121   2.018   .     S
O118   C119    1.272   .     A
O118   Zn122   2.018   .     S
C119   C130    1.432   .     S
C120   C129    1.432   .     S
Zn121  N124    1.976   .     S
Zn122  N123    1.976   .     S
N123   N772    1.195   1_554 S
N124   N447    1.195   .     S
C125   N151    1.437   .     S
C125   C133    1.405   .     A
C125   C129    1.398   .     A
C126   C134    1.403   .     A
C126   N154    1.436   .     S
C126   C130    1.394   .     A
C127   C131    1.401   .     A
C127   C129    1.396   .     A
C127   N157    1.439   .     S
C128   N160    1.436   .     S
C128   C132    1.404   .     A
C128   C130    1.395   .     A
C131   C135    1.420   .     A
C131   C137    1.414   .     A
C132   C138    1.414   .     A
C132   C136    1.423   .     A
C133   C139    1.413   .     A
C133   C135    1.422   .     A
C134   C140    1.415   .     A
C134   C136    1.425   .     A
C135   C190    1.403   .     S
C136   C189    1.403   1_455 S
C137   O143    1.380   .     S
C137   C194    1.399   .     S
C138   O145    1.382   .     S
C138   C193    1.405   1_455 S
C139   O147    1.383   .     S
C139   C192    1.405   .     S
C140   O149    1.386   .     S
C140   C191    1.399   1_455 S
C142   C249    1.163   .     S
O143   H144    0.991   .     S
O145   H146    0.991   .     S
O147   H148    0.991   .     S
O149   H150    0.990   .     S
N151   O152    1.301   .     A
N151   O153    1.302   .     A
N154   O155    1.301   .     A
N154   O156    1.301   .     A
N157   O158    1.301   .     A
N157   O159    1.301   .     A
N160   O162    1.301   .     A
N160   O161    1.301   .     A
O163   C167    1.262   .     A
O163   Zn175   1.950   .     S
O164   C168    1.262   .     A
O164   Zn176   1.950   .     S
O165   Zn175   1.950   .     S
O165   C168    1.262   .     A
O166   Zn176   1.950   .     S
O166   C167    1.262   .     A
C167   C195    1.363   .     S
C168   C196    1.363   .     S
O169   C173    1.269   .     A
O169   Zn175   2.019   .     S
O170   C174    1.272   .     A
O170   Zn176   2.019   .     S
O171   C174    1.270   .     A
O171   Zn175   2.018   .     S
O172   C173    1.272   .     A
O172   Zn176   2.018   .     S
C173   C184    1.432   .     S
C174   C183    1.432   .     S
Zn175  N178    1.976   .     S
Zn176  N177    1.976   .     S
N177   N826    1.195   1_554 S
N178   N501    1.195   .     S
C179   N205    1.437   .     S
C179   C187    1.405   .     A
C179   C183    1.398   .     A
C180   C188    1.403   .     A
C180   N208    1.436   .     S
C180   C184    1.394   .     A
C181   C185    1.401   .     A
C181   C183    1.396   .     A
C181   N211    1.439   .     S
C182   N214    1.436   .     S
C182   C186    1.404   .     A
C182   C184    1.395   .     A
C185   C189    1.420   .     A
C185   C191    1.414   .     A
C186   C192    1.414   .     A
C186   C190    1.423   .     A
C187   C193    1.413   .     A
C187   C189    1.422   .     A
C188   C194    1.415   .     A
C188   C190    1.425   .     A
C189   C136    1.403   1_655 S
C191   O197    1.380   .     S
C191   C140    1.399   1_655 S
C192   O199    1.382   .     S
C193   O201    1.383   .     S
C193   C138    1.405   1_655 S
C194   O203    1.386   .     S
C196   C303    1.163   .     S
O197   H198    0.991   .     S
O199   H200    0.991   .     S
O201   H202    0.991   .     S
O203   H204    0.990   .     S
N205   O206    1.301   .     A
N205   O207    1.302   .     A
N208   O209    1.301   .     A
N208   O210    1.301   .     A
N211   O212    1.301   .     A
N211   O213    1.301   .     A
N214   O216    1.301   .     A
N214   O215    1.301   .     A
O217   C221    1.262   .     A
O217   Zn229   1.950   .     S
O218   C222    1.262   .     A
O218   Zn230   1.950   .     S
O219   Zn229   1.950   .     S
O219   C222    1.262   .     A
O220   Zn230   1.950   .     S
O220   C221    1.262   .     A
C221   C249    1.363   .     S
C222   C250    1.363   .     S
O223   C227    1.269   .     A
O223   Zn229   2.019   .     S
O224   C228    1.272   .     A
O224   Zn230   2.019   .     S
O225   C228    1.270   .     A
O225   Zn229   2.018   .     S
O226   C227    1.272   .     A
O226   Zn230   2.018   .     S
C227   C238    1.432   .     S
C228   C237    1.432   .     S
Zn229  N232    1.976   .     S
Zn230  N231    1.976   .     S
N231   N880    1.195   1_554 S
N232   N555    1.195   .     S
C233   N259    1.437   .     S
C233   C241    1.405   .     A
C233   C237    1.398   .     A
C234   C242    1.403   .     A
C234   N262    1.436   .     S
C234   C238    1.394   .     A
C235   C239    1.401   .     A
C235   C237    1.396   .     A
C235   N265    1.439   .     S
C236   N268    1.436   .     S
C236   C240    1.404   .     A
C236   C238    1.395   .     A
C239   C243    1.420   .     A
C239   C245    1.414   .     A
C240   C246    1.414   .     A
C240   C244    1.423   .     A
C241   C247    1.413   .     A
C241   C243    1.422   .     A
C242   C248    1.415   .     A
C242   C244    1.425   .     A
C243   C298    1.403   .     S
C244   C297    1.403   1_455 S
C245   O251    1.380   .     S
C245   C302    1.399   .     S
C246   O253    1.382   .     S
C246   C301    1.405   1_455 S
C247   O255    1.383   .     S
C247   C300    1.405   .     S
C248   O257    1.386   .     S
C248   C299    1.399   1_455 S
C250   C33     1.163   1_565 S
O251   H252    0.991   .     S
O253   H254    0.991   .     S
O255   H256    0.991   .     S
O257   H258    0.990   .     S
N259   O260    1.301   .     A
N259   O261    1.302   .     A
N262   O263    1.301   .     A
N262   O264    1.301   .     A
N265   O266    1.301   .     A
N265   O267    1.301   .     A
N268   O270    1.301   .     A
N268   O269    1.301   .     A
O271   C275    1.262   .     A
O271   Zn283   1.950   .     S
O272   C276    1.262   .     A
O272   Zn284   1.950   .     S
O273   Zn283   1.950   .     S
O273   C276    1.262   .     A
O274   Zn284   1.950   .     S
O274   C275    1.262   .     A
C275   C303    1.363   .     S
C276   C304    1.363   .     S
O277   C281    1.269   .     A
O277   Zn283   2.019   .     S
O278   C282    1.272   .     A
O278   Zn284   2.019   .     S
O279   C282    1.270   .     A
O279   Zn283   2.018   .     S
O280   C281    1.272   .     A
O280   Zn284   2.018   .     S
C281   C292    1.432   .     S
C282   C291    1.432   .     S
Zn283  N286    1.976   .     S
Zn284  N285    1.976   .     S
N285   N934    1.195   1_554 S
N286   N609    1.195   .     S
C287   N313    1.437   .     S
C287   C295    1.405   .     A
C287   C291    1.398   .     A
C288   C296    1.403   .     A
C288   N316    1.436   .     S
C288   C292    1.394   .     A
C289   C293    1.401   .     A
C289   C291    1.396   .     A
C289   N319    1.439   .     S
C290   N322    1.436   .     S
C290   C294    1.404   .     A
C290   C292    1.395   .     A
C293   C297    1.420   .     A
C293   C299    1.414   .     A
C294   C300    1.414   .     A
C294   C298    1.423   .     A
C295   C301    1.413   .     A
C295   C297    1.422   .     A
C296   C302    1.415   .     A
C296   C298    1.425   .     A
C297   C244    1.403   1_655 S
C299   O305    1.380   .     S
C299   C248    1.399   1_655 S
C300   O307    1.382   .     S
C301   O309    1.383   .     S
C301   C246    1.405   1_655 S
C302   O311    1.386   .     S
C304   C87     1.163   1_565 S
O305   H306    0.991   .     S
O307   H308    0.991   .     S
O309   H310    0.991   .     S
O311   H312    0.990   .     S
N313   O314    1.301   .     A
N313   O315    1.302   .     A
N316   O317    1.301   .     A
N316   O318    1.301   .     A
N319   O320    1.301   .     A
N319   O321    1.301   .     A
N322   O324    1.301   .     A
N322   O323    1.301   .     A
O325   C329    1.262   .     A
O325   Zn337   1.950   .     S
O326   C330    1.262   .     A
O326   Zn338   1.950   .     S
O327   Zn337   1.950   .     S
O327   C330    1.262   .     A
O328   Zn338   1.950   .     S
O328   C329    1.262   .     A
C329   C357    1.363   .     S
C330   C358    1.363   .     S
O331   C335    1.269   .     A
O331   Zn337   2.019   .     S
O332   C336    1.272   .     A
O332   Zn338   2.019   .     S
O333   C336    1.270   .     A
O333   Zn337   2.018   .     S
O334   C335    1.272   .     A
O334   Zn338   2.018   .     S
C335   C346    1.432   .     S
C336   C345    1.432   .     S
Zn337  N340    1.976   .     S
Zn338  N339    1.976   .     S
N340   N663    1.195   .     S
C341   N367    1.437   .     S
C341   C349    1.405   .     A
C341   C345    1.398   .     A
C342   C350    1.403   .     A
C342   N370    1.436   .     S
C342   C346    1.394   .     A
C343   C347    1.401   .     A
C343   C345    1.396   .     A
C343   N373    1.439   .     S
C344   N376    1.436   .     S
C344   C348    1.404   .     A
C344   C346    1.395   .     A
C347   C351    1.420   .     A
C347   C353    1.414   .     A
C348   C354    1.414   .     A
C348   C352    1.423   .     A
C349   C355    1.413   .     A
C349   C351    1.422   .     A
C350   C356    1.415   .     A
C350   C352    1.425   .     A
C351   C406    1.403   .     S
C352   C405    1.403   1_455 S
C353   O359    1.380   .     S
C353   C410    1.399   .     S
C354   O361    1.382   .     S
C354   C409    1.405   1_455 S
C355   O363    1.383   .     S
C355   C408    1.405   .     S
C356   O365    1.386   .     S
C356   C407    1.399   1_455 S
C357   C574    1.163   1_545 S
C358   C465    1.163   .     S
O359   H360    0.991   .     S
O361   H362    0.991   .     S
O363   H364    0.991   .     S
O365   H366    0.990   .     S
N367   O368    1.301   .     A
N367   O369    1.302   .     A
N370   O371    1.301   .     A
N370   O372    1.301   .     A
N373   O374    1.301   .     A
N373   O375    1.301   .     A
N376   O378    1.301   .     A
N376   O377    1.301   .     A
O379   C383    1.262   .     A
O379   Zn391   1.950   .     S
O380   C384    1.262   .     A
O380   Zn392   1.950   .     S
O381   Zn391   1.950   .     S
O381   C384    1.262   .     A
O382   Zn392   1.950   .     S
O382   C383    1.262   .     A
C383   C411    1.363   .     S
C384   C412    1.363   .     S
O385   C389    1.269   .     A
O385   Zn391   2.019   .     S
O386   C390    1.272   .     A
O386   Zn392   2.019   .     S
O387   C390    1.270   .     A
O387   Zn391   2.018   .     S
O388   C389    1.272   .     A
O388   Zn392   2.018   .     S
C389   C400    1.432   .     S
C390   C399    1.432   .     S
Zn391  N394    1.976   .     S
Zn392  N393    1.976   .     S
N394   N717    1.195   .     S
C395   N421    1.437   .     S
C395   C403    1.405   .     A
C395   C399    1.398   .     A
C396   C404    1.403   .     A
C396   N424    1.436   .     S
C396   C400    1.394   .     A
C397   C401    1.401   .     A
C397   C399    1.396   .     A
C397   N427    1.439   .     S
C398   N430    1.436   .     S
C398   C402    1.404   .     A
C398   C400    1.395   .     A
C401   C405    1.420   .     A
C401   C407    1.414   .     A
C402   C408    1.414   .     A
C402   C406    1.423   .     A
C403   C409    1.413   .     A
C403   C405    1.422   .     A
C404   C410    1.415   .     A
C404   C406    1.425   .     A
C405   C352    1.403   1_655 S
C407   O413    1.380   .     S
C407   C356    1.399   1_655 S
C408   O415    1.382   .     S
C409   O417    1.383   .     S
C409   C354    1.405   1_655 S
C410   O419    1.386   .     S
C411   C628    1.163   1_545 S
C412   C519    1.163   .     S
O413   H414    0.991   .     S
O415   H416    0.991   .     S
O417   H418    0.991   .     S
O419   H420    0.990   .     S
N421   O422    1.301   .     A
N421   O423    1.302   .     A
N424   O425    1.301   .     A
N424   O426    1.301   .     A
N427   O428    1.301   .     A
N427   O429    1.301   .     A
N430   O432    1.301   .     A
N430   O431    1.301   .     A
O433   C437    1.262   .     A
O433   Zn445   1.950   .     S
O434   C438    1.262   .     A
O434   Zn446   1.950   .     S
O435   Zn445   1.950   .     S
O435   C438    1.262   .     A
O436   Zn446   1.950   .     S
O436   C437    1.262   .     A
C437   C465    1.363   .     S
C438   C466    1.363   .     S
O439   C443    1.269   .     A
O439   Zn445   2.019   .     S
O440   C444    1.272   .     A
O440   Zn446   2.019   .     S
O441   C444    1.270   .     A
O441   Zn445   2.018   .     S
O442   C443    1.272   .     A
O442   Zn446   2.018   .     S
C443   C454    1.432   .     S
C444   C453    1.432   .     S
Zn445  N448    1.976   .     S
Zn446  N447    1.976   .     S
N448   N771    1.195   .     S
C449   N475    1.437   .     S
C449   C457    1.405   .     A
C449   C453    1.398   .     A
C450   C458    1.403   .     A
C450   N478    1.436   .     S
C450   C454    1.394   .     A
C451   C455    1.401   .     A
C451   C453    1.396   .     A
C451   N481    1.439   .     S
C452   N484    1.436   .     S
C452   C456    1.404   .     A
C452   C454    1.395   .     A
C455   C459    1.420   .     A
C455   C461    1.414   .     A
C456   C462    1.414   .     A
C456   C460    1.423   .     A
C457   C463    1.413   .     A
C457   C459    1.422   .     A
C458   C464    1.415   .     A
C458   C460    1.425   .     A
C459   C514    1.403   .     S
C460   C513    1.403   1_455 S
C461   O467    1.380   .     S
C461   C518    1.399   .     S
C462   O469    1.382   .     S
C462   C517    1.405   1_455 S
C463   O471    1.383   .     S
C463   C516    1.405   .     S
C464   O473    1.386   .     S
C464   C515    1.399   1_455 S
C466   C573    1.163   .     S
O467   H468    0.991   .     S
O469   H470    0.991   .     S
O471   H472    0.991   .     S
O473   H474    0.990   .     S
N475   O476    1.301   .     A
N475   O477    1.302   .     A
N478   O479    1.301   .     A
N478   O480    1.301   .     A
N481   O482    1.301   .     A
N481   O483    1.301   .     A
N484   O486    1.301   .     A
N484   O485    1.301   .     A
O487   C491    1.262   .     A
O487   Zn499   1.950   .     S
O488   C492    1.262   .     A
O488   Zn500   1.950   .     S
O489   Zn499   1.950   .     S
O489   C492    1.262   .     A
O490   Zn500   1.950   .     S
O490   C491    1.262   .     A
C491   C519    1.363   .     S
C492   C520    1.363   .     S
O493   C497    1.269   .     A
O493   Zn499   2.019   .     S
O494   C498    1.272   .     A
O494   Zn500   2.019   .     S
O495   C498    1.270   .     A
O495   Zn499   2.018   .     S
O496   C497    1.272   .     A
O496   Zn500   2.018   .     S
C497   C508    1.432   .     S
C498   C507    1.432   .     S
Zn499  N502    1.976   .     S
Zn500  N501    1.976   .     S
N502   N825    1.195   .     S
C503   N529    1.437   .     S
C503   C511    1.405   .     A
C503   C507    1.398   .     A
C504   C512    1.403   .     A
C504   N532    1.436   .     S
C504   C508    1.394   .     A
C505   C509    1.401   .     A
C505   C507    1.396   .     A
C505   N535    1.439   .     S
C506   N538    1.436   .     S
C506   C510    1.404   .     A
C506   C508    1.395   .     A
C509   C513    1.420   .     A
C509   C515    1.414   .     A
C510   C516    1.414   .     A
C510   C514    1.423   .     A
C511   C517    1.413   .     A
C511   C513    1.422   .     A
C512   C518    1.415   .     A
C512   C514    1.425   .     A
C513   C460    1.403   1_655 S
C515   O521    1.380   .     S
C515   C464    1.399   1_655 S
C516   O523    1.382   .     S
C517   O525    1.383   .     S
C517   C462    1.405   1_655 S
C518   O527    1.386   .     S
C520   C627    1.163   .     S
O521   H522    0.991   .     S
O523   H524    0.991   .     S
O525   H526    0.991   .     S
O527   H528    0.990   .     S
N529   O530    1.301   .     A
N529   O531    1.302   .     A
N532   O533    1.301   .     A
N532   O534    1.301   .     A
N535   O536    1.301   .     A
N535   O537    1.301   .     A
N538   O540    1.301   .     A
N538   O539    1.301   .     A
O541   C545    1.262   .     A
O541   Zn553   1.950   .     S
O542   C546    1.262   .     A
O542   Zn554   1.950   .     S
O543   Zn553   1.950   .     S
O543   C546    1.262   .     A
O544   Zn554   1.950   .     S
O544   C545    1.262   .     A
C545   C573    1.363   .     S
C546   C574    1.363   .     S
O547   C551    1.269   .     A
O547   Zn553   2.019   .     S
O548   C552    1.272   .     A
O548   Zn554   2.019   .     S
O549   C552    1.270   .     A
O549   Zn553   2.018   .     S
O550   C551    1.272   .     A
O550   Zn554   2.018   .     S
C551   C562    1.432   .     S
C552   C561    1.432   .     S
Zn553  N556    1.976   .     S
Zn554  N555    1.976   .     S
N556   N879    1.195   .     S
C557   N583    1.437   .     S
C557   C565    1.405   .     A
C557   C561    1.398   .     A
C558   C566    1.403   .     A
C558   N586    1.436   .     S
C558   C562    1.394   .     A
C559   C563    1.401   .     A
C559   C561    1.396   .     A
C559   N589    1.439   .     S
C560   N592    1.436   .     S
C560   C564    1.404   .     A
C560   C562    1.395   .     A
C563   C567    1.420   .     A
C563   C569    1.414   .     A
C564   C570    1.414   .     A
C564   C568    1.423   .     A
C565   C571    1.413   .     A
C565   C567    1.422   .     A
C566   C572    1.415   .     A
C566   C568    1.425   .     A
C567   C622    1.403   .     S
C568   C621    1.403   1_455 S
C569   O575    1.380   .     S
C569   C626    1.399   .     S
C570   O577    1.382   .     S
C570   C625    1.405   1_455 S
C571   O579    1.383   .     S
C571   C624    1.405   .     S
C572   O581    1.386   .     S
C572   C623    1.399   1_455 S
C574   C357    1.163   1_565 S
O575   H576    0.991   .     S
O577   H578    0.991   .     S
O579   H580    0.991   .     S
O581   H582    0.990   .     S
N583   O584    1.301   .     A
N583   O585    1.302   .     A
N586   O587    1.301   .     A
N586   O588    1.301   .     A
N589   O590    1.301   .     A
N589   O591    1.301   .     A
N592   O594    1.301   .     A
N592   O593    1.301   .     A
O595   C599    1.262   .     A
O595   Zn607   1.950   .     S
O596   C600    1.262   .     A
O596   Zn608   1.950   .     S
O597   Zn607   1.950   .     S
O597   C600    1.262   .     A
O598   Zn608   1.950   .     S
O598   C599    1.262   .     A
C599   C627    1.363   .     S
C600   C628    1.363   .     S
O601   C605    1.269   .     A
O601   Zn607   2.019   .     S
O602   C606    1.272   .     A
O602   Zn608   2.019   .     S
O603   C606    1.270   .     A
O603   Zn607   2.018   .     S
O604   C605    1.272   .     A
O604   Zn608   2.018   .     S
C605   C616    1.432   .     S
C606   C615    1.432   .     S
Zn607  N610    1.976   .     S
Zn608  N609    1.976   .     S
N610   N933    1.195   .     S
C611   N637    1.437   .     S
C611   C619    1.405   .     A
C611   C615    1.398   .     A
C612   C620    1.403   .     A
C612   N640    1.436   .     S
C612   C616    1.394   .     A
C613   C617    1.401   .     A
C613   C615    1.396   .     A
C613   N643    1.439   .     S
C614   N646    1.436   .     S
C614   C618    1.404   .     A
C614   C616    1.395   .     A
C617   C621    1.420   .     A
C617   C623    1.414   .     A
C618   C624    1.414   .     A
C618   C622    1.423   .     A
C619   C625    1.413   .     A
C619   C621    1.422   .     A
C620   C626    1.415   .     A
C620   C622    1.425   .     A
C621   C568    1.403   1_655 S
C623   O629    1.380   .     S
C623   C572    1.399   1_655 S
C624   O631    1.382   .     S
C625   O633    1.383   .     S
C625   C570    1.405   1_655 S
C626   O635    1.386   .     S
C628   C411    1.163   1_565 S
O629   H630    0.991   .     S
O631   H632    0.991   .     S
O633   H634    0.991   .     S
O635   H636    0.990   .     S
N637   O638    1.301   .     A
N637   O639    1.302   .     A
N640   O641    1.301   .     A
N640   O642    1.301   .     A
N643   O644    1.301   .     A
N643   O645    1.301   .     A
N646   O648    1.301   .     A
N646   O647    1.301   .     A
O649   C653    1.262   .     A
O649   Zn661   1.950   .     S
O650   C654    1.262   .     A
O650   Zn662   1.950   .     S
O651   Zn661   1.950   .     S
O651   C654    1.262   .     A
O652   Zn662   1.950   .     S
O652   C653    1.262   .     A
C653   C681    1.363   .     S
C654   C682    1.363   .     S
O655   C659    1.269   .     A
O655   Zn661   2.019   .     S
O656   C660    1.272   .     A
O656   Zn662   2.019   .     S
O657   C660    1.270   .     A
O657   Zn661   2.018   .     S
O658   C659    1.272   .     A
O658   Zn662   2.018   .     S
C659   C670    1.432   .     S
C660   C669    1.432   .     S
Zn661  N664    1.976   .     S
Zn662  N663    1.976   .     S
N664   N15     1.195   1_556 S
C665   N691    1.437   .     S
C665   C673    1.405   .     A
C665   C669    1.398   .     A
C666   C674    1.403   .     A
C666   N694    1.436   .     S
C666   C670    1.394   .     A
C667   C671    1.401   .     A
C667   C669    1.396   .     A
C667   N697    1.439   .     S
C668   N700    1.436   .     S
C668   C672    1.404   .     A
C668   C670    1.395   .     A
C671   C675    1.420   .     A
C671   C677    1.414   .     A
C672   C678    1.414   .     A
C672   C676    1.423   .     A
C673   C679    1.413   .     A
C673   C675    1.422   .     A
C674   C680    1.415   .     A
C674   C676    1.425   .     A
C675   C730    1.403   .     S
C676   C729    1.403   1_455 S
C677   O683    1.380   .     S
C677   C734    1.399   .     S
C678   O685    1.382   .     S
C678   C733    1.405   1_455 S
C679   O687    1.383   .     S
C679   C732    1.405   .     S
C680   O689    1.386   .     S
C680   C731    1.399   1_455 S
C681   C898    1.163   1_545 S
C682   C789    1.163   .     S
O683   H684    0.991   .     S
O685   H686    0.991   .     S
O687   H688    0.991   .     S
O689   H690    0.990   .     S
N691   O692    1.301   .     A
N691   O693    1.302   .     A
N694   O695    1.301   .     A
N694   O696    1.301   .     A
N697   O698    1.301   .     A
N697   O699    1.301   .     A
N700   O702    1.301   .     A
N700   O701    1.301   .     A
O703   C707    1.262   .     A
O703   Zn715   1.950   .     S
O704   C708    1.262   .     A
O704   Zn716   1.950   .     S
O705   Zn715   1.950   .     S
O705   C708    1.262   .     A
O706   Zn716   1.950   .     S
O706   C707    1.262   .     A
C707   C735    1.363   .     S
C708   C736    1.363   .     S
O709   C713    1.269   .     A
O709   Zn715   2.019   .     S
O710   C714    1.272   .     A
O710   Zn716   2.019   .     S
O711   C714    1.270   .     A
O711   Zn715   2.018   .     S
O712   C713    1.272   .     A
O712   Zn716   2.018   .     S
C713   C724    1.432   .     S
C714   C723    1.432   .     S
Zn715  N718    1.976   .     S
Zn716  N717    1.976   .     S
N718   N69     1.195   1_556 S
C719   N745    1.437   .     S
C719   C727    1.405   .     A
C719   C723    1.398   .     A
C720   C728    1.403   .     A
C720   N748    1.436   .     S
C720   C724    1.394   .     A
C721   C725    1.401   .     A
C721   C723    1.396   .     A
C721   N751    1.439   .     S
C722   N754    1.436   .     S
C722   C726    1.404   .     A
C722   C724    1.395   .     A
C725   C729    1.420   .     A
C725   C731    1.414   .     A
C726   C732    1.414   .     A
C726   C730    1.423   .     A
C727   C733    1.413   .     A
C727   C729    1.422   .     A
C728   C734    1.415   .     A
C728   C730    1.425   .     A
C729   C676    1.403   1_655 S
C731   O737    1.380   .     S
C731   C680    1.399   1_655 S
C732   O739    1.382   .     S
C733   O741    1.383   .     S
C733   C678    1.405   1_655 S
C734   O743    1.386   .     S
C735   C952    1.163   1_545 S
C736   C843    1.163   .     S
O737   H738    0.991   .     S
O739   H740    0.991   .     S
O741   H742    0.991   .     S
O743   H744    0.990   .     S
N745   O746    1.301   .     A
N745   O747    1.302   .     A
N748   O749    1.301   .     A
N748   O750    1.301   .     A
N751   O752    1.301   .     A
N751   O753    1.301   .     A
N754   O756    1.301   .     A
N754   O755    1.301   .     A
O757   C761    1.262   .     A
O757   Zn769   1.950   .     S
O758   C762    1.262   .     A
O758   Zn770   1.950   .     S
O759   Zn769   1.950   .     S
O759   C762    1.262   .     A
O760   Zn770   1.950   .     S
O760   C761    1.262   .     A
C761   C789    1.363   .     S
C762   C790    1.363   .     S
O763   C767    1.269   .     A
O763   Zn769   2.019   .     S
O764   C768    1.272   .     A
O764   Zn770   2.019   .     S
O765   C768    1.270   .     A
O765   Zn769   2.018   .     S
O766   C767    1.272   .     A
O766   Zn770   2.018   .     S
C767   C778    1.432   .     S
C768   C777    1.432   .     S
Zn769  N772    1.976   .     S
Zn770  N771    1.976   .     S
N772   N123    1.195   1_556 S
C773   N799    1.437   .     S
C773   C781    1.405   .     A
C773   C777    1.398   .     A
C774   C782    1.403   .     A
C774   N802    1.436   .     S
C774   C778    1.394   .     A
C775   C779    1.401   .     A
C775   C777    1.396   .     A
C775   N805    1.439   .     S
C776   N808    1.436   .     S
C776   C780    1.404   .     A
C776   C778    1.395   .     A
C779   C783    1.420   .     A
C779   C785    1.414   .     A
C780   C786    1.414   .     A
C780   C784    1.423   .     A
C781   C787    1.413   .     A
C781   C783    1.422   .     A
C782   C788    1.415   .     A
C782   C784    1.425   .     A
C783   C838    1.403   .     S
C784   C837    1.403   1_455 S
C785   O791    1.380   .     S
C785   C842    1.399   .     S
C786   O793    1.382   .     S
C786   C841    1.405   1_455 S
C787   O795    1.383   .     S
C787   C840    1.405   .     S
C788   O797    1.386   .     S
C788   C839    1.399   1_455 S
C790   C897    1.163   .     S
O791   H792    0.991   .     S
O793   H794    0.991   .     S
O795   H796    0.991   .     S
O797   H798    0.990   .     S
N799   O800    1.301   .     A
N799   O801    1.302   .     A
N802   O803    1.301   .     A
N802   O804    1.301   .     A
N805   O806    1.301   .     A
N805   O807    1.301   .     A
N808   O810    1.301   .     A
N808   O809    1.301   .     A
O811   C815    1.262   .     A
O811   Zn823   1.950   .     S
O812   C816    1.262   .     A
O812   Zn824   1.950   .     S
O813   Zn823   1.950   .     S
O813   C816    1.262   .     A
O814   Zn824   1.950   .     S
O814   C815    1.262   .     A
C815   C843    1.363   .     S
C816   C844    1.363   .     S
O817   C821    1.269   .     A
O817   Zn823   2.019   .     S
O818   C822    1.272   .     A
O818   Zn824   2.019   .     S
O819   C822    1.270   .     A
O819   Zn823   2.018   .     S
O820   C821    1.272   .     A
O820   Zn824   2.018   .     S
C821   C832    1.432   .     S
C822   C831    1.432   .     S
Zn823  N826    1.976   .     S
Zn824  N825    1.976   .     S
N826   N177    1.195   1_556 S
C827   N853    1.437   .     S
C827   C835    1.405   .     A
C827   C831    1.398   .     A
C828   C836    1.403   .     A
C828   N856    1.436   .     S
C828   C832    1.394   .     A
C829   C833    1.401   .     A
C829   C831    1.396   .     A
C829   N859    1.439   .     S
C830   N862    1.436   .     S
C830   C834    1.404   .     A
C830   C832    1.395   .     A
C833   C837    1.420   .     A
C833   C839    1.414   .     A
C834   C840    1.414   .     A
C834   C838    1.423   .     A
C835   C841    1.413   .     A
C835   C837    1.422   .     A
C836   C842    1.415   .     A
C836   C838    1.425   .     A
C837   C784    1.403   1_655 S
C839   O845    1.380   .     S
C839   C788    1.399   1_655 S
C840   O847    1.382   .     S
C841   O849    1.383   .     S
C841   C786    1.405   1_655 S
C842   O851    1.386   .     S
C844   C951    1.163   .     S
O845   H846    0.991   .     S
O847   H848    0.991   .     S
O849   H850    0.991   .     S
O851   H852    0.990   .     S
N853   O854    1.301   .     A
N853   O855    1.302   .     A
N856   O857    1.301   .     A
N856   O858    1.301   .     A
N859   O860    1.301   .     A
N859   O861    1.301   .     A
N862   O864    1.301   .     A
N862   O863    1.301   .     A
O865   C869    1.262   .     A
O865   Zn877   1.950   .     S
O866   C870    1.262   .     A
O866   Zn878   1.950   .     S
O867   Zn877   1.950   .     S
O867   C870    1.262   .     A
O868   Zn878   1.950   .     S
O868   C869    1.262   .     A
C869   C897    1.363   .     S
C870   C898    1.363   .     S
O871   C875    1.269   .     A
O871   Zn877   2.019   .     S
O872   C876    1.272   .     A
O872   Zn878   2.019   .     S
O873   C876    1.270   .     A
O873   Zn877   2.018   .     S
O874   C875    1.272   .     A
O874   Zn878   2.018   .     S
C875   C886    1.432   .     S
C876   C885    1.432   .     S
Zn877  N880    1.976   .     S
Zn878  N879    1.976   .     S
N880   N231    1.195   1_556 S
C881   N907    1.437   .     S
C881   C889    1.405   .     A
C881   C885    1.398   .     A
C882   C890    1.403   .     A
C882   N910    1.436   .     S
C882   C886    1.394   .     A
C883   C887    1.401   .     A
C883   C885    1.396   .     A
C883   N913    1.439   .     S
C884   N916    1.436   .     S
C884   C888    1.404   .     A
C884   C886    1.395   .     A
C887   C891    1.420   .     A
C887   C893    1.414   .     A
C888   C894    1.414   .     A
C888   C892    1.423   .     A
C889   C895    1.413   .     A
C889   C891    1.422   .     A
C890   C896    1.415   .     A
C890   C892    1.425   .     A
C891   C946    1.403   .     S
C892   C945    1.403   1_455 S
C893   O899    1.380   .     S
C893   C950    1.399   .     S
C894   O901    1.382   .     S
C894   C949    1.405   1_455 S
C895   O903    1.383   .     S
C895   C948    1.405   .     S
C896   O905    1.386   .     S
C896   C947    1.399   1_455 S
C898   C681    1.163   1_565 S
O899   H900    0.991   .     S
O901   H902    0.991   .     S
O903   H904    0.991   .     S
O905   H906    0.990   .     S
N907   O908    1.301   .     A
N907   O909    1.302   .     A
N910   O911    1.301   .     A
N910   O912    1.301   .     A
N913   O914    1.301   .     A
N913   O915    1.301   .     A
N916   O918    1.301   .     A
N916   O917    1.301   .     A
O919   C923    1.262   .     A
O919   Zn931   1.950   .     S
O920   C924    1.262   .     A
O920   Zn932   1.950   .     S
O921   Zn931   1.950   .     S
O921   C924    1.262   .     A
O922   Zn932   1.950   .     S
O922   C923    1.262   .     A
C923   C951    1.363   .     S
C924   C952    1.363   .     S
O925   C929    1.269   .     A
O925   Zn931   2.019   .     S
O926   C930    1.272   .     A
O926   Zn932   2.019   .     S
O927   C930    1.270   .     A
O927   Zn931   2.018   .     S
O928   C929    1.272   .     A
O928   Zn932   2.018   .     S
C929   C940    1.432   .     S
C930   C939    1.432   .     S
Zn931  N934    1.976   .     S
Zn932  N933    1.976   .     S
N934   N285    1.195   1_556 S
C935   N961    1.437   .     S
C935   C943    1.405   .     A
C935   C939    1.398   .     A
C936   C944    1.403   .     A
C936   N964    1.436   .     S
C936   C940    1.394   .     A
C937   C941    1.401   .     A
C937   C939    1.396   .     A
C937   N967    1.439   .     S
C938   N970    1.436   .     S
C938   C942    1.404   .     A
C938   C940    1.395   .     A
C941   C945    1.420   .     A
C941   C947    1.414   .     A
C942   C948    1.414   .     A
C942   C946    1.423   .     A
C943   C949    1.413   .     A
C943   C945    1.422   .     A
C944   C950    1.415   .     A
C944   C946    1.425   .     A
C945   C892    1.403   1_655 S
C947   O953    1.380   .     S
C947   C896    1.399   1_655 S
C948   O955    1.382   .     S
C949   O957    1.383   .     S
C949   C894    1.405   1_655 S
C950   O959    1.386   .     S
C952   C735    1.163   1_565 S
O953   H954    0.991   .     S
O955   H956    0.991   .     S
O957   H958    0.991   .     S
O959   H960    0.990   .     S
N961   O962    1.301   .     A
N961   O963    1.302   .     A
N964   O965    1.301   .     A
N964   O966    1.301   .     A
N967   O968    1.301   .     A
N967   O969    1.301   .     A
N970   O972    1.301   .     A
N970   O971    1.301   .     A
