data_str_m2_o2_o10_pcu_sym.158
_audit_creation_date              2020-01-03
_audit_creation_method            'Materials Studio'
_symmetry_space_group_name_H-M    'P1'
_symmetry_Int_Tables_number       1
_symmetry_cell_setting            triclinic
loop_
_symmetry_equiv_pos_as_xyz
  x,y,z
_cell_length_a                    26.1622
_cell_length_b                    30.2283
_cell_length_c                    27.8862
_cell_angle_alpha                 88.6967
_cell_angle_beta                  97.0999
_cell_angle_gamma                 91.8821
loop_
_atom_site_label
_atom_site_type_symbol
_atom_site_fract_x
_atom_site_fract_y
_atom_site_fract_z
_atom_site_U_iso_or_equiv
_atom_site_adp_type
_atom_site_occupancy
O1     O     0.16667   0.18573   0.29072   0.00000  Uiso   1.00
O2     O     0.16666   0.31428   0.20929   0.00000  Uiso   1.00
O3     O     0.16667   0.18573   0.20928   0.00000  Uiso   1.00
O4     O     0.16666   0.31427   0.29072   0.00000  Uiso   1.00
C5     C     0.16616   0.16507   0.25041   0.00000  Uiso   1.00
C6     C     0.16476   0.33510   0.24936   0.00000  Uiso   1.00
O7     O     0.09161   0.25000   0.28132   0.00000  Uiso   1.00
O8     O     0.24172   0.25001   0.21868   0.00000  Uiso   1.00
O9     O     0.09161   0.25000   0.19989   0.00000  Uiso   1.00
O10    O     0.24172   0.25000   0.30012   0.00000  Uiso   1.00
C11    C     0.06807   0.24904   0.23787   0.00000  Uiso   1.00
C12    C     0.26531   0.25009   0.26225   0.00000  Uiso   1.00
Cu13   Cu    0.16667   0.25000   0.29822   0.00000  Uiso   1.00
Cu14   Cu    0.16667   0.25001   0.20179   0.00000  Uiso   1.00
C15    C     0.01299   0.24635   0.23150   0.00000  Uiso   1.00
C16    C     0.32051   0.25099   0.26914   0.00000  Uiso   1.00
H17    H     0.32699   0.23980   0.19566   0.00000  Uiso   1.00
H18    H     0.00668   0.25617   0.30542   0.00000  Uiso   1.00
C19    C     0.19300   0.04638   0.28464   0.00000  Uiso   1.00
C20    C     0.18093   0.45641   0.21760   0.00000  Uiso   1.00
H21    H     0.21966   0.02732   0.30913   0.00000  Uiso   1.00
H22    H     0.19912   0.47700   0.19179   0.00000  Uiso   1.00
C23    C     0.19731   0.09242   0.28420   0.00000  Uiso   1.00
C24    C     0.18204   0.41070   0.21461   0.00000  Uiso   1.00
C25    C     0.16321   0.11674   0.25113   0.00000  Uiso   1.00
C26    C     0.15921   0.38357   0.24848   0.00000  Uiso   1.00
C27    C     0.12508   0.09469   0.21905   0.00000  Uiso   1.00
C28    C     0.13252   0.40339   0.28348   0.00000  Uiso   1.00
C29    C     0.12119   0.04812   0.21991   0.00000  Uiso   1.00
C30    C     0.13091   0.44989   0.28565   0.00000  Uiso   1.00
C31    C     0.15606   0.02441   0.25259   0.00000  Uiso   1.00
C32    C     0.15595   0.47603   0.25258   0.00000  Uiso   1.00
C33    C     0.20345   0.26982   0.05573   0.00000  Uiso   1.00
C34    C     0.14353   0.21728   0.44568   0.00000  Uiso   1.00
H35    H     0.23606   0.28334   0.03914   0.00000  Uiso   1.00
H36    H     0.12909   0.18868   0.46455   0.00000  Uiso   1.00
C37    C     0.20499   0.27077   0.10626   0.00000  Uiso   1.00
C38    C     0.14386   0.21594   0.39531   0.00000  Uiso   1.00
N39    N     0.16667   0.25001   0.12935   0.00000  Uiso   1.00
N40    N     0.16667   0.24999   0.37066   0.00000  Uiso   1.00
C41    C     0.12478   0.23191   0.10155   0.00000  Uiso   1.00
C42    C     0.18551   0.28656   0.39578   0.00000  Uiso   1.00
H43    H     0.09394   0.21677   0.11924   0.00000  Uiso   1.00
H44    H     0.20215   0.31378   0.37661   0.00000  Uiso   1.00
C45    C     0.11904   0.23516   0.05022   0.00000  Uiso   1.00
C46    C     0.18089   0.29097   0.44568   0.00000  Uiso   1.00
C47    C     0.16000   0.25389   0.02638   0.00000  Uiso   1.00
C48    C     0.16048   0.25488   0.47186   0.00000  Uiso   1.00
N49    N     0.23781   0.11371   0.31596   0.00000  Uiso   1.00
O50    O     0.26532   0.14625   0.30012   0.00000  Uiso   1.00
O51    O     0.25219   0.09656   0.35853   0.00000  Uiso   1.00
N52    N     0.20626   0.39266   0.17654   0.00000  Uiso   1.00
O53    O     0.17748   0.37850   0.13821   0.00000  Uiso   1.00
O54    O     0.25480   0.40193   0.17405   0.00000  Uiso   1.00
N55    N     0.08993   0.11975   0.18633   0.00000  Uiso   1.00
O56    O     0.09185   0.11840   0.13999   0.00000  Uiso   1.00
O57    O     0.05740   0.14530   0.20293   0.00000  Uiso   1.00
N58    N     0.10430   0.37638   0.31485   0.00000  Uiso   1.00
O59    O     0.06695   0.34999   0.29667   0.00000  Uiso   1.00
O60    O     0.11577   0.37809   0.36153   0.00000  Uiso   1.00
C61    C     0.07949   0.02332   0.18770   0.00000  Uiso   1.00
H62    H     0.09725   0.00348   0.16149   0.00000  Uiso   1.00
H63    H     0.05742   0.00074   0.21010   0.00000  Uiso   1.00
H64    H     0.05129   0.04531   0.16710   0.00000  Uiso   1.00
C65    C     0.10093   0.47067   0.32197   0.00000  Uiso   1.00
H66    H     0.11981   0.46386   0.35914   0.00000  Uiso   1.00
H67    H     0.09820   0.00705   0.31733   0.00000  Uiso   1.00
H68    H     0.06090   0.45664   0.31819   0.00000  Uiso   1.00
C69    C     0.24908   0.29733   0.13201   0.00000  Uiso   1.00
H70    H     0.24074   0.31004   0.16667   0.00000  Uiso   1.00
H71    H     0.28412   0.27749   0.13628   0.00000  Uiso   1.00
H72    H     0.25737   0.32729   0.11009   0.00000  Uiso   1.00
C73    C     0.11718   0.17634   0.37051   0.00000  Uiso   1.00
H74    H     0.09295   0.18615   0.33690   0.00000  Uiso   1.00
H75    H     0.14594   0.15171   0.36403   0.00000  Uiso   1.00
H76    H     0.09040   0.15935   0.39342   0.00000  Uiso   1.00
N77    N     0.07068   0.22150   0.02366   0.00000  Uiso   1.00
O78    O     0.05096   0.24470   0.48644   0.00000  Uiso   1.00
O79    O     0.04277   0.18974   0.04052   0.00000  Uiso   1.00
N80    N     0.19454   0.33284   0.46799   0.00000  Uiso   1.00
O81    O     0.16649   0.34840   0.49878   0.00000  Uiso   1.00
O82    O     0.23047   0.35829   0.45272   0.00000  Uiso   1.00
O83    O     0.50000   0.18573   0.29072   0.00000  Uiso   1.00
O84    O     0.50000   0.31428   0.20929   0.00000  Uiso   1.00
O85    O     0.50000   0.18573   0.20928   0.00000  Uiso   1.00
O86    O     0.50000   0.31427   0.29072   0.00000  Uiso   1.00
C87    C     0.49949   0.16507   0.25041   0.00000  Uiso   1.00
C88    C     0.49809   0.33510   0.24936   0.00000  Uiso   1.00
O89    O     0.42495   0.25000   0.28132   0.00000  Uiso   1.00
O90    O     0.57505   0.25001   0.21868   0.00000  Uiso   1.00
O91    O     0.42495   0.25000   0.19989   0.00000  Uiso   1.00
O92    O     0.57505   0.25000   0.30012   0.00000  Uiso   1.00
C93    C     0.40140   0.24904   0.23787   0.00000  Uiso   1.00
C94    C     0.59864   0.25009   0.26225   0.00000  Uiso   1.00
Cu95   Cu    0.50000   0.25000   0.29822   0.00000  Uiso   1.00
Cu96   Cu    0.50000   0.25001   0.20179   0.00000  Uiso   1.00
C97    C     0.34632   0.24635   0.23150   0.00000  Uiso   1.00
C98    C     0.65384   0.25099   0.26914   0.00000  Uiso   1.00
H99    H     0.66032   0.23980   0.19566   0.00000  Uiso   1.00
H100   H     0.34001   0.25617   0.30542   0.00000  Uiso   1.00
C101   C     0.52633   0.04638   0.28464   0.00000  Uiso   1.00
C102   C     0.51426   0.45641   0.21760   0.00000  Uiso   1.00
H103   H     0.55299   0.02732   0.30913   0.00000  Uiso   1.00
H104   H     0.53246   0.47700   0.19179   0.00000  Uiso   1.00
C105   C     0.53064   0.09242   0.28420   0.00000  Uiso   1.00
C106   C     0.51537   0.41070   0.21461   0.00000  Uiso   1.00
C107   C     0.49654   0.11674   0.25113   0.00000  Uiso   1.00
C108   C     0.49254   0.38357   0.24848   0.00000  Uiso   1.00
C109   C     0.45842   0.09469   0.21905   0.00000  Uiso   1.00
C110   C     0.46585   0.40339   0.28348   0.00000  Uiso   1.00
C111   C     0.45452   0.04812   0.21991   0.00000  Uiso   1.00
C112   C     0.46424   0.44989   0.28565   0.00000  Uiso   1.00
C113   C     0.48939   0.02441   0.25259   0.00000  Uiso   1.00
C114   C     0.48928   0.47603   0.25258   0.00000  Uiso   1.00
C115   C     0.53678   0.26982   0.05573   0.00000  Uiso   1.00
C116   C     0.47687   0.21728   0.44568   0.00000  Uiso   1.00
H117   H     0.56940   0.28334   0.03914   0.00000  Uiso   1.00
H118   H     0.46243   0.18868   0.46455   0.00000  Uiso   1.00
C119   C     0.53833   0.27077   0.10626   0.00000  Uiso   1.00
C120   C     0.47720   0.21594   0.39531   0.00000  Uiso   1.00
N121   N     0.50000   0.25001   0.12935   0.00000  Uiso   1.00
N122   N     0.50000   0.24999   0.37066   0.00000  Uiso   1.00
C123   C     0.45811   0.23191   0.10155   0.00000  Uiso   1.00
C124   C     0.51884   0.28656   0.39578   0.00000  Uiso   1.00
H125   H     0.42728   0.21677   0.11924   0.00000  Uiso   1.00
H126   H     0.53548   0.31378   0.37661   0.00000  Uiso   1.00
C127   C     0.45237   0.23516   0.05022   0.00000  Uiso   1.00
C128   C     0.51422   0.29097   0.44568   0.00000  Uiso   1.00
C129   C     0.49334   0.25389   0.02638   0.00000  Uiso   1.00
C130   C     0.49381   0.25488   0.47186   0.00000  Uiso   1.00
N131   N     0.57114   0.11371   0.31596   0.00000  Uiso   1.00
O132   O     0.59866   0.14625   0.30012   0.00000  Uiso   1.00
O133   O     0.58552   0.09656   0.35853   0.00000  Uiso   1.00
N134   N     0.53959   0.39266   0.17654   0.00000  Uiso   1.00
O135   O     0.51082   0.37850   0.13821   0.00000  Uiso   1.00
O136   O     0.58813   0.40193   0.17405   0.00000  Uiso   1.00
N137   N     0.42326   0.11975   0.18633   0.00000  Uiso   1.00
O138   O     0.42519   0.11840   0.13999   0.00000  Uiso   1.00
O139   O     0.39074   0.14530   0.20293   0.00000  Uiso   1.00
N140   N     0.43763   0.37638   0.31485   0.00000  Uiso   1.00
O141   O     0.40028   0.34999   0.29667   0.00000  Uiso   1.00
O142   O     0.44910   0.37809   0.36153   0.00000  Uiso   1.00
C143   C     0.41283   0.02332   0.18770   0.00000  Uiso   1.00
H144   H     0.43059   0.00348   0.16149   0.00000  Uiso   1.00
H145   H     0.39076   0.00074   0.21010   0.00000  Uiso   1.00
H146   H     0.38463   0.04531   0.16710   0.00000  Uiso   1.00
C147   C     0.43426   0.47067   0.32197   0.00000  Uiso   1.00
H148   H     0.45314   0.46386   0.35914   0.00000  Uiso   1.00
H149   H     0.43154   0.00705   0.31733   0.00000  Uiso   1.00
H150   H     0.39424   0.45664   0.31819   0.00000  Uiso   1.00
C151   C     0.58241   0.29733   0.13201   0.00000  Uiso   1.00
H152   H     0.57408   0.31004   0.16667   0.00000  Uiso   1.00
H153   H     0.61746   0.27749   0.13628   0.00000  Uiso   1.00
H154   H     0.59070   0.32729   0.11009   0.00000  Uiso   1.00
C155   C     0.45052   0.17634   0.37051   0.00000  Uiso   1.00
H156   H     0.42629   0.18615   0.33690   0.00000  Uiso   1.00
H157   H     0.47928   0.15171   0.36403   0.00000  Uiso   1.00
H158   H     0.42373   0.15935   0.39342   0.00000  Uiso   1.00
N159   N     0.40401   0.22150   0.02366   0.00000  Uiso   1.00
O160   O     0.38429   0.24470   0.48644   0.00000  Uiso   1.00
O161   O     0.37611   0.18974   0.04052   0.00000  Uiso   1.00
N162   N     0.52787   0.33284   0.46799   0.00000  Uiso   1.00
O163   O     0.49982   0.34840   0.49878   0.00000  Uiso   1.00
O164   O     0.56381   0.35829   0.45272   0.00000  Uiso   1.00
O165   O     0.83334   0.18573   0.29072   0.00000  Uiso   1.00
O166   O     0.83333   0.31428   0.20929   0.00000  Uiso   1.00
O167   O     0.83334   0.18573   0.20928   0.00000  Uiso   1.00
O168   O     0.83333   0.31427   0.29072   0.00000  Uiso   1.00
C169   C     0.83282   0.16507   0.25041   0.00000  Uiso   1.00
C170   C     0.83143   0.33510   0.24936   0.00000  Uiso   1.00
O171   O     0.75828   0.25000   0.28132   0.00000  Uiso   1.00
O172   O     0.90839   0.25001   0.21868   0.00000  Uiso   1.00
O173   O     0.75828   0.25000   0.19989   0.00000  Uiso   1.00
O174   O     0.90839   0.25000   0.30012   0.00000  Uiso   1.00
C175   C     0.73473   0.24904   0.23787   0.00000  Uiso   1.00
C176   C     0.93198   0.25009   0.26225   0.00000  Uiso   1.00
Cu177  Cu    0.83333   0.25000   0.29822   0.00000  Uiso   1.00
Cu178  Cu    0.83333   0.25001   0.20179   0.00000  Uiso   1.00
C179   C     0.67966   0.24635   0.23150   0.00000  Uiso   1.00
C180   C     0.98717   0.25099   0.26914   0.00000  Uiso   1.00
H181   H     0.99366   0.23980   0.19566   0.00000  Uiso   1.00
H182   H     0.67335   0.25617   0.30542   0.00000  Uiso   1.00
C183   C     0.85967   0.04638   0.28464   0.00000  Uiso   1.00
C184   C     0.84759   0.45641   0.21760   0.00000  Uiso   1.00
H185   H     0.88632   0.02732   0.30913   0.00000  Uiso   1.00
H186   H     0.86579   0.47700   0.19179   0.00000  Uiso   1.00
C187   C     0.86397   0.09242   0.28420   0.00000  Uiso   1.00
C188   C     0.84871   0.41070   0.21461   0.00000  Uiso   1.00
C189   C     0.82987   0.11674   0.25113   0.00000  Uiso   1.00
C190   C     0.82587   0.38357   0.24848   0.00000  Uiso   1.00
C191   C     0.79175   0.09469   0.21905   0.00000  Uiso   1.00
C192   C     0.79918   0.40339   0.28348   0.00000  Uiso   1.00
C193   C     0.78785   0.04812   0.21991   0.00000  Uiso   1.00
C194   C     0.79757   0.44989   0.28565   0.00000  Uiso   1.00
C195   C     0.82273   0.02441   0.25259   0.00000  Uiso   1.00
C196   C     0.82262   0.47603   0.25258   0.00000  Uiso   1.00
C197   C     0.87012   0.26982   0.05573   0.00000  Uiso   1.00
C198   C     0.81020   0.21728   0.44568   0.00000  Uiso   1.00
H199   H     0.90273   0.28334   0.03914   0.00000  Uiso   1.00
H200   H     0.79576   0.18868   0.46455   0.00000  Uiso   1.00
C201   C     0.87166   0.27077   0.10626   0.00000  Uiso   1.00
C202   C     0.81053   0.21594   0.39531   0.00000  Uiso   1.00
N203   N     0.83333   0.25001   0.12935   0.00000  Uiso   1.00
N204   N     0.83333   0.24999   0.37066   0.00000  Uiso   1.00
C205   C     0.79144   0.23191   0.10155   0.00000  Uiso   1.00
C206   C     0.85218   0.28656   0.39578   0.00000  Uiso   1.00
H207   H     0.76061   0.21677   0.11924   0.00000  Uiso   1.00
H208   H     0.86881   0.31378   0.37661   0.00000  Uiso   1.00
C209   C     0.78570   0.23516   0.05022   0.00000  Uiso   1.00
C210   C     0.84756   0.29097   0.44568   0.00000  Uiso   1.00
C211   C     0.82667   0.25389   0.02638   0.00000  Uiso   1.00
C212   C     0.82714   0.25488   0.47186   0.00000  Uiso   1.00
N213   N     0.90448   0.11371   0.31596   0.00000  Uiso   1.00
O214   O     0.93199   0.14625   0.30012   0.00000  Uiso   1.00
O215   O     0.91886   0.09656   0.35853   0.00000  Uiso   1.00
N216   N     0.87293   0.39266   0.17654   0.00000  Uiso   1.00
O217   O     0.84415   0.37850   0.13821   0.00000  Uiso   1.00
O218   O     0.92147   0.40193   0.17405   0.00000  Uiso   1.00
N219   N     0.75660   0.11975   0.18633   0.00000  Uiso   1.00
O220   O     0.75852   0.11840   0.13999   0.00000  Uiso   1.00
O221   O     0.72407   0.14530   0.20293   0.00000  Uiso   1.00
N222   N     0.77096   0.37638   0.31485   0.00000  Uiso   1.00
O223   O     0.73361   0.34999   0.29667   0.00000  Uiso   1.00
O224   O     0.78244   0.37809   0.36153   0.00000  Uiso   1.00
C225   C     0.74616   0.02332   0.18770   0.00000  Uiso   1.00
H226   H     0.76392   0.00348   0.16149   0.00000  Uiso   1.00
H227   H     0.72409   0.00074   0.21010   0.00000  Uiso   1.00
H228   H     0.71796   0.04531   0.16710   0.00000  Uiso   1.00
C229   C     0.76760   0.47067   0.32197   0.00000  Uiso   1.00
H230   H     0.78648   0.46386   0.35914   0.00000  Uiso   1.00
H231   H     0.76487   0.00705   0.31733   0.00000  Uiso   1.00
H232   H     0.72757   0.45664   0.31819   0.00000  Uiso   1.00
C233   C     0.91575   0.29733   0.13201   0.00000  Uiso   1.00
H234   H     0.90741   0.31004   0.16667   0.00000  Uiso   1.00
H235   H     0.95079   0.27749   0.13628   0.00000  Uiso   1.00
H236   H     0.92404   0.32729   0.11009   0.00000  Uiso   1.00
C237   C     0.78385   0.17634   0.37051   0.00000  Uiso   1.00
H238   H     0.75962   0.18615   0.33690   0.00000  Uiso   1.00
H239   H     0.81261   0.15171   0.36403   0.00000  Uiso   1.00
H240   H     0.75706   0.15935   0.39342   0.00000  Uiso   1.00
N241   N     0.73734   0.22150   0.02366   0.00000  Uiso   1.00
O242   O     0.71762   0.24470   0.48644   0.00000  Uiso   1.00
O243   O     0.70944   0.18974   0.04052   0.00000  Uiso   1.00
N244   N     0.86120   0.33284   0.46799   0.00000  Uiso   1.00
O245   O     0.83315   0.34840   0.49878   0.00000  Uiso   1.00
O246   O     0.89714   0.35829   0.45272   0.00000  Uiso   1.00
O247   O     0.16667   0.68573   0.29072   0.00000  Uiso   1.00
O248   O     0.16666   0.81428   0.20929   0.00000  Uiso   1.00
O249   O     0.16667   0.68573   0.20928   0.00000  Uiso   1.00
O250   O     0.16666   0.81427   0.29072   0.00000  Uiso   1.00
C251   C     0.16616   0.66507   0.25041   0.00000  Uiso   1.00
C252   C     0.16476   0.83510   0.24936   0.00000  Uiso   1.00
O253   O     0.09161   0.75000   0.28132   0.00000  Uiso   1.00
O254   O     0.24172   0.75001   0.21868   0.00000  Uiso   1.00
O255   O     0.09161   0.75000   0.19989   0.00000  Uiso   1.00
O256   O     0.24172   0.75000   0.30012   0.00000  Uiso   1.00
C257   C     0.06807   0.74904   0.23787   0.00000  Uiso   1.00
C258   C     0.26531   0.75009   0.26225   0.00000  Uiso   1.00
Cu259  Cu    0.16667   0.75000   0.29822   0.00000  Uiso   1.00
Cu260  Cu    0.16667   0.75001   0.20179   0.00000  Uiso   1.00
C261   C     0.01299   0.74635   0.23150   0.00000  Uiso   1.00
C262   C     0.32051   0.75099   0.26914   0.00000  Uiso   1.00
H263   H     0.32699   0.73980   0.19566   0.00000  Uiso   1.00
H264   H     0.00668   0.75617   0.30542   0.00000  Uiso   1.00
C265   C     0.19300   0.54638   0.28464   0.00000  Uiso   1.00
C266   C     0.18093   0.95641   0.21760   0.00000  Uiso   1.00
H267   H     0.21966   0.52732   0.30913   0.00000  Uiso   1.00
H268   H     0.19912   0.97700   0.19179   0.00000  Uiso   1.00
C269   C     0.19731   0.59242   0.28420   0.00000  Uiso   1.00
C270   C     0.18204   0.91070   0.21461   0.00000  Uiso   1.00
C271   C     0.16321   0.61674   0.25113   0.00000  Uiso   1.00
C272   C     0.15921   0.88357   0.24848   0.00000  Uiso   1.00
C273   C     0.12508   0.59469   0.21905   0.00000  Uiso   1.00
C274   C     0.13252   0.90339   0.28348   0.00000  Uiso   1.00
C275   C     0.12119   0.54812   0.21991   0.00000  Uiso   1.00
C276   C     0.13091   0.94989   0.28565   0.00000  Uiso   1.00
C277   C     0.15606   0.52441   0.25259   0.00000  Uiso   1.00
C278   C     0.15595   0.97603   0.25258   0.00000  Uiso   1.00
C279   C     0.20345   0.76982   0.05573   0.00000  Uiso   1.00
C280   C     0.14353   0.71728   0.44568   0.00000  Uiso   1.00
H281   H     0.23606   0.78334   0.03914   0.00000  Uiso   1.00
H282   H     0.12909   0.68868   0.46455   0.00000  Uiso   1.00
C283   C     0.20499   0.77077   0.10626   0.00000  Uiso   1.00
C284   C     0.14386   0.71594   0.39531   0.00000  Uiso   1.00
N285   N     0.16667   0.75001   0.12935   0.00000  Uiso   1.00
N286   N     0.16667   0.74999   0.37066   0.00000  Uiso   1.00
C287   C     0.12478   0.73191   0.10155   0.00000  Uiso   1.00
C288   C     0.18551   0.78656   0.39578   0.00000  Uiso   1.00
H289   H     0.09394   0.71677   0.11924   0.00000  Uiso   1.00
H290   H     0.20215   0.81378   0.37661   0.00000  Uiso   1.00
C291   C     0.11904   0.73516   0.05022   0.00000  Uiso   1.00
C292   C     0.18089   0.79097   0.44568   0.00000  Uiso   1.00
C293   C     0.16000   0.75389   0.02638   0.00000  Uiso   1.00
C294   C     0.16048   0.75488   0.47186   0.00000  Uiso   1.00
N295   N     0.23781   0.61371   0.31596   0.00000  Uiso   1.00
O296   O     0.26532   0.64625   0.30012   0.00000  Uiso   1.00
O297   O     0.25219   0.59656   0.35853   0.00000  Uiso   1.00
N298   N     0.20626   0.89266   0.17654   0.00000  Uiso   1.00
O299   O     0.17748   0.87850   0.13821   0.00000  Uiso   1.00
O300   O     0.25480   0.90193   0.17405   0.00000  Uiso   1.00
N301   N     0.08993   0.61975   0.18633   0.00000  Uiso   1.00
O302   O     0.09185   0.61840   0.13999   0.00000  Uiso   1.00
O303   O     0.05740   0.64530   0.20293   0.00000  Uiso   1.00
N304   N     0.10430   0.87638   0.31485   0.00000  Uiso   1.00
O305   O     0.06695   0.84999   0.29667   0.00000  Uiso   1.00
O306   O     0.11577   0.87809   0.36153   0.00000  Uiso   1.00
C307   C     0.07949   0.52332   0.18770   0.00000  Uiso   1.00
H308   H     0.09725   0.50348   0.16149   0.00000  Uiso   1.00
H309   H     0.05742   0.50074   0.21010   0.00000  Uiso   1.00
H310   H     0.05129   0.54531   0.16710   0.00000  Uiso   1.00
C311   C     0.10093   0.97067   0.32197   0.00000  Uiso   1.00
H312   H     0.11981   0.96386   0.35914   0.00000  Uiso   1.00
H313   H     0.09820   0.50705   0.31733   0.00000  Uiso   1.00
H314   H     0.06090   0.95664   0.31819   0.00000  Uiso   1.00
C315   C     0.24908   0.79733   0.13201   0.00000  Uiso   1.00
H316   H     0.24074   0.81004   0.16667   0.00000  Uiso   1.00
H317   H     0.28412   0.77749   0.13628   0.00000  Uiso   1.00
H318   H     0.25737   0.82729   0.11009   0.00000  Uiso   1.00
C319   C     0.11718   0.67634   0.37051   0.00000  Uiso   1.00
H320   H     0.09295   0.68615   0.33690   0.00000  Uiso   1.00
H321   H     0.14594   0.65171   0.36403   0.00000  Uiso   1.00
H322   H     0.09040   0.65935   0.39342   0.00000  Uiso   1.00
N323   N     0.07068   0.72150   0.02366   0.00000  Uiso   1.00
O324   O     0.05096   0.74470   0.48644   0.00000  Uiso   1.00
O325   O     0.04277   0.68974   0.04052   0.00000  Uiso   1.00
N326   N     0.19454   0.83284   0.46799   0.00000  Uiso   1.00
O327   O     0.16649   0.84840   0.49878   0.00000  Uiso   1.00
O328   O     0.23047   0.85829   0.45272   0.00000  Uiso   1.00
O329   O     0.50000   0.68573   0.29072   0.00000  Uiso   1.00
O330   O     0.50000   0.81428   0.20929   0.00000  Uiso   1.00
O331   O     0.50000   0.68573   0.20928   0.00000  Uiso   1.00
O332   O     0.50000   0.81427   0.29072   0.00000  Uiso   1.00
C333   C     0.49949   0.66507   0.25041   0.00000  Uiso   1.00
C334   C     0.49809   0.83510   0.24936   0.00000  Uiso   1.00
O335   O     0.42495   0.75000   0.28132   0.00000  Uiso   1.00
O336   O     0.57505   0.75001   0.21868   0.00000  Uiso   1.00
O337   O     0.42495   0.75000   0.19989   0.00000  Uiso   1.00
O338   O     0.57505   0.75000   0.30012   0.00000  Uiso   1.00
C339   C     0.40140   0.74904   0.23787   0.00000  Uiso   1.00
C340   C     0.59864   0.75009   0.26225   0.00000  Uiso   1.00
Cu341  Cu    0.50000   0.75000   0.29822   0.00000  Uiso   1.00
Cu342  Cu    0.50000   0.75001   0.20179   0.00000  Uiso   1.00
C343   C     0.34632   0.74635   0.23150   0.00000  Uiso   1.00
C344   C     0.65384   0.75099   0.26914   0.00000  Uiso   1.00
H345   H     0.66032   0.73980   0.19566   0.00000  Uiso   1.00
H346   H     0.34001   0.75617   0.30542   0.00000  Uiso   1.00
C347   C     0.52633   0.54638   0.28464   0.00000  Uiso   1.00
C348   C     0.51426   0.95641   0.21760   0.00000  Uiso   1.00
H349   H     0.55299   0.52732   0.30913   0.00000  Uiso   1.00
H350   H     0.53246   0.97700   0.19179   0.00000  Uiso   1.00
C351   C     0.53064   0.59242   0.28420   0.00000  Uiso   1.00
C352   C     0.51537   0.91070   0.21461   0.00000  Uiso   1.00
C353   C     0.49654   0.61674   0.25113   0.00000  Uiso   1.00
C354   C     0.49254   0.88357   0.24848   0.00000  Uiso   1.00
C355   C     0.45842   0.59469   0.21905   0.00000  Uiso   1.00
C356   C     0.46585   0.90339   0.28348   0.00000  Uiso   1.00
C357   C     0.45452   0.54812   0.21991   0.00000  Uiso   1.00
C358   C     0.46424   0.94989   0.28565   0.00000  Uiso   1.00
C359   C     0.48939   0.52441   0.25259   0.00000  Uiso   1.00
C360   C     0.48928   0.97603   0.25258   0.00000  Uiso   1.00
C361   C     0.53678   0.76982   0.05573   0.00000  Uiso   1.00
C362   C     0.47687   0.71728   0.44568   0.00000  Uiso   1.00
H363   H     0.56940   0.78334   0.03914   0.00000  Uiso   1.00
H364   H     0.46243   0.68868   0.46455   0.00000  Uiso   1.00
C365   C     0.53833   0.77077   0.10626   0.00000  Uiso   1.00
C366   C     0.47720   0.71594   0.39531   0.00000  Uiso   1.00
N367   N     0.50000   0.75001   0.12935   0.00000  Uiso   1.00
N368   N     0.50000   0.74999   0.37066   0.00000  Uiso   1.00
C369   C     0.45811   0.73191   0.10155   0.00000  Uiso   1.00
C370   C     0.51884   0.78656   0.39578   0.00000  Uiso   1.00
H371   H     0.42728   0.71677   0.11924   0.00000  Uiso   1.00
H372   H     0.53548   0.81378   0.37661   0.00000  Uiso   1.00
C373   C     0.45237   0.73516   0.05022   0.00000  Uiso   1.00
C374   C     0.51422   0.79097   0.44568   0.00000  Uiso   1.00
C375   C     0.49334   0.75389   0.02638   0.00000  Uiso   1.00
C376   C     0.49381   0.75488   0.47186   0.00000  Uiso   1.00
N377   N     0.57114   0.61371   0.31596   0.00000  Uiso   1.00
O378   O     0.59866   0.64625   0.30012   0.00000  Uiso   1.00
O379   O     0.58552   0.59656   0.35853   0.00000  Uiso   1.00
N380   N     0.53959   0.89266   0.17654   0.00000  Uiso   1.00
O381   O     0.51082   0.87850   0.13821   0.00000  Uiso   1.00
O382   O     0.58813   0.90193   0.17405   0.00000  Uiso   1.00
N383   N     0.42326   0.61975   0.18633   0.00000  Uiso   1.00
O384   O     0.42519   0.61840   0.13999   0.00000  Uiso   1.00
O385   O     0.39074   0.64530   0.20293   0.00000  Uiso   1.00
N386   N     0.43763   0.87638   0.31485   0.00000  Uiso   1.00
O387   O     0.40028   0.84999   0.29667   0.00000  Uiso   1.00
O388   O     0.44910   0.87809   0.36153   0.00000  Uiso   1.00
C389   C     0.41283   0.52332   0.18770   0.00000  Uiso   1.00
H390   H     0.43059   0.50348   0.16149   0.00000  Uiso   1.00
H391   H     0.39076   0.50074   0.21010   0.00000  Uiso   1.00
H392   H     0.38463   0.54531   0.16710   0.00000  Uiso   1.00
C393   C     0.43426   0.97067   0.32197   0.00000  Uiso   1.00
H394   H     0.45314   0.96386   0.35914   0.00000  Uiso   1.00
H395   H     0.43154   0.50705   0.31733   0.00000  Uiso   1.00
H396   H     0.39424   0.95664   0.31819   0.00000  Uiso   1.00
C397   C     0.58241   0.79733   0.13201   0.00000  Uiso   1.00
H398   H     0.57408   0.81004   0.16667   0.00000  Uiso   1.00
H399   H     0.61746   0.77749   0.13628   0.00000  Uiso   1.00
H400   H     0.59070   0.82729   0.11009   0.00000  Uiso   1.00
C401   C     0.45052   0.67634   0.37051   0.00000  Uiso   1.00
H402   H     0.42629   0.68615   0.33690   0.00000  Uiso   1.00
H403   H     0.47928   0.65171   0.36403   0.00000  Uiso   1.00
H404   H     0.42373   0.65935   0.39342   0.00000  Uiso   1.00
N405   N     0.40401   0.72150   0.02366   0.00000  Uiso   1.00
O406   O     0.38429   0.74470   0.48644   0.00000  Uiso   1.00
O407   O     0.37611   0.68974   0.04052   0.00000  Uiso   1.00
N408   N     0.52787   0.83284   0.46799   0.00000  Uiso   1.00
O409   O     0.49982   0.84840   0.49878   0.00000  Uiso   1.00
O410   O     0.56381   0.85829   0.45272   0.00000  Uiso   1.00
O411   O     0.83334   0.68573   0.29072   0.00000  Uiso   1.00
O412   O     0.83333   0.81428   0.20929   0.00000  Uiso   1.00
O413   O     0.83334   0.68573   0.20928   0.00000  Uiso   1.00
O414   O     0.83333   0.81427   0.29072   0.00000  Uiso   1.00
C415   C     0.83282   0.66507   0.25041   0.00000  Uiso   1.00
C416   C     0.83143   0.83510   0.24936   0.00000  Uiso   1.00
O417   O     0.75828   0.75000   0.28132   0.00000  Uiso   1.00
O418   O     0.90839   0.75001   0.21868   0.00000  Uiso   1.00
O419   O     0.75828   0.75000   0.19989   0.00000  Uiso   1.00
O420   O     0.90839   0.75000   0.30012   0.00000  Uiso   1.00
C421   C     0.73473   0.74904   0.23787   0.00000  Uiso   1.00
C422   C     0.93198   0.75009   0.26225   0.00000  Uiso   1.00
Cu423  Cu    0.83333   0.75000   0.29822   0.00000  Uiso   1.00
Cu424  Cu    0.83333   0.75001   0.20179   0.00000  Uiso   1.00
C425   C     0.67966   0.74635   0.23150   0.00000  Uiso   1.00
C426   C     0.98717   0.75099   0.26914   0.00000  Uiso   1.00
H427   H     0.99366   0.73980   0.19566   0.00000  Uiso   1.00
H428   H     0.67335   0.75617   0.30542   0.00000  Uiso   1.00
C429   C     0.85967   0.54638   0.28464   0.00000  Uiso   1.00
C430   C     0.84759   0.95641   0.21760   0.00000  Uiso   1.00
H431   H     0.88632   0.52732   0.30913   0.00000  Uiso   1.00
H432   H     0.86579   0.97700   0.19179   0.00000  Uiso   1.00
C433   C     0.86397   0.59242   0.28420   0.00000  Uiso   1.00
C434   C     0.84871   0.91070   0.21461   0.00000  Uiso   1.00
C435   C     0.82987   0.61674   0.25113   0.00000  Uiso   1.00
C436   C     0.82587   0.88357   0.24848   0.00000  Uiso   1.00
C437   C     0.79175   0.59469   0.21905   0.00000  Uiso   1.00
C438   C     0.79918   0.90339   0.28348   0.00000  Uiso   1.00
C439   C     0.78785   0.54812   0.21991   0.00000  Uiso   1.00
C440   C     0.79757   0.94989   0.28565   0.00000  Uiso   1.00
C441   C     0.82273   0.52441   0.25259   0.00000  Uiso   1.00
C442   C     0.82262   0.97603   0.25258   0.00000  Uiso   1.00
C443   C     0.87012   0.76982   0.05573   0.00000  Uiso   1.00
C444   C     0.81020   0.71728   0.44568   0.00000  Uiso   1.00
H445   H     0.90273   0.78334   0.03914   0.00000  Uiso   1.00
H446   H     0.79576   0.68868   0.46455   0.00000  Uiso   1.00
C447   C     0.87166   0.77077   0.10626   0.00000  Uiso   1.00
C448   C     0.81053   0.71594   0.39531   0.00000  Uiso   1.00
N449   N     0.83333   0.75001   0.12935   0.00000  Uiso   1.00
N450   N     0.83333   0.74999   0.37066   0.00000  Uiso   1.00
C451   C     0.79144   0.73191   0.10155   0.00000  Uiso   1.00
C452   C     0.85218   0.78656   0.39578   0.00000  Uiso   1.00
H453   H     0.76061   0.71677   0.11924   0.00000  Uiso   1.00
H454   H     0.86881   0.81378   0.37661   0.00000  Uiso   1.00
C455   C     0.78570   0.73516   0.05022   0.00000  Uiso   1.00
C456   C     0.84756   0.79097   0.44568   0.00000  Uiso   1.00
C457   C     0.82667   0.75389   0.02638   0.00000  Uiso   1.00
C458   C     0.82714   0.75488   0.47186   0.00000  Uiso   1.00
N459   N     0.90448   0.61371   0.31596   0.00000  Uiso   1.00
O460   O     0.93199   0.64625   0.30012   0.00000  Uiso   1.00
O461   O     0.91886   0.59656   0.35853   0.00000  Uiso   1.00
N462   N     0.87293   0.89266   0.17654   0.00000  Uiso   1.00
O463   O     0.84415   0.87850   0.13821   0.00000  Uiso   1.00
O464   O     0.92147   0.90193   0.17405   0.00000  Uiso   1.00
N465   N     0.75660   0.61975   0.18633   0.00000  Uiso   1.00
O466   O     0.75852   0.61840   0.13999   0.00000  Uiso   1.00
O467   O     0.72407   0.64530   0.20293   0.00000  Uiso   1.00
N468   N     0.77096   0.87638   0.31485   0.00000  Uiso   1.00
O469   O     0.73361   0.84999   0.29667   0.00000  Uiso   1.00
O470   O     0.78244   0.87809   0.36153   0.00000  Uiso   1.00
C471   C     0.74616   0.52332   0.18770   0.00000  Uiso   1.00
H472   H     0.76392   0.50348   0.16149   0.00000  Uiso   1.00
H473   H     0.72409   0.50074   0.21010   0.00000  Uiso   1.00
H474   H     0.71796   0.54531   0.16710   0.00000  Uiso   1.00
C475   C     0.76760   0.97067   0.32197   0.00000  Uiso   1.00
H476   H     0.78648   0.96386   0.35914   0.00000  Uiso   1.00
H477   H     0.76487   0.50705   0.31733   0.00000  Uiso   1.00
H478   H     0.72757   0.95664   0.31819   0.00000  Uiso   1.00
C479   C     0.91575   0.79733   0.13201   0.00000  Uiso   1.00
H480   H     0.90741   0.81004   0.16667   0.00000  Uiso   1.00
H481   H     0.95079   0.77749   0.13628   0.00000  Uiso   1.00
H482   H     0.92404   0.82729   0.11009   0.00000  Uiso   1.00
C483   C     0.78385   0.67634   0.37051   0.00000  Uiso   1.00
H484   H     0.75962   0.68615   0.33690   0.00000  Uiso   1.00
H485   H     0.81261   0.65171   0.36403   0.00000  Uiso   1.00
H486   H     0.75706   0.65935   0.39342   0.00000  Uiso   1.00
N487   N     0.73734   0.72150   0.02366   0.00000  Uiso   1.00
O488   O     0.71762   0.74470   0.48644   0.00000  Uiso   1.00
O489   O     0.70944   0.68974   0.04052   0.00000  Uiso   1.00
N490   N     0.86120   0.83284   0.46799   0.00000  Uiso   1.00
O491   O     0.83315   0.84840   0.49878   0.00000  Uiso   1.00
O492   O     0.89714   0.85829   0.45272   0.00000  Uiso   1.00
O493   O     0.16667   0.18573   0.79072   0.00000  Uiso   1.00
O494   O     0.16666   0.31428   0.70929   0.00000  Uiso   1.00
O495   O     0.16667   0.18573   0.70928   0.00000  Uiso   1.00
O496   O     0.16666   0.31427   0.79072   0.00000  Uiso   1.00
C497   C     0.16616   0.16507   0.75041   0.00000  Uiso   1.00
C498   C     0.16476   0.33510   0.74936   0.00000  Uiso   1.00
O499   O     0.09161   0.25000   0.78132   0.00000  Uiso   1.00
O500   O     0.24172   0.25001   0.71868   0.00000  Uiso   1.00
O501   O     0.09161   0.25000   0.69989   0.00000  Uiso   1.00
O502   O     0.24172   0.25000   0.80012   0.00000  Uiso   1.00
C503   C     0.06807   0.24904   0.73787   0.00000  Uiso   1.00
C504   C     0.26531   0.25009   0.76225   0.00000  Uiso   1.00
Cu505  Cu    0.16667   0.25000   0.79822   0.00000  Uiso   1.00
Cu506  Cu    0.16667   0.25001   0.70179   0.00000  Uiso   1.00
C507   C     0.01299   0.24635   0.73150   0.00000  Uiso   1.00
C508   C     0.32051   0.25099   0.76914   0.00000  Uiso   1.00
H509   H     0.32699   0.23980   0.69566   0.00000  Uiso   1.00
H510   H     0.00668   0.25617   0.80542   0.00000  Uiso   1.00
C511   C     0.19300   0.04638   0.78464   0.00000  Uiso   1.00
C512   C     0.18093   0.45641   0.71760   0.00000  Uiso   1.00
H513   H     0.21966   0.02732   0.80913   0.00000  Uiso   1.00
H514   H     0.19912   0.47700   0.69179   0.00000  Uiso   1.00
C515   C     0.19731   0.09242   0.78420   0.00000  Uiso   1.00
C516   C     0.18204   0.41070   0.71461   0.00000  Uiso   1.00
C517   C     0.16321   0.11674   0.75113   0.00000  Uiso   1.00
C518   C     0.15921   0.38357   0.74848   0.00000  Uiso   1.00
C519   C     0.12508   0.09469   0.71905   0.00000  Uiso   1.00
C520   C     0.13252   0.40339   0.78348   0.00000  Uiso   1.00
C521   C     0.12119   0.04812   0.71991   0.00000  Uiso   1.00
C522   C     0.13091   0.44989   0.78565   0.00000  Uiso   1.00
C523   C     0.15606   0.02441   0.75259   0.00000  Uiso   1.00
C524   C     0.15595   0.47603   0.75258   0.00000  Uiso   1.00
C525   C     0.20345   0.26982   0.55573   0.00000  Uiso   1.00
C526   C     0.14353   0.21728   0.94568   0.00000  Uiso   1.00
H527   H     0.23606   0.28334   0.53914   0.00000  Uiso   1.00
H528   H     0.12909   0.18868   0.96455   0.00000  Uiso   1.00
C529   C     0.20499   0.27077   0.60626   0.00000  Uiso   1.00
C530   C     0.14386   0.21594   0.89531   0.00000  Uiso   1.00
N531   N     0.16667   0.25001   0.62935   0.00000  Uiso   1.00
N532   N     0.16667   0.24999   0.87066   0.00000  Uiso   1.00
C533   C     0.12478   0.23191   0.60155   0.00000  Uiso   1.00
C534   C     0.18551   0.28656   0.89578   0.00000  Uiso   1.00
H535   H     0.09394   0.21677   0.61924   0.00000  Uiso   1.00
H536   H     0.20215   0.31378   0.87661   0.00000  Uiso   1.00
C537   C     0.11904   0.23516   0.55022   0.00000  Uiso   1.00
C538   C     0.18089   0.29097   0.94568   0.00000  Uiso   1.00
C539   C     0.16000   0.25389   0.52638   0.00000  Uiso   1.00
C540   C     0.16048   0.25488   0.97186   0.00000  Uiso   1.00
N541   N     0.23781   0.11371   0.81596   0.00000  Uiso   1.00
O542   O     0.26532   0.14625   0.80012   0.00000  Uiso   1.00
O543   O     0.25219   0.09656   0.85853   0.00000  Uiso   1.00
N544   N     0.20626   0.39266   0.67654   0.00000  Uiso   1.00
O545   O     0.17748   0.37850   0.63821   0.00000  Uiso   1.00
O546   O     0.25480   0.40193   0.67405   0.00000  Uiso   1.00
N547   N     0.08993   0.11975   0.68633   0.00000  Uiso   1.00
O548   O     0.09185   0.11840   0.63999   0.00000  Uiso   1.00
O549   O     0.05740   0.14530   0.70293   0.00000  Uiso   1.00
N550   N     0.10430   0.37638   0.81485   0.00000  Uiso   1.00
O551   O     0.06695   0.34999   0.79667   0.00000  Uiso   1.00
O552   O     0.11577   0.37809   0.86153   0.00000  Uiso   1.00
C553   C     0.07949   0.02332   0.68770   0.00000  Uiso   1.00
H554   H     0.09725   0.00348   0.66149   0.00000  Uiso   1.00
H555   H     0.05742   0.00074   0.71010   0.00000  Uiso   1.00
H556   H     0.05129   0.04531   0.66710   0.00000  Uiso   1.00
C557   C     0.10093   0.47067   0.82197   0.00000  Uiso   1.00
H558   H     0.11981   0.46386   0.85914   0.00000  Uiso   1.00
H559   H     0.09820   0.00705   0.81733   0.00000  Uiso   1.00
H560   H     0.06090   0.45664   0.81819   0.00000  Uiso   1.00
C561   C     0.24908   0.29733   0.63201   0.00000  Uiso   1.00
H562   H     0.24074   0.31004   0.66667   0.00000  Uiso   1.00
H563   H     0.28412   0.27749   0.63628   0.00000  Uiso   1.00
H564   H     0.25737   0.32729   0.61009   0.00000  Uiso   1.00
C565   C     0.11718   0.17634   0.87051   0.00000  Uiso   1.00
H566   H     0.09295   0.18615   0.83690   0.00000  Uiso   1.00
H567   H     0.14594   0.15171   0.86403   0.00000  Uiso   1.00
H568   H     0.09040   0.15935   0.89342   0.00000  Uiso   1.00
N569   N     0.07068   0.22150   0.52366   0.00000  Uiso   1.00
O570   O     0.05096   0.24470   0.98644   0.00000  Uiso   1.00
O571   O     0.04277   0.18974   0.54052   0.00000  Uiso   1.00
N572   N     0.19454   0.33284   0.96799   0.00000  Uiso   1.00
O573   O     0.16649   0.34840   0.99878   0.00000  Uiso   1.00
O574   O     0.23047   0.35829   0.95272   0.00000  Uiso   1.00
O575   O     0.50000   0.18573   0.79072   0.00000  Uiso   1.00
O576   O     0.50000   0.31428   0.70929   0.00000  Uiso   1.00
O577   O     0.50000   0.18573   0.70928   0.00000  Uiso   1.00
O578   O     0.50000   0.31427   0.79072   0.00000  Uiso   1.00
C579   C     0.49949   0.16507   0.75041   0.00000  Uiso   1.00
C580   C     0.49809   0.33510   0.74936   0.00000  Uiso   1.00
O581   O     0.42495   0.25000   0.78132   0.00000  Uiso   1.00
O582   O     0.57505   0.25001   0.71868   0.00000  Uiso   1.00
O583   O     0.42495   0.25000   0.69989   0.00000  Uiso   1.00
O584   O     0.57505   0.25000   0.80012   0.00000  Uiso   1.00
C585   C     0.40140   0.24904   0.73787   0.00000  Uiso   1.00
C586   C     0.59864   0.25009   0.76225   0.00000  Uiso   1.00
Cu587  Cu    0.50000   0.25000   0.79822   0.00000  Uiso   1.00
Cu588  Cu    0.50000   0.25001   0.70179   0.00000  Uiso   1.00
C589   C     0.34632   0.24635   0.73150   0.00000  Uiso   1.00
C590   C     0.65384   0.25099   0.76914   0.00000  Uiso   1.00
H591   H     0.66032   0.23980   0.69566   0.00000  Uiso   1.00
H592   H     0.34001   0.25617   0.80542   0.00000  Uiso   1.00
C593   C     0.52633   0.04638   0.78464   0.00000  Uiso   1.00
C594   C     0.51426   0.45641   0.71760   0.00000  Uiso   1.00
H595   H     0.55299   0.02732   0.80913   0.00000  Uiso   1.00
H596   H     0.53246   0.47700   0.69179   0.00000  Uiso   1.00
C597   C     0.53064   0.09242   0.78420   0.00000  Uiso   1.00
C598   C     0.51537   0.41070   0.71461   0.00000  Uiso   1.00
C599   C     0.49654   0.11674   0.75113   0.00000  Uiso   1.00
C600   C     0.49254   0.38357   0.74848   0.00000  Uiso   1.00
C601   C     0.45842   0.09469   0.71905   0.00000  Uiso   1.00
C602   C     0.46585   0.40339   0.78348   0.00000  Uiso   1.00
C603   C     0.45452   0.04812   0.71991   0.00000  Uiso   1.00
C604   C     0.46424   0.44989   0.78565   0.00000  Uiso   1.00
C605   C     0.48939   0.02441   0.75259   0.00000  Uiso   1.00
C606   C     0.48928   0.47603   0.75258   0.00000  Uiso   1.00
C607   C     0.53678   0.26982   0.55573   0.00000  Uiso   1.00
C608   C     0.47687   0.21728   0.94568   0.00000  Uiso   1.00
H609   H     0.56940   0.28334   0.53914   0.00000  Uiso   1.00
H610   H     0.46243   0.18868   0.96455   0.00000  Uiso   1.00
C611   C     0.53833   0.27077   0.60626   0.00000  Uiso   1.00
C612   C     0.47720   0.21594   0.89531   0.00000  Uiso   1.00
N613   N     0.50000   0.25001   0.62935   0.00000  Uiso   1.00
N614   N     0.50000   0.24999   0.87066   0.00000  Uiso   1.00
C615   C     0.45811   0.23191   0.60155   0.00000  Uiso   1.00
C616   C     0.51884   0.28656   0.89578   0.00000  Uiso   1.00
H617   H     0.42728   0.21677   0.61924   0.00000  Uiso   1.00
H618   H     0.53548   0.31378   0.87661   0.00000  Uiso   1.00
C619   C     0.45237   0.23516   0.55022   0.00000  Uiso   1.00
C620   C     0.51422   0.29097   0.94568   0.00000  Uiso   1.00
C621   C     0.49334   0.25389   0.52638   0.00000  Uiso   1.00
C622   C     0.49381   0.25488   0.97186   0.00000  Uiso   1.00
N623   N     0.57114   0.11371   0.81596   0.00000  Uiso   1.00
O624   O     0.59866   0.14625   0.80012   0.00000  Uiso   1.00
O625   O     0.58552   0.09656   0.85853   0.00000  Uiso   1.00
N626   N     0.53959   0.39266   0.67654   0.00000  Uiso   1.00
O627   O     0.51082   0.37850   0.63821   0.00000  Uiso   1.00
O628   O     0.58813   0.40193   0.67405   0.00000  Uiso   1.00
N629   N     0.42326   0.11975   0.68633   0.00000  Uiso   1.00
O630   O     0.42519   0.11840   0.63999   0.00000  Uiso   1.00
O631   O     0.39074   0.14530   0.70293   0.00000  Uiso   1.00
N632   N     0.43763   0.37638   0.81485   0.00000  Uiso   1.00
O633   O     0.40028   0.34999   0.79667   0.00000  Uiso   1.00
O634   O     0.44910   0.37809   0.86153   0.00000  Uiso   1.00
C635   C     0.41283   0.02332   0.68770   0.00000  Uiso   1.00
H636   H     0.43059   0.00348   0.66149   0.00000  Uiso   1.00
H637   H     0.39076   0.00074   0.71010   0.00000  Uiso   1.00
H638   H     0.38463   0.04531   0.66710   0.00000  Uiso   1.00
C639   C     0.43426   0.47067   0.82197   0.00000  Uiso   1.00
H640   H     0.45314   0.46386   0.85914   0.00000  Uiso   1.00
H641   H     0.43154   0.00705   0.81733   0.00000  Uiso   1.00
H642   H     0.39424   0.45664   0.81819   0.00000  Uiso   1.00
C643   C     0.58241   0.29733   0.63201   0.00000  Uiso   1.00
H644   H     0.57408   0.31004   0.66667   0.00000  Uiso   1.00
H645   H     0.61746   0.27749   0.63628   0.00000  Uiso   1.00
H646   H     0.59070   0.32729   0.61009   0.00000  Uiso   1.00
C647   C     0.45052   0.17634   0.87051   0.00000  Uiso   1.00
H648   H     0.42629   0.18615   0.83690   0.00000  Uiso   1.00
H649   H     0.47928   0.15171   0.86403   0.00000  Uiso   1.00
H650   H     0.42373   0.15935   0.89342   0.00000  Uiso   1.00
N651   N     0.40401   0.22150   0.52366   0.00000  Uiso   1.00
O652   O     0.38429   0.24470   0.98644   0.00000  Uiso   1.00
O653   O     0.37611   0.18974   0.54052   0.00000  Uiso   1.00
N654   N     0.52787   0.33284   0.96799   0.00000  Uiso   1.00
O655   O     0.49982   0.34840   0.99878   0.00000  Uiso   1.00
O656   O     0.56381   0.35829   0.95272   0.00000  Uiso   1.00
O657   O     0.83334   0.18573   0.79072   0.00000  Uiso   1.00
O658   O     0.83333   0.31428   0.70929   0.00000  Uiso   1.00
O659   O     0.83334   0.18573   0.70928   0.00000  Uiso   1.00
O660   O     0.83333   0.31427   0.79072   0.00000  Uiso   1.00
C661   C     0.83282   0.16507   0.75041   0.00000  Uiso   1.00
C662   C     0.83143   0.33510   0.74936   0.00000  Uiso   1.00
O663   O     0.75828   0.25000   0.78132   0.00000  Uiso   1.00
O664   O     0.90839   0.25001   0.71868   0.00000  Uiso   1.00
O665   O     0.75828   0.25000   0.69989   0.00000  Uiso   1.00
O666   O     0.90839   0.25000   0.80012   0.00000  Uiso   1.00
C667   C     0.73473   0.24904   0.73787   0.00000  Uiso   1.00
C668   C     0.93198   0.25009   0.76225   0.00000  Uiso   1.00
Cu669  Cu    0.83333   0.25000   0.79822   0.00000  Uiso   1.00
Cu670  Cu    0.83333   0.25001   0.70179   0.00000  Uiso   1.00
C671   C     0.67966   0.24635   0.73150   0.00000  Uiso   1.00
C672   C     0.98717   0.25099   0.76914   0.00000  Uiso   1.00
H673   H     0.99366   0.23980   0.69566   0.00000  Uiso   1.00
H674   H     0.67335   0.25617   0.80542   0.00000  Uiso   1.00
C675   C     0.85967   0.04638   0.78464   0.00000  Uiso   1.00
C676   C     0.84759   0.45641   0.71760   0.00000  Uiso   1.00
H677   H     0.88632   0.02732   0.80913   0.00000  Uiso   1.00
H678   H     0.86579   0.47700   0.69179   0.00000  Uiso   1.00
C679   C     0.86397   0.09242   0.78420   0.00000  Uiso   1.00
C680   C     0.84871   0.41070   0.71461   0.00000  Uiso   1.00
C681   C     0.82987   0.11674   0.75113   0.00000  Uiso   1.00
C682   C     0.82587   0.38357   0.74848   0.00000  Uiso   1.00
C683   C     0.79175   0.09469   0.71905   0.00000  Uiso   1.00
C684   C     0.79918   0.40339   0.78348   0.00000  Uiso   1.00
C685   C     0.78785   0.04812   0.71991   0.00000  Uiso   1.00
C686   C     0.79757   0.44989   0.78565   0.00000  Uiso   1.00
C687   C     0.82273   0.02441   0.75259   0.00000  Uiso   1.00
C688   C     0.82262   0.47603   0.75258   0.00000  Uiso   1.00
C689   C     0.87012   0.26982   0.55573   0.00000  Uiso   1.00
C690   C     0.81020   0.21728   0.94568   0.00000  Uiso   1.00
H691   H     0.90273   0.28334   0.53914   0.00000  Uiso   1.00
H692   H     0.79576   0.18868   0.96455   0.00000  Uiso   1.00
C693   C     0.87166   0.27077   0.60626   0.00000  Uiso   1.00
C694   C     0.81053   0.21594   0.89531   0.00000  Uiso   1.00
N695   N     0.83333   0.25001   0.62935   0.00000  Uiso   1.00
N696   N     0.83333   0.24999   0.87066   0.00000  Uiso   1.00
C697   C     0.79144   0.23191   0.60155   0.00000  Uiso   1.00
C698   C     0.85218   0.28656   0.89578   0.00000  Uiso   1.00
H699   H     0.76061   0.21677   0.61924   0.00000  Uiso   1.00
H700   H     0.86881   0.31378   0.87661   0.00000  Uiso   1.00
C701   C     0.78570   0.23516   0.55022   0.00000  Uiso   1.00
C702   C     0.84756   0.29097   0.94568   0.00000  Uiso   1.00
C703   C     0.82667   0.25389   0.52638   0.00000  Uiso   1.00
C704   C     0.82714   0.25488   0.97186   0.00000  Uiso   1.00
N705   N     0.90448   0.11371   0.81596   0.00000  Uiso   1.00
O706   O     0.93199   0.14625   0.80012   0.00000  Uiso   1.00
O707   O     0.91886   0.09656   0.85853   0.00000  Uiso   1.00
N708   N     0.87293   0.39266   0.67654   0.00000  Uiso   1.00
O709   O     0.84415   0.37850   0.63821   0.00000  Uiso   1.00
O710   O     0.92147   0.40193   0.67405   0.00000  Uiso   1.00
N711   N     0.75660   0.11975   0.68633   0.00000  Uiso   1.00
O712   O     0.75852   0.11840   0.63999   0.00000  Uiso   1.00
O713   O     0.72407   0.14530   0.70293   0.00000  Uiso   1.00
N714   N     0.77096   0.37638   0.81485   0.00000  Uiso   1.00
O715   O     0.73361   0.34999   0.79667   0.00000  Uiso   1.00
O716   O     0.78244   0.37809   0.86153   0.00000  Uiso   1.00
C717   C     0.74616   0.02332   0.68770   0.00000  Uiso   1.00
H718   H     0.76392   0.00348   0.66149   0.00000  Uiso   1.00
H719   H     0.72409   0.00074   0.71010   0.00000  Uiso   1.00
H720   H     0.71796   0.04531   0.66710   0.00000  Uiso   1.00
C721   C     0.76760   0.47067   0.82197   0.00000  Uiso   1.00
H722   H     0.78648   0.46386   0.85914   0.00000  Uiso   1.00
H723   H     0.76487   0.00705   0.81733   0.00000  Uiso   1.00
H724   H     0.72757   0.45664   0.81819   0.00000  Uiso   1.00
C725   C     0.91575   0.29733   0.63201   0.00000  Uiso   1.00
H726   H     0.90741   0.31004   0.66667   0.00000  Uiso   1.00
H727   H     0.95079   0.27749   0.63628   0.00000  Uiso   1.00
H728   H     0.92404   0.32729   0.61009   0.00000  Uiso   1.00
C729   C     0.78385   0.17634   0.87051   0.00000  Uiso   1.00
H730   H     0.75962   0.18615   0.83690   0.00000  Uiso   1.00
H731   H     0.81261   0.15171   0.86403   0.00000  Uiso   1.00
H732   H     0.75706   0.15935   0.89342   0.00000  Uiso   1.00
N733   N     0.73734   0.22150   0.52366   0.00000  Uiso   1.00
O734   O     0.71762   0.24470   0.98644   0.00000  Uiso   1.00
O735   O     0.70944   0.18974   0.54052   0.00000  Uiso   1.00
N736   N     0.86120   0.33284   0.96799   0.00000  Uiso   1.00
O737   O     0.83315   0.34840   0.99878   0.00000  Uiso   1.00
O738   O     0.89714   0.35829   0.95272   0.00000  Uiso   1.00
O739   O     0.16667   0.68573   0.79072   0.00000  Uiso   1.00
O740   O     0.16666   0.81428   0.70929   0.00000  Uiso   1.00
O741   O     0.16667   0.68573   0.70928   0.00000  Uiso   1.00
O742   O     0.16666   0.81427   0.79072   0.00000  Uiso   1.00
C743   C     0.16616   0.66507   0.75041   0.00000  Uiso   1.00
C744   C     0.16476   0.83510   0.74936   0.00000  Uiso   1.00
O745   O     0.09161   0.75000   0.78132   0.00000  Uiso   1.00
O746   O     0.24172   0.75001   0.71868   0.00000  Uiso   1.00
O747   O     0.09161   0.75000   0.69989   0.00000  Uiso   1.00
O748   O     0.24172   0.75000   0.80012   0.00000  Uiso   1.00
C749   C     0.06807   0.74904   0.73787   0.00000  Uiso   1.00
C750   C     0.26531   0.75009   0.76225   0.00000  Uiso   1.00
Cu751  Cu    0.16667   0.75000   0.79822   0.00000  Uiso   1.00
Cu752  Cu    0.16667   0.75001   0.70179   0.00000  Uiso   1.00
C753   C     0.01299   0.74635   0.73150   0.00000  Uiso   1.00
C754   C     0.32051   0.75099   0.76914   0.00000  Uiso   1.00
H755   H     0.32699   0.73980   0.69566   0.00000  Uiso   1.00
H756   H     0.00668   0.75617   0.80542   0.00000  Uiso   1.00
C757   C     0.19300   0.54638   0.78464   0.00000  Uiso   1.00
C758   C     0.18093   0.95641   0.71760   0.00000  Uiso   1.00
H759   H     0.21966   0.52732   0.80913   0.00000  Uiso   1.00
H760   H     0.19912   0.97700   0.69179   0.00000  Uiso   1.00
C761   C     0.19731   0.59242   0.78420   0.00000  Uiso   1.00
C762   C     0.18204   0.91070   0.71461   0.00000  Uiso   1.00
C763   C     0.16321   0.61674   0.75113   0.00000  Uiso   1.00
C764   C     0.15921   0.88357   0.74848   0.00000  Uiso   1.00
C765   C     0.12508   0.59469   0.71905   0.00000  Uiso   1.00
C766   C     0.13252   0.90339   0.78348   0.00000  Uiso   1.00
C767   C     0.12119   0.54812   0.71991   0.00000  Uiso   1.00
C768   C     0.13091   0.94989   0.78565   0.00000  Uiso   1.00
C769   C     0.15606   0.52441   0.75259   0.00000  Uiso   1.00
C770   C     0.15595   0.97603   0.75258   0.00000  Uiso   1.00
C771   C     0.20345   0.76982   0.55573   0.00000  Uiso   1.00
C772   C     0.14353   0.71728   0.94568   0.00000  Uiso   1.00
H773   H     0.23606   0.78334   0.53914   0.00000  Uiso   1.00
H774   H     0.12909   0.68868   0.96455   0.00000  Uiso   1.00
C775   C     0.20499   0.77077   0.60626   0.00000  Uiso   1.00
C776   C     0.14386   0.71594   0.89531   0.00000  Uiso   1.00
N777   N     0.16667   0.75001   0.62935   0.00000  Uiso   1.00
N778   N     0.16667   0.74999   0.87066   0.00000  Uiso   1.00
C779   C     0.12478   0.73191   0.60155   0.00000  Uiso   1.00
C780   C     0.18551   0.78656   0.89578   0.00000  Uiso   1.00
H781   H     0.09394   0.71677   0.61924   0.00000  Uiso   1.00
H782   H     0.20215   0.81378   0.87661   0.00000  Uiso   1.00
C783   C     0.11904   0.73516   0.55022   0.00000  Uiso   1.00
C784   C     0.18089   0.79097   0.94568   0.00000  Uiso   1.00
C785   C     0.16000   0.75389   0.52638   0.00000  Uiso   1.00
C786   C     0.16048   0.75488   0.97186   0.00000  Uiso   1.00
N787   N     0.23781   0.61371   0.81596   0.00000  Uiso   1.00
O788   O     0.26532   0.64625   0.80012   0.00000  Uiso   1.00
O789   O     0.25219   0.59656   0.85853   0.00000  Uiso   1.00
N790   N     0.20626   0.89266   0.67654   0.00000  Uiso   1.00
O791   O     0.17748   0.87850   0.63821   0.00000  Uiso   1.00
O792   O     0.25480   0.90193   0.67405   0.00000  Uiso   1.00
N793   N     0.08993   0.61975   0.68633   0.00000  Uiso   1.00
O794   O     0.09185   0.61840   0.63999   0.00000  Uiso   1.00
O795   O     0.05740   0.64530   0.70293   0.00000  Uiso   1.00
N796   N     0.10430   0.87638   0.81485   0.00000  Uiso   1.00
O797   O     0.06695   0.84999   0.79667   0.00000  Uiso   1.00
O798   O     0.11577   0.87809   0.86153   0.00000  Uiso   1.00
C799   C     0.07949   0.52332   0.68770   0.00000  Uiso   1.00
H800   H     0.09725   0.50348   0.66149   0.00000  Uiso   1.00
H801   H     0.05742   0.50074   0.71010   0.00000  Uiso   1.00
H802   H     0.05129   0.54531   0.66710   0.00000  Uiso   1.00
C803   C     0.10093   0.97067   0.82197   0.00000  Uiso   1.00
H804   H     0.11981   0.96386   0.85914   0.00000  Uiso   1.00
H805   H     0.09820   0.50705   0.81733   0.00000  Uiso   1.00
H806   H     0.06090   0.95664   0.81819   0.00000  Uiso   1.00
C807   C     0.24908   0.79733   0.63201   0.00000  Uiso   1.00
H808   H     0.24074   0.81004   0.66667   0.00000  Uiso   1.00
H809   H     0.28412   0.77749   0.63628   0.00000  Uiso   1.00
H810   H     0.25737   0.82729   0.61009   0.00000  Uiso   1.00
C811   C     0.11718   0.67634   0.87051   0.00000  Uiso   1.00
H812   H     0.09295   0.68615   0.83690   0.00000  Uiso   1.00
H813   H     0.14594   0.65171   0.86403   0.00000  Uiso   1.00
H814   H     0.09040   0.65935   0.89342   0.00000  Uiso   1.00
N815   N     0.07068   0.72150   0.52366   0.00000  Uiso   1.00
O816   O     0.05096   0.74470   0.98644   0.00000  Uiso   1.00
O817   O     0.04277   0.68974   0.54052   0.00000  Uiso   1.00
N818   N     0.19454   0.83284   0.96799   0.00000  Uiso   1.00
O819   O     0.16649   0.84840   0.99878   0.00000  Uiso   1.00
O820   O     0.23047   0.85829   0.95272   0.00000  Uiso   1.00
O821   O     0.50000   0.68573   0.79072   0.00000  Uiso   1.00
O822   O     0.50000   0.81428   0.70929   0.00000  Uiso   1.00
O823   O     0.50000   0.68573   0.70928   0.00000  Uiso   1.00
O824   O     0.50000   0.81427   0.79072   0.00000  Uiso   1.00
C825   C     0.49949   0.66507   0.75041   0.00000  Uiso   1.00
C826   C     0.49809   0.83510   0.74936   0.00000  Uiso   1.00
O827   O     0.42495   0.75000   0.78132   0.00000  Uiso   1.00
O828   O     0.57505   0.75001   0.71868   0.00000  Uiso   1.00
O829   O     0.42495   0.75000   0.69989   0.00000  Uiso   1.00
O830   O     0.57505   0.75000   0.80012   0.00000  Uiso   1.00
C831   C     0.40140   0.74904   0.73787   0.00000  Uiso   1.00
C832   C     0.59864   0.75009   0.76225   0.00000  Uiso   1.00
Cu833  Cu    0.50000   0.75000   0.79822   0.00000  Uiso   1.00
Cu834  Cu    0.50000   0.75001   0.70179   0.00000  Uiso   1.00
C835   C     0.34632   0.74635   0.73150   0.00000  Uiso   1.00
C836   C     0.65384   0.75099   0.76914   0.00000  Uiso   1.00
H837   H     0.66032   0.73980   0.69566   0.00000  Uiso   1.00
H838   H     0.34001   0.75617   0.80542   0.00000  Uiso   1.00
C839   C     0.52633   0.54638   0.78464   0.00000  Uiso   1.00
C840   C     0.51426   0.95641   0.71760   0.00000  Uiso   1.00
H841   H     0.55299   0.52732   0.80913   0.00000  Uiso   1.00
H842   H     0.53246   0.97700   0.69179   0.00000  Uiso   1.00
C843   C     0.53064   0.59242   0.78420   0.00000  Uiso   1.00
C844   C     0.51537   0.91070   0.71461   0.00000  Uiso   1.00
C845   C     0.49654   0.61674   0.75113   0.00000  Uiso   1.00
C846   C     0.49254   0.88357   0.74848   0.00000  Uiso   1.00
C847   C     0.45842   0.59469   0.71905   0.00000  Uiso   1.00
C848   C     0.46585   0.90339   0.78348   0.00000  Uiso   1.00
C849   C     0.45452   0.54812   0.71991   0.00000  Uiso   1.00
C850   C     0.46424   0.94989   0.78565   0.00000  Uiso   1.00
C851   C     0.48939   0.52441   0.75259   0.00000  Uiso   1.00
C852   C     0.48928   0.97603   0.75258   0.00000  Uiso   1.00
C853   C     0.53678   0.76982   0.55573   0.00000  Uiso   1.00
C854   C     0.47687   0.71728   0.94568   0.00000  Uiso   1.00
H855   H     0.56940   0.78334   0.53914   0.00000  Uiso   1.00
H856   H     0.46243   0.68868   0.96455   0.00000  Uiso   1.00
C857   C     0.53833   0.77077   0.60626   0.00000  Uiso   1.00
C858   C     0.47720   0.71594   0.89531   0.00000  Uiso   1.00
N859   N     0.50000   0.75001   0.62935   0.00000  Uiso   1.00
N860   N     0.50000   0.74999   0.87066   0.00000  Uiso   1.00
C861   C     0.45811   0.73191   0.60155   0.00000  Uiso   1.00
C862   C     0.51884   0.78656   0.89578   0.00000  Uiso   1.00
H863   H     0.42728   0.71677   0.61924   0.00000  Uiso   1.00
H864   H     0.53548   0.81378   0.87661   0.00000  Uiso   1.00
C865   C     0.45237   0.73516   0.55022   0.00000  Uiso   1.00
C866   C     0.51422   0.79097   0.94568   0.00000  Uiso   1.00
C867   C     0.49334   0.75389   0.52638   0.00000  Uiso   1.00
C868   C     0.49381   0.75488   0.97186   0.00000  Uiso   1.00
N869   N     0.57114   0.61371   0.81596   0.00000  Uiso   1.00
O870   O     0.59866   0.64625   0.80012   0.00000  Uiso   1.00
O871   O     0.58552   0.59656   0.85853   0.00000  Uiso   1.00
N872   N     0.53959   0.89266   0.67654   0.00000  Uiso   1.00
O873   O     0.51082   0.87850   0.63821   0.00000  Uiso   1.00
O874   O     0.58813   0.90193   0.67405   0.00000  Uiso   1.00
N875   N     0.42326   0.61975   0.68633   0.00000  Uiso   1.00
O876   O     0.42519   0.61840   0.63999   0.00000  Uiso   1.00
O877   O     0.39074   0.64530   0.70293   0.00000  Uiso   1.00
N878   N     0.43763   0.87638   0.81485   0.00000  Uiso   1.00
O879   O     0.40028   0.84999   0.79667   0.00000  Uiso   1.00
O880   O     0.44910   0.87809   0.86153   0.00000  Uiso   1.00
C881   C     0.41283   0.52332   0.68770   0.00000  Uiso   1.00
H882   H     0.43059   0.50348   0.66149   0.00000  Uiso   1.00
H883   H     0.39076   0.50074   0.71010   0.00000  Uiso   1.00
H884   H     0.38463   0.54531   0.66710   0.00000  Uiso   1.00
C885   C     0.43426   0.97067   0.82197   0.00000  Uiso   1.00
H886   H     0.45314   0.96386   0.85914   0.00000  Uiso   1.00
H887   H     0.43154   0.50705   0.81733   0.00000  Uiso   1.00
H888   H     0.39424   0.95664   0.81819   0.00000  Uiso   1.00
C889   C     0.58241   0.79733   0.63201   0.00000  Uiso   1.00
H890   H     0.57408   0.81004   0.66667   0.00000  Uiso   1.00
H891   H     0.61746   0.77749   0.63628   0.00000  Uiso   1.00
H892   H     0.59070   0.82729   0.61009   0.00000  Uiso   1.00
C893   C     0.45052   0.67634   0.87051   0.00000  Uiso   1.00
H894   H     0.42629   0.68615   0.83690   0.00000  Uiso   1.00
H895   H     0.47928   0.65171   0.86403   0.00000  Uiso   1.00
H896   H     0.42373   0.65935   0.89342   0.00000  Uiso   1.00
N897   N     0.40401   0.72150   0.52366   0.00000  Uiso   1.00
O898   O     0.38429   0.74470   0.98644   0.00000  Uiso   1.00
O899   O     0.37611   0.68974   0.54052   0.00000  Uiso   1.00
N900   N     0.52787   0.83284   0.96799   0.00000  Uiso   1.00
O901   O     0.49982   0.84840   0.99878   0.00000  Uiso   1.00
O902   O     0.56381   0.85829   0.95272   0.00000  Uiso   1.00
O903   O     0.83334   0.68573   0.79072   0.00000  Uiso   1.00
O904   O     0.83333   0.81428   0.70929   0.00000  Uiso   1.00
O905   O     0.83334   0.68573   0.70928   0.00000  Uiso   1.00
O906   O     0.83333   0.81427   0.79072   0.00000  Uiso   1.00
C907   C     0.83282   0.66507   0.75041   0.00000  Uiso   1.00
C908   C     0.83143   0.83510   0.74936   0.00000  Uiso   1.00
O909   O     0.75828   0.75000   0.78132   0.00000  Uiso   1.00
O910   O     0.90839   0.75001   0.71868   0.00000  Uiso   1.00
O911   O     0.75828   0.75000   0.69989   0.00000  Uiso   1.00
O912   O     0.90839   0.75000   0.80012   0.00000  Uiso   1.00
C913   C     0.73473   0.74904   0.73787   0.00000  Uiso   1.00
C914   C     0.93198   0.75009   0.76225   0.00000  Uiso   1.00
Cu915  Cu    0.83333   0.75000   0.79822   0.00000  Uiso   1.00
Cu916  Cu    0.83333   0.75001   0.70179   0.00000  Uiso   1.00
C917   C     0.67966   0.74635   0.73150   0.00000  Uiso   1.00
C918   C     0.98717   0.75099   0.76914   0.00000  Uiso   1.00
H919   H     0.99366   0.73980   0.69566   0.00000  Uiso   1.00
H920   H     0.67335   0.75617   0.80542   0.00000  Uiso   1.00
C921   C     0.85967   0.54638   0.78464   0.00000  Uiso   1.00
C922   C     0.84759   0.95641   0.71760   0.00000  Uiso   1.00
H923   H     0.88632   0.52732   0.80913   0.00000  Uiso   1.00
H924   H     0.86579   0.97700   0.69179   0.00000  Uiso   1.00
C925   C     0.86397   0.59242   0.78420   0.00000  Uiso   1.00
C926   C     0.84871   0.91070   0.71461   0.00000  Uiso   1.00
C927   C     0.82987   0.61674   0.75113   0.00000  Uiso   1.00
C928   C     0.82587   0.88357   0.74848   0.00000  Uiso   1.00
C929   C     0.79175   0.59469   0.71905   0.00000  Uiso   1.00
C930   C     0.79918   0.90339   0.78348   0.00000  Uiso   1.00
C931   C     0.78785   0.54812   0.71991   0.00000  Uiso   1.00
C932   C     0.79757   0.94989   0.78565   0.00000  Uiso   1.00
C933   C     0.82273   0.52441   0.75259   0.00000  Uiso   1.00
C934   C     0.82262   0.97603   0.75258   0.00000  Uiso   1.00
C935   C     0.87012   0.76982   0.55573   0.00000  Uiso   1.00
C936   C     0.81020   0.71728   0.94568   0.00000  Uiso   1.00
H937   H     0.90273   0.78334   0.53914   0.00000  Uiso   1.00
H938   H     0.79576   0.68868   0.96455   0.00000  Uiso   1.00
C939   C     0.87166   0.77077   0.60626   0.00000  Uiso   1.00
C940   C     0.81053   0.71594   0.89531   0.00000  Uiso   1.00
N941   N     0.83333   0.75001   0.62935   0.00000  Uiso   1.00
N942   N     0.83333   0.74999   0.87066   0.00000  Uiso   1.00
C943   C     0.79144   0.73191   0.60155   0.00000  Uiso   1.00
C944   C     0.85218   0.78656   0.89578   0.00000  Uiso   1.00
H945   H     0.76061   0.71677   0.61924   0.00000  Uiso   1.00
H946   H     0.86881   0.81378   0.87661   0.00000  Uiso   1.00
C947   C     0.78570   0.73516   0.55022   0.00000  Uiso   1.00
C948   C     0.84756   0.79097   0.94568   0.00000  Uiso   1.00
C949   C     0.82667   0.75389   0.52638   0.00000  Uiso   1.00
C950   C     0.82714   0.75488   0.97186   0.00000  Uiso   1.00
N951   N     0.90448   0.61371   0.81596   0.00000  Uiso   1.00
O952   O     0.93199   0.64625   0.80012   0.00000  Uiso   1.00
O953   O     0.91886   0.59656   0.85853   0.00000  Uiso   1.00
N954   N     0.87293   0.89266   0.67654   0.00000  Uiso   1.00
O955   O     0.84415   0.87850   0.63821   0.00000  Uiso   1.00
O956   O     0.92147   0.90193   0.67405   0.00000  Uiso   1.00
N957   N     0.75660   0.61975   0.68633   0.00000  Uiso   1.00
O958   O     0.75852   0.61840   0.63999   0.00000  Uiso   1.00
O959   O     0.72407   0.64530   0.70293   0.00000  Uiso   1.00
N960   N     0.77096   0.87638   0.81485   0.00000  Uiso   1.00
O961   O     0.73361   0.84999   0.79667   0.00000  Uiso   1.00
O962   O     0.78244   0.87809   0.86153   0.00000  Uiso   1.00
C963   C     0.74616   0.52332   0.68770   0.00000  Uiso   1.00
H964   H     0.76392   0.50348   0.66149   0.00000  Uiso   1.00
H965   H     0.72409   0.50074   0.71010   0.00000  Uiso   1.00
H966   H     0.71796   0.54531   0.66710   0.00000  Uiso   1.00
C967   C     0.76760   0.97067   0.82197   0.00000  Uiso   1.00
H968   H     0.78648   0.96386   0.85914   0.00000  Uiso   1.00
H969   H     0.76487   0.50705   0.81733   0.00000  Uiso   1.00
H970   H     0.72757   0.95664   0.81819   0.00000  Uiso   1.00
C971   C     0.91575   0.79733   0.63201   0.00000  Uiso   1.00
H972   H     0.90741   0.81004   0.66667   0.00000  Uiso   1.00
H973   H     0.95079   0.77749   0.63628   0.00000  Uiso   1.00
H974   H     0.92404   0.82729   0.61009   0.00000  Uiso   1.00
C975   C     0.78385   0.67634   0.87051   0.00000  Uiso   1.00
H976   H     0.75962   0.68615   0.83690   0.00000  Uiso   1.00
H977   H     0.81261   0.65171   0.86403   0.00000  Uiso   1.00
H978   H     0.75706   0.65935   0.89342   0.00000  Uiso   1.00
N979   N     0.73734   0.72150   0.52366   0.00000  Uiso   1.00
O980   O     0.71762   0.74470   0.98644   0.00000  Uiso   1.00
O981   O     0.70944   0.68974   0.54052   0.00000  Uiso   1.00
N982   N     0.86120   0.83284   0.96799   0.00000  Uiso   1.00
O983   O     0.83315   0.84840   0.99878   0.00000  Uiso   1.00
O984   O     0.89714   0.85829   0.95272   0.00000  Uiso   1.00
loop_
_geom_bond_atom_site_label_1
_geom_bond_atom_site_label_2
_geom_bond_distance
_geom_bond_site_symmetry_2
_ccdc_geom_bond_type
O1     C5      1.296   .     A
O1     Cu13    1.959   .     S
O2     C6      1.302   .     A
O2     Cu14    1.959   .     S
O3     Cu14    1.949   .     S
O3     C5      1.295   .     A
O4     Cu13    1.949   .     S
O4     C6      1.298   .     A
C5     C25     1.460   .     S
C6     C26     1.476   .     S
O7     C11     1.290   .     A
O7     Cu13    1.962   .     S
O8     C12     1.293   .     A
O8     Cu14    1.962   .     S
O9     Cu14    1.958   .     S
O9     C11     1.289   .     A
O10    C12     1.287   .     A
O10    Cu13    1.958   .     S
C11    C15     1.430   .     S
C12    C16     1.432   .     S
Cu13   N40     2.020   .     S
Cu13   Cu14    2.689   .     S
Cu14   N39     2.020   .     S
C15    C180    1.329   1_455 S
C15    H181    1.082   1_455 S
C16    C97     1.329   .     S
C16    H100    1.088   .     S
H17    C97     1.082   .     S
H18    C180    1.088   1_455 S
C19    C31     1.395   .     A
C19    H21     1.084   .     S
C19    C23     1.393   .     A
C20    C24     1.388   .     A
C20    H22     1.085   .     S
C20    C32     1.392   .     A
C23    N49     1.439   .     S
C23    C25     1.413   .     A
C24    N52     1.429   .     S
C24    C26     1.412   .     A
C25    C27     1.415   .     A
C26    C28     1.422   .     A
C27    C29     1.408   .     A
C27    N55     1.435   .     S
C28    N58     1.437   .     S
C28    C30     1.411   .     A
C29    C31     1.409   .     A
C29    C61     1.514   .     S
C30    C32     1.409   .     A
C30    C65     1.514   .     S
C31    C278    1.462   1_545 S
C32    C277    1.462   .     S
C33    C37     1.405   .     A
C33    C47     1.395   .     A
C33    H35     1.084   .     S
C34    C38     1.407   .     A
C34    H36     1.084   .     S
C34    C48     1.395   .     A
C37    C69     1.500   .     S
C37    N39     1.383   .     A
C38    N40     1.384   .     A
C38    C73     1.504   .     S
N39    C41     1.368   .     A
N40    C42     1.367   .     A
C41    H43     1.080   .     S
C41    C45     1.422   .     A
C42    C46     1.421   .     A
C42    H44     1.080   .     S
C45    C47     1.425   .     A
C45    N77     1.438   .     S
C46    C48     1.425   .     A
C46    N80     1.438   .     S
C47    C540    1.521   1_554 S
C48    C539    1.521   .     S
N49    O51     1.301   .     A
N49    O50     1.301   .     A
N52    O54     1.301   .     A
N52    O53     1.301   .     A
N55    O56     1.301   .     A
N55    O57     1.301   .     A
N58    O60     1.301   .     A
N58    O59     1.301   .     A
C61    H63     1.111   .     S
C61    H62     1.110   .     S
C61    H64     1.107   .     S
C65    H68     1.110   .     S
C65    H66     1.110   .     S
C65    H313    1.108   .     S
H67    C311    1.108   1_545 S
C69    H71     1.105   .     S
C69    H72     1.112   .     S
C69    H70     1.097   .     S
C73    H75     1.109   .     S
C73    H74     1.105   .     S
C73    H76     1.111   .     S
N77    O79     1.301   .     A
N77    O570    1.301   1_554 S
O78    N569    1.301   .     S
N80    O82     1.301   .     A
N80    O81     1.301   .     A
O83    C87     1.296   .     A
O83    Cu95    1.959   .     S
O84    C88     1.302   .     A
O84    Cu96    1.959   .     S
O85    Cu96    1.949   .     S
O85    C87     1.295   .     A
O86    Cu95    1.949   .     S
O86    C88     1.298   .     A
C87    C107    1.460   .     S
C88    C108    1.476   .     S
O89    C93     1.290   .     A
O89    Cu95    1.962   .     S
O90    C94     1.293   .     A
O90    Cu96    1.962   .     S
O91    Cu96    1.958   .     S
O91    C93     1.289   .     A
O92    C94     1.287   .     A
O92    Cu95    1.958   .     S
C93    C97     1.430   .     S
C94    C98     1.432   .     S
Cu95   N122    2.020   .     S
Cu95   Cu96    2.689   .     S
Cu96   N121    2.020   .     S
C98    C179    1.329   .     S
C98    H182    1.088   .     S
H99    C179    1.082   .     S
C101   C113    1.395   .     A
C101   H103    1.084   .     S
C101   C105    1.393   .     A
C102   C106    1.388   .     A
C102   H104    1.085   .     S
C102   C114    1.392   .     A
C105   N131    1.439   .     S
C105   C107    1.413   .     A
C106   N134    1.429   .     S
C106   C108    1.412   .     A
C107   C109    1.415   .     A
C108   C110    1.422   .     A
C109   C111    1.408   .     A
C109   N137    1.435   .     S
C110   N140    1.437   .     S
C110   C112    1.411   .     A
C111   C113    1.409   .     A
C111   C143    1.514   .     S
C112   C114    1.409   .     A
C112   C147    1.514   .     S
C113   C360    1.462   1_545 S
C114   C359    1.462   .     S
C115   C119    1.405   .     A
C115   C129    1.395   .     A
C115   H117    1.084   .     S
C116   C120    1.407   .     A
C116   H118    1.084   .     S
C116   C130    1.395   .     A
C119   C151    1.500   .     S
C119   N121    1.383   .     A
C120   N122    1.384   .     A
C120   C155    1.504   .     S
N121   C123    1.368   .     A
N122   C124    1.367   .     A
C123   H125    1.080   .     S
C123   C127    1.422   .     A
C124   C128    1.421   .     A
C124   H126    1.080   .     S
C127   C129    1.425   .     A
C127   N159    1.438   .     S
C128   C130    1.425   .     A
C128   N162    1.438   .     S
C129   C622    1.521   1_554 S
C130   C621    1.521   .     S
N131   O133    1.301   .     A
N131   O132    1.301   .     A
N134   O136    1.301   .     A
N134   O135    1.301   .     A
N137   O138    1.301   .     A
N137   O139    1.301   .     A
N140   O142    1.301   .     A
N140   O141    1.301   .     A
C143   H145    1.111   .     S
C143   H144    1.110   .     S
C143   H146    1.107   .     S
C147   H150    1.110   .     S
C147   H148    1.110   .     S
C147   H395    1.108   .     S
H149   C393    1.108   1_545 S
C151   H153    1.105   .     S
C151   H154    1.112   .     S
C151   H152    1.097   .     S
C155   H157    1.109   .     S
C155   H156    1.105   .     S
C155   H158    1.111   .     S
N159   O161    1.301   .     A
N159   O652    1.301   1_554 S
O160   N651    1.301   .     S
N162   O164    1.301   .     A
N162   O163    1.301   .     A
O165   C169    1.296   .     A
O165   Cu177   1.959   .     S
O166   C170    1.302   .     A
O166   Cu178   1.959   .     S
O167   Cu178   1.949   .     S
O167   C169    1.295   .     A
O168   Cu177   1.949   .     S
O168   C170    1.298   .     A
C169   C189    1.460   .     S
C170   C190    1.476   .     S
O171   C175    1.290   .     A
O171   Cu177   1.962   .     S
O172   C176    1.293   .     A
O172   Cu178   1.962   .     S
O173   Cu178   1.958   .     S
O173   C175    1.289   .     A
O174   C176    1.287   .     A
O174   Cu177   1.958   .     S
C175   C179    1.430   .     S
C176   C180    1.432   .     S
Cu177  N204    2.020   .     S
Cu177  Cu178   2.689   .     S
Cu178  N203    2.020   .     S
C180   C15     1.329   1_655 S
C180   H18     1.088   1_655 S
H181   C15     1.082   1_655 S
C183   C195    1.395   .     A
C183   H185    1.084   .     S
C183   C187    1.393   .     A
C184   C188    1.388   .     A
C184   H186    1.085   .     S
C184   C196    1.392   .     A
C187   N213    1.439   .     S
C187   C189    1.413   .     A
C188   N216    1.429   .     S
C188   C190    1.412   .     A
C189   C191    1.415   .     A
C190   C192    1.422   .     A
C191   C193    1.408   .     A
C191   N219    1.435   .     S
C192   N222    1.437   .     S
C192   C194    1.411   .     A
C193   C195    1.409   .     A
C193   C225    1.514   .     S
C194   C196    1.409   .     A
C194   C229    1.514   .     S
C195   C442    1.462   1_545 S
C196   C441    1.462   .     S
C197   C201    1.405   .     A
C197   C211    1.395   .     A
C197   H199    1.084   .     S
C198   C202    1.407   .     A
C198   H200    1.084   .     S
C198   C212    1.395   .     A
C201   C233    1.500   .     S
C201   N203    1.383   .     A
C202   N204    1.384   .     A
C202   C237    1.504   .     S
N203   C205    1.368   .     A
N204   C206    1.367   .     A
C205   H207    1.080   .     S
C205   C209    1.422   .     A
C206   C210    1.421   .     A
C206   H208    1.080   .     S
C209   C211    1.425   .     A
C209   N241    1.438   .     S
C210   C212    1.425   .     A
C210   N244    1.438   .     S
C211   C704    1.521   1_554 S
C212   C703    1.521   .     S
N213   O215    1.301   .     A
N213   O214    1.301   .     A
N216   O218    1.301   .     A
N216   O217    1.301   .     A
N219   O220    1.301   .     A
N219   O221    1.301   .     A
N222   O224    1.301   .     A
N222   O223    1.301   .     A
C225   H227    1.111   .     S
C225   H226    1.110   .     S
C225   H228    1.107   .     S
C229   H232    1.110   .     S
C229   H230    1.110   .     S
C229   H477    1.108   .     S
H231   C475    1.108   1_545 S
C233   H235    1.105   .     S
C233   H236    1.112   .     S
C233   H234    1.097   .     S
C237   H239    1.109   .     S
C237   H238    1.105   .     S
C237   H240    1.111   .     S
N241   O243    1.301   .     A
N241   O734    1.301   1_554 S
O242   N733    1.301   .     S
N244   O246    1.301   .     A
N244   O245    1.301   .     A
O247   C251    1.296   .     A
O247   Cu259   1.959   .     S
O248   C252    1.302   .     A
O248   Cu260   1.959   .     S
O249   Cu260   1.949   .     S
O249   C251    1.295   .     A
O250   Cu259   1.949   .     S
O250   C252    1.298   .     A
C251   C271    1.460   .     S
C252   C272    1.476   .     S
O253   C257    1.290   .     A
O253   Cu259   1.962   .     S
O254   C258    1.293   .     A
O254   Cu260   1.962   .     S
O255   Cu260   1.958   .     S
O255   C257    1.289   .     A
O256   C258    1.287   .     A
O256   Cu259   1.958   .     S
C257   C261    1.430   .     S
C258   C262    1.432   .     S
Cu259  N286    2.020   .     S
Cu259  Cu260   2.689   .     S
Cu260  N285    2.020   .     S
C261   C426    1.329   1_455 S
C261   H427    1.082   1_455 S
C262   C343    1.329   .     S
C262   H346    1.088   .     S
H263   C343    1.082   .     S
H264   C426    1.088   1_455 S
C265   C277    1.395   .     A
C265   H267    1.084   .     S
C265   C269    1.393   .     A
C266   C270    1.388   .     A
C266   H268    1.085   .     S
C266   C278    1.392   .     A
C269   N295    1.439   .     S
C269   C271    1.413   .     A
C270   N298    1.429   .     S
C270   C272    1.412   .     A
C271   C273    1.415   .     A
C272   C274    1.422   .     A
C273   C275    1.408   .     A
C273   N301    1.435   .     S
C274   N304    1.437   .     S
C274   C276    1.411   .     A
C275   C277    1.409   .     A
C275   C307    1.514   .     S
C276   C278    1.409   .     A
C276   C311    1.514   .     S
C278   C31     1.462   1_565 S
C279   C283    1.405   .     A
C279   C293    1.395   .     A
C279   H281    1.084   .     S
C280   C284    1.407   .     A
C280   H282    1.084   .     S
C280   C294    1.395   .     A
C283   C315    1.500   .     S
C283   N285    1.383   .     A
C284   N286    1.384   .     A
C284   C319    1.504   .     S
N285   C287    1.368   .     A
N286   C288    1.367   .     A
C287   H289    1.080   .     S
C287   C291    1.422   .     A
C288   C292    1.421   .     A
C288   H290    1.080   .     S
C291   C293    1.425   .     A
C291   N323    1.438   .     S
C292   C294    1.425   .     A
C292   N326    1.438   .     S
C293   C786    1.521   1_554 S
C294   C785    1.521   .     S
N295   O297    1.301   .     A
N295   O296    1.301   .     A
N298   O300    1.301   .     A
N298   O299    1.301   .     A
N301   O302    1.301   .     A
N301   O303    1.301   .     A
N304   O306    1.301   .     A
N304   O305    1.301   .     A
C307   H309    1.111   .     S
C307   H308    1.110   .     S
C307   H310    1.107   .     S
C311   H314    1.110   .     S
C311   H312    1.110   .     S
C311   H67     1.108   1_565 S
C315   H317    1.105   .     S
C315   H318    1.112   .     S
C315   H316    1.097   .     S
C319   H321    1.109   .     S
C319   H320    1.105   .     S
C319   H322    1.111   .     S
N323   O325    1.301   .     A
N323   O816    1.301   1_554 S
O324   N815    1.301   .     S
N326   O328    1.301   .     A
N326   O327    1.301   .     A
O329   C333    1.296   .     A
O329   Cu341   1.959   .     S
O330   C334    1.302   .     A
O330   Cu342   1.959   .     S
O331   Cu342   1.949   .     S
O331   C333    1.295   .     A
O332   Cu341   1.949   .     S
O332   C334    1.298   .     A
C333   C353    1.460   .     S
C334   C354    1.476   .     S
O335   C339    1.290   .     A
O335   Cu341   1.962   .     S
O336   C340    1.293   .     A
O336   Cu342   1.962   .     S
O337   Cu342   1.958   .     S
O337   C339    1.289   .     A
O338   C340    1.287   .     A
O338   Cu341   1.958   .     S
C339   C343    1.430   .     S
C340   C344    1.432   .     S
Cu341  N368    2.020   .     S
Cu341  Cu342   2.689   .     S
Cu342  N367    2.020   .     S
C344   C425    1.329   .     S
C344   H428    1.088   .     S
H345   C425    1.082   .     S
C347   C359    1.395   .     A
C347   H349    1.084   .     S
C347   C351    1.393   .     A
C348   C352    1.388   .     A
C348   H350    1.085   .     S
C348   C360    1.392   .     A
C351   N377    1.439   .     S
C351   C353    1.413   .     A
C352   N380    1.429   .     S
C352   C354    1.412   .     A
C353   C355    1.415   .     A
C354   C356    1.422   .     A
C355   C357    1.408   .     A
C355   N383    1.435   .     S
C356   N386    1.437   .     S
C356   C358    1.411   .     A
C357   C359    1.409   .     A
C357   C389    1.514   .     S
C358   C360    1.409   .     A
C358   C393    1.514   .     S
C360   C113    1.462   1_565 S
C361   C365    1.405   .     A
C361   C375    1.395   .     A
C361   H363    1.084   .     S
C362   C366    1.407   .     A
C362   H364    1.084   .     S
C362   C376    1.395   .     A
C365   C397    1.500   .     S
C365   N367    1.383   .     A
C366   N368    1.384   .     A
C366   C401    1.504   .     S
N367   C369    1.368   .     A
N368   C370    1.367   .     A
C369   H371    1.080   .     S
C369   C373    1.422   .     A
C370   C374    1.421   .     A
C370   H372    1.080   .     S
C373   C375    1.425   .     A
C373   N405    1.438   .     S
C374   C376    1.425   .     A
C374   N408    1.438   .     S
C375   C868    1.521   1_554 S
C376   C867    1.521   .     S
N377   O379    1.301   .     A
N377   O378    1.301   .     A
N380   O382    1.301   .     A
N380   O381    1.301   .     A
N383   O384    1.301   .     A
N383   O385    1.301   .     A
N386   O388    1.301   .     A
N386   O387    1.301   .     A
C389   H391    1.111   .     S
C389   H390    1.110   .     S
C389   H392    1.107   .     S
C393   H396    1.110   .     S
C393   H394    1.110   .     S
C393   H149    1.108   1_565 S
C397   H399    1.105   .     S
C397   H400    1.112   .     S
C397   H398    1.097   .     S
C401   H403    1.109   .     S
C401   H402    1.105   .     S
C401   H404    1.111   .     S
N405   O407    1.301   .     A
N405   O898    1.301   1_554 S
O406   N897    1.301   .     S
N408   O410    1.301   .     A
N408   O409    1.301   .     A
O411   C415    1.296   .     A
O411   Cu423   1.959   .     S
O412   C416    1.302   .     A
O412   Cu424   1.959   .     S
O413   Cu424   1.949   .     S
O413   C415    1.295   .     A
O414   Cu423   1.949   .     S
O414   C416    1.298   .     A
C415   C435    1.460   .     S
C416   C436    1.476   .     S
O417   C421    1.290   .     A
O417   Cu423   1.962   .     S
O418   C422    1.293   .     A
O418   Cu424   1.962   .     S
O419   Cu424   1.958   .     S
O419   C421    1.289   .     A
O420   C422    1.287   .     A
O420   Cu423   1.958   .     S
C421   C425    1.430   .     S
C422   C426    1.432   .     S
Cu423  N450    2.020   .     S
Cu423  Cu424   2.689   .     S
Cu424  N449    2.020   .     S
C426   C261    1.329   1_655 S
C426   H264    1.088   1_655 S
H427   C261    1.082   1_655 S
C429   C441    1.395   .     A
C429   H431    1.084   .     S
C429   C433    1.393   .     A
C430   C434    1.388   .     A
C430   H432    1.085   .     S
C430   C442    1.392   .     A
C433   N459    1.439   .     S
C433   C435    1.413   .     A
C434   N462    1.429   .     S
C434   C436    1.412   .     A
C435   C437    1.415   .     A
C436   C438    1.422   .     A
C437   C439    1.408   .     A
C437   N465    1.435   .     S
C438   N468    1.437   .     S
C438   C440    1.411   .     A
C439   C441    1.409   .     A
C439   C471    1.514   .     S
C440   C442    1.409   .     A
C440   C475    1.514   .     S
C442   C195    1.462   1_565 S
C443   C447    1.405   .     A
C443   C457    1.395   .     A
C443   H445    1.084   .     S
C444   C448    1.407   .     A
C444   H446    1.084   .     S
C444   C458    1.395   .     A
C447   C479    1.500   .     S
C447   N449    1.383   .     A
C448   N450    1.384   .     A
C448   C483    1.504   .     S
N449   C451    1.368   .     A
N450   C452    1.367   .     A
C451   H453    1.080   .     S
C451   C455    1.422   .     A
C452   C456    1.421   .     A
C452   H454    1.080   .     S
C455   C457    1.425   .     A
C455   N487    1.438   .     S
C456   C458    1.425   .     A
C456   N490    1.438   .     S
C457   C950    1.521   1_554 S
C458   C949    1.521   .     S
N459   O461    1.301   .     A
N459   O460    1.301   .     A
N462   O464    1.301   .     A
N462   O463    1.301   .     A
N465   O466    1.301   .     A
N465   O467    1.301   .     A
N468   O470    1.301   .     A
N468   O469    1.301   .     A
C471   H473    1.111   .     S
C471   H472    1.110   .     S
C471   H474    1.107   .     S
C475   H478    1.110   .     S
C475   H476    1.110   .     S
C475   H231    1.108   1_565 S
C479   H481    1.105   .     S
C479   H482    1.112   .     S
C479   H480    1.097   .     S
C483   H485    1.109   .     S
C483   H484    1.105   .     S
C483   H486    1.111   .     S
N487   O489    1.301   .     A
N487   O980    1.301   1_554 S
O488   N979    1.301   .     S
N490   O492    1.301   .     A
N490   O491    1.301   .     A
O493   C497    1.296   .     A
O493   Cu505   1.959   .     S
O494   C498    1.302   .     A
O494   Cu506   1.959   .     S
O495   Cu506   1.949   .     S
O495   C497    1.295   .     A
O496   Cu505   1.949   .     S
O496   C498    1.298   .     A
C497   C517    1.460   .     S
C498   C518    1.476   .     S
O499   C503    1.290   .     A
O499   Cu505   1.962   .     S
O500   C504    1.293   .     A
O500   Cu506   1.962   .     S
O501   Cu506   1.958   .     S
O501   C503    1.289   .     A
O502   C504    1.287   .     A
O502   Cu505   1.958   .     S
C503   C507    1.430   .     S
C504   C508    1.432   .     S
Cu505  N532    2.020   .     S
Cu505  Cu506   2.689   .     S
Cu506  N531    2.020   .     S
C507   C672    1.329   1_455 S
C507   H673    1.082   1_455 S
C508   C589    1.329   .     S
C508   H592    1.088   .     S
H509   C589    1.082   .     S
H510   C672    1.088   1_455 S
C511   C523    1.395   .     A
C511   H513    1.084   .     S
C511   C515    1.393   .     A
C512   C516    1.388   .     A
C512   H514    1.085   .     S
C512   C524    1.392   .     A
C515   N541    1.439   .     S
C515   C517    1.413   .     A
C516   N544    1.429   .     S
C516   C518    1.412   .     A
C517   C519    1.415   .     A
C518   C520    1.422   .     A
C519   C521    1.408   .     A
C519   N547    1.435   .     S
C520   N550    1.437   .     S
C520   C522    1.411   .     A
C521   C523    1.409   .     A
C521   C553    1.514   .     S
C522   C524    1.409   .     A
C522   C557    1.514   .     S
C523   C770    1.462   1_545 S
C524   C769    1.462   .     S
C525   C529    1.405   .     A
C525   C539    1.395   .     A
C525   H527    1.084   .     S
C526   C530    1.407   .     A
C526   H528    1.084   .     S
C526   C540    1.395   .     A
C529   C561    1.500   .     S
C529   N531    1.383   .     A
C530   N532    1.384   .     A
C530   C565    1.504   .     S
N531   C533    1.368   .     A
N532   C534    1.367   .     A
C533   H535    1.080   .     S
C533   C537    1.422   .     A
C534   C538    1.421   .     A
C534   H536    1.080   .     S
C537   C539    1.425   .     A
C537   N569    1.438   .     S
C538   C540    1.425   .     A
C538   N572    1.438   .     S
C540   C47     1.521   1_556 S
N541   O543    1.301   .     A
N541   O542    1.301   .     A
N544   O546    1.301   .     A
N544   O545    1.301   .     A
N547   O548    1.301   .     A
N547   O549    1.301   .     A
N550   O552    1.301   .     A
N550   O551    1.301   .     A
C553   H555    1.111   .     S
C553   H554    1.110   .     S
C553   H556    1.107   .     S
C557   H560    1.110   .     S
C557   H558    1.110   .     S
C557   H805    1.108   .     S
H559   C803    1.108   1_545 S
C561   H563    1.105   .     S
C561   H564    1.112   .     S
C561   H562    1.097   .     S
C565   H567    1.109   .     S
C565   H566    1.105   .     S
C565   H568    1.111   .     S
N569   O571    1.301   .     A
O570   N77     1.301   1_556 S
N572   O574    1.301   .     A
N572   O573    1.301   .     A
O575   C579    1.296   .     A
O575   Cu587   1.959   .     S
O576   C580    1.302   .     A
O576   Cu588   1.959   .     S
O577   Cu588   1.949   .     S
O577   C579    1.295   .     A
O578   Cu587   1.949   .     S
O578   C580    1.298   .     A
C579   C599    1.460   .     S
C580   C600    1.476   .     S
O581   C585    1.290   .     A
O581   Cu587   1.962   .     S
O582   C586    1.293   .     A
O582   Cu588   1.962   .     S
O583   Cu588   1.958   .     S
O583   C585    1.289   .     A
O584   C586    1.287   .     A
O584   Cu587   1.958   .     S
C585   C589    1.430   .     S
C586   C590    1.432   .     S
Cu587  N614    2.020   .     S
Cu587  Cu588   2.689   .     S
Cu588  N613    2.020   .     S
C590   C671    1.329   .     S
C590   H674    1.088   .     S
H591   C671    1.082   .     S
C593   C605    1.395   .     A
C593   H595    1.084   .     S
C593   C597    1.393   .     A
C594   C598    1.388   .     A
C594   H596    1.085   .     S
C594   C606    1.392   .     A
C597   N623    1.439   .     S
C597   C599    1.413   .     A
C598   N626    1.429   .     S
C598   C600    1.412   .     A
C599   C601    1.415   .     A
C600   C602    1.422   .     A
C601   C603    1.408   .     A
C601   N629    1.435   .     S
C602   N632    1.437   .     S
C602   C604    1.411   .     A
C603   C605    1.409   .     A
C603   C635    1.514   .     S
C604   C606    1.409   .     A
C604   C639    1.514   .     S
C605   C852    1.462   1_545 S
C606   C851    1.462   .     S
C607   C611    1.405   .     A
C607   C621    1.395   .     A
C607   H609    1.084   .     S
C608   C612    1.407   .     A
C608   H610    1.084   .     S
C608   C622    1.395   .     A
C611   C643    1.500   .     S
C611   N613    1.383   .     A
C612   N614    1.384   .     A
C612   C647    1.504   .     S
N613   C615    1.368   .     A
N614   C616    1.367   .     A
C615   H617    1.080   .     S
C615   C619    1.422   .     A
C616   C620    1.421   .     A
C616   H618    1.080   .     S
C619   C621    1.425   .     A
C619   N651    1.438   .     S
C620   C622    1.425   .     A
C620   N654    1.438   .     S
C622   C129    1.521   1_556 S
N623   O625    1.301   .     A
N623   O624    1.301   .     A
N626   O628    1.301   .     A
N626   O627    1.301   .     A
N629   O630    1.301   .     A
N629   O631    1.301   .     A
N632   O634    1.301   .     A
N632   O633    1.301   .     A
C635   H637    1.111   .     S
C635   H636    1.110   .     S
C635   H638    1.107   .     S
C639   H642    1.110   .     S
C639   H640    1.110   .     S
C639   H887    1.108   .     S
H641   C885    1.108   1_545 S
C643   H645    1.105   .     S
C643   H646    1.112   .     S
C643   H644    1.097   .     S
C647   H649    1.109   .     S
C647   H648    1.105   .     S
C647   H650    1.111   .     S
N651   O653    1.301   .     A
O652   N159    1.301   1_556 S
N654   O656    1.301   .     A
N654   O655    1.301   .     A
O657   C661    1.296   .     A
O657   Cu669   1.959   .     S
O658   C662    1.302   .     A
O658   Cu670   1.959   .     S
O659   Cu670   1.949   .     S
O659   C661    1.295   .     A
O660   Cu669   1.949   .     S
O660   C662    1.298   .     A
C661   C681    1.460   .     S
C662   C682    1.476   .     S
O663   C667    1.290   .     A
O663   Cu669   1.962   .     S
O664   C668    1.293   .     A
O664   Cu670   1.962   .     S
O665   Cu670   1.958   .     S
O665   C667    1.289   .     A
O666   C668    1.287   .     A
O666   Cu669   1.958   .     S
C667   C671    1.430   .     S
C668   C672    1.432   .     S
Cu669  N696    2.020   .     S
Cu669  Cu670   2.689   .     S
Cu670  N695    2.020   .     S
C672   C507    1.329   1_655 S
C672   H510    1.088   1_655 S
H673   C507    1.082   1_655 S
C675   C687    1.395   .     A
C675   H677    1.084   .     S
C675   C679    1.393   .     A
C676   C680    1.388   .     A
C676   H678    1.085   .     S
C676   C688    1.392   .     A
C679   N705    1.439   .     S
C679   C681    1.413   .     A
C680   N708    1.429   .     S
C680   C682    1.412   .     A
C681   C683    1.415   .     A
C682   C684    1.422   .     A
C683   C685    1.408   .     A
C683   N711    1.435   .     S
C684   N714    1.437   .     S
C684   C686    1.411   .     A
C685   C687    1.409   .     A
C685   C717    1.514   .     S
C686   C688    1.409   .     A
C686   C721    1.514   .     S
C687   C934    1.462   1_545 S
C688   C933    1.462   .     S
C689   C693    1.405   .     A
C689   C703    1.395   .     A
C689   H691    1.084   .     S
C690   C694    1.407   .     A
C690   H692    1.084   .     S
C690   C704    1.395   .     A
C693   C725    1.500   .     S
C693   N695    1.383   .     A
C694   N696    1.384   .     A
C694   C729    1.504   .     S
N695   C697    1.368   .     A
N696   C698    1.367   .     A
C697   H699    1.080   .     S
C697   C701    1.422   .     A
C698   C702    1.421   .     A
C698   H700    1.080   .     S
C701   C703    1.425   .     A
C701   N733    1.438   .     S
C702   C704    1.425   .     A
C702   N736    1.438   .     S
C704   C211    1.521   1_556 S
N705   O707    1.301   .     A
N705   O706    1.301   .     A
N708   O710    1.301   .     A
N708   O709    1.301   .     A
N711   O712    1.301   .     A
N711   O713    1.301   .     A
N714   O716    1.301   .     A
N714   O715    1.301   .     A
C717   H719    1.111   .     S
C717   H718    1.110   .     S
C717   H720    1.107   .     S
C721   H724    1.110   .     S
C721   H722    1.110   .     S
C721   H969    1.108   .     S
H723   C967    1.108   1_545 S
C725   H727    1.105   .     S
C725   H728    1.112   .     S
C725   H726    1.097   .     S
C729   H731    1.109   .     S
C729   H730    1.105   .     S
C729   H732    1.111   .     S
N733   O735    1.301   .     A
O734   N241    1.301   1_556 S
N736   O738    1.301   .     A
N736   O737    1.301   .     A
O739   C743    1.296   .     A
O739   Cu751   1.959   .     S
O740   C744    1.302   .     A
O740   Cu752   1.959   .     S
O741   Cu752   1.949   .     S
O741   C743    1.295   .     A
O742   Cu751   1.949   .     S
O742   C744    1.298   .     A
C743   C763    1.460   .     S
C744   C764    1.476   .     S
O745   C749    1.290   .     A
O745   Cu751   1.962   .     S
O746   C750    1.293   .     A
O746   Cu752   1.962   .     S
O747   Cu752   1.958   .     S
O747   C749    1.289   .     A
O748   C750    1.287   .     A
O748   Cu751   1.958   .     S
C749   C753    1.430   .     S
C750   C754    1.432   .     S
Cu751  N778    2.020   .     S
Cu751  Cu752   2.689   .     S
Cu752  N777    2.020   .     S
C753   C918    1.329   1_455 S
C753   H919    1.082   1_455 S
C754   C835    1.329   .     S
C754   H838    1.088   .     S
H755   C835    1.082   .     S
H756   C918    1.088   1_455 S
C757   C769    1.395   .     A
C757   H759    1.084   .     S
C757   C761    1.393   .     A
C758   C762    1.388   .     A
C758   H760    1.085   .     S
C758   C770    1.392   .     A
C761   N787    1.439   .     S
C761   C763    1.413   .     A
C762   N790    1.429   .     S
C762   C764    1.412   .     A
C763   C765    1.415   .     A
C764   C766    1.422   .     A
C765   C767    1.408   .     A
C765   N793    1.435   .     S
C766   N796    1.437   .     S
C766   C768    1.411   .     A
C767   C769    1.409   .     A
C767   C799    1.514   .     S
C768   C770    1.409   .     A
C768   C803    1.514   .     S
C770   C523    1.462   1_565 S
C771   C775    1.405   .     A
C771   C785    1.395   .     A
C771   H773    1.084   .     S
C772   C776    1.407   .     A
C772   H774    1.084   .     S
C772   C786    1.395   .     A
C775   C807    1.500   .     S
C775   N777    1.383   .     A
C776   N778    1.384   .     A
C776   C811    1.504   .     S
N777   C779    1.368   .     A
N778   C780    1.367   .     A
C779   H781    1.080   .     S
C779   C783    1.422   .     A
C780   C784    1.421   .     A
C780   H782    1.080   .     S
C783   C785    1.425   .     A
C783   N815    1.438   .     S
C784   C786    1.425   .     A
C784   N818    1.438   .     S
C786   C293    1.521   1_556 S
N787   O789    1.301   .     A
N787   O788    1.301   .     A
N790   O792    1.301   .     A
N790   O791    1.301   .     A
N793   O794    1.301   .     A
N793   O795    1.301   .     A
N796   O798    1.301   .     A
N796   O797    1.301   .     A
C799   H801    1.111   .     S
C799   H800    1.110   .     S
C799   H802    1.107   .     S
C803   H806    1.110   .     S
C803   H804    1.110   .     S
C803   H559    1.108   1_565 S
C807   H809    1.105   .     S
C807   H810    1.112   .     S
C807   H808    1.097   .     S
C811   H813    1.109   .     S
C811   H812    1.105   .     S
C811   H814    1.111   .     S
N815   O817    1.301   .     A
O816   N323    1.301   1_556 S
N818   O820    1.301   .     A
N818   O819    1.301   .     A
O821   C825    1.296   .     A
O821   Cu833   1.959   .     S
O822   C826    1.302   .     A
O822   Cu834   1.959   .     S
O823   Cu834   1.949   .     S
O823   C825    1.295   .     A
O824   Cu833   1.949   .     S
O824   C826    1.298   .     A
C825   C845    1.460   .     S
C826   C846    1.476   .     S
O827   C831    1.290   .     A
O827   Cu833   1.962   .     S
O828   C832    1.293   .     A
O828   Cu834   1.962   .     S
O829   Cu834   1.958   .     S
O829   C831    1.289   .     A
O830   C832    1.287   .     A
O830   Cu833   1.958   .     S
C831   C835    1.430   .     S
C832   C836    1.432   .     S
Cu833  N860    2.020   .     S
Cu833  Cu834   2.689   .     S
Cu834  N859    2.020   .     S
C836   C917    1.329   .     S
C836   H920    1.088   .     S
H837   C917    1.082   .     S
C839   C851    1.395   .     A
C839   H841    1.084   .     S
C839   C843    1.393   .     A
C840   C844    1.388   .     A
C840   H842    1.085   .     S
C840   C852    1.392   .     A
C843   N869    1.439   .     S
C843   C845    1.413   .     A
C844   N872    1.429   .     S
C844   C846    1.412   .     A
C845   C847    1.415   .     A
C846   C848    1.422   .     A
C847   C849    1.408   .     A
C847   N875    1.435   .     S
C848   N878    1.437   .     S
C848   C850    1.411   .     A
C849   C851    1.409   .     A
C849   C881    1.514   .     S
C850   C852    1.409   .     A
C850   C885    1.514   .     S
C852   C605    1.462   1_565 S
C853   C857    1.405   .     A
C853   C867    1.395   .     A
C853   H855    1.084   .     S
C854   C858    1.407   .     A
C854   H856    1.084   .     S
C854   C868    1.395   .     A
C857   C889    1.500   .     S
C857   N859    1.383   .     A
C858   N860    1.384   .     A
C858   C893    1.504   .     S
N859   C861    1.368   .     A
N860   C862    1.367   .     A
C861   H863    1.080   .     S
C861   C865    1.422   .     A
C862   C866    1.421   .     A
C862   H864    1.080   .     S
C865   C867    1.425   .     A
C865   N897    1.438   .     S
C866   C868    1.425   .     A
C866   N900    1.438   .     S
C868   C375    1.521   1_556 S
N869   O871    1.301   .     A
N869   O870    1.301   .     A
N872   O874    1.301   .     A
N872   O873    1.301   .     A
N875   O876    1.301   .     A
N875   O877    1.301   .     A
N878   O880    1.301   .     A
N878   O879    1.301   .     A
C881   H883    1.111   .     S
C881   H882    1.110   .     S
C881   H884    1.107   .     S
C885   H888    1.110   .     S
C885   H886    1.110   .     S
C885   H641    1.108   1_565 S
C889   H891    1.105   .     S
C889   H892    1.112   .     S
C889   H890    1.097   .     S
C893   H895    1.109   .     S
C893   H894    1.105   .     S
C893   H896    1.111   .     S
N897   O899    1.301   .     A
O898   N405    1.301   1_556 S
N900   O902    1.301   .     A
N900   O901    1.301   .     A
O903   C907    1.296   .     A
O903   Cu915   1.959   .     S
O904   C908    1.302   .     A
O904   Cu916   1.959   .     S
O905   Cu916   1.949   .     S
O905   C907    1.295   .     A
O906   Cu915   1.949   .     S
O906   C908    1.298   .     A
C907   C927    1.460   .     S
C908   C928    1.476   .     S
O909   C913    1.290   .     A
O909   Cu915   1.962   .     S
O910   C914    1.293   .     A
O910   Cu916   1.962   .     S
O911   Cu916   1.958   .     S
O911   C913    1.289   .     A
O912   C914    1.287   .     A
O912   Cu915   1.958   .     S
C913   C917    1.430   .     S
C914   C918    1.432   .     S
Cu915  N942    2.020   .     S
Cu915  Cu916   2.689   .     S
Cu916  N941    2.020   .     S
C918   C753    1.329   1_655 S
C918   H756    1.088   1_655 S
H919   C753    1.082   1_655 S
C921   C933    1.395   .     A
C921   H923    1.084   .     S
C921   C925    1.393   .     A
C922   C926    1.388   .     A
C922   H924    1.085   .     S
C922   C934    1.392   .     A
C925   N951    1.439   .     S
C925   C927    1.413   .     A
C926   N954    1.429   .     S
C926   C928    1.412   .     A
C927   C929    1.415   .     A
C928   C930    1.422   .     A
C929   C931    1.408   .     A
C929   N957    1.435   .     S
C930   N960    1.437   .     S
C930   C932    1.411   .     A
C931   C933    1.409   .     A
C931   C963    1.514   .     S
C932   C934    1.409   .     A
C932   C967    1.514   .     S
C934   C687    1.462   1_565 S
C935   C939    1.405   .     A
C935   C949    1.395   .     A
C935   H937    1.084   .     S
C936   C940    1.407   .     A
C936   H938    1.084   .     S
C936   C950    1.395   .     A
C939   C971    1.500   .     S
C939   N941    1.383   .     A
C940   N942    1.384   .     A
C940   C975    1.504   .     S
N941   C943    1.368   .     A
N942   C944    1.367   .     A
C943   H945    1.080   .     S
C943   C947    1.422   .     A
C944   C948    1.421   .     A
C944   H946    1.080   .     S
C947   C949    1.425   .     A
C947   N979    1.438   .     S
C948   C950    1.425   .     A
C948   N982    1.438   .     S
C950   C457    1.521   1_556 S
N951   O953    1.301   .     A
N951   O952    1.301   .     A
N954   O956    1.301   .     A
N954   O955    1.301   .     A
N957   O958    1.301   .     A
N957   O959    1.301   .     A
N960   O962    1.301   .     A
N960   O961    1.301   .     A
C963   H965    1.111   .     S
C963   H964    1.110   .     S
C963   H966    1.107   .     S
C967   H970    1.110   .     S
C967   H968    1.110   .     S
C967   H723    1.108   1_565 S
C971   H973    1.105   .     S
C971   H974    1.112   .     S
C971   H972    1.097   .     S
C975   H977    1.109   .     S
C975   H976    1.105   .     S
C975   H978    1.111   .     S
N979   O981    1.301   .     A
O980   N487    1.301   1_556 S
N982   O984    1.301   .     A
N982   O983    1.301   .     A
