data_str_m3_o1_o5_pcu_sym.82
_audit_creation_date              2020-01-03
_audit_creation_method            'Materials Studio'
_symmetry_space_group_name_H-M    'P1'
_symmetry_Int_Tables_number       1
_symmetry_cell_setting            triclinic
loop_
_symmetry_equiv_pos_as_xyz
  x,y,z
_cell_length_a                    32.3824
_cell_length_b                    29.8876
_cell_length_c                    26.7478
_cell_angle_alpha                 89.7942
_cell_angle_beta                  90.1209
_cell_angle_gamma                 89.7510
loop_
_atom_site_label
_atom_site_type_symbol
_atom_site_fract_x
_atom_site_fract_y
_atom_site_fract_z
_atom_site_U_iso_or_equiv
_atom_site_adp_type
_atom_site_occupancy
C1     C     0.08691   0.16678   0.16559   0.00000  Uiso   1.00
C2     C     0.02130   0.20357   0.18408   0.00000  Uiso   1.00
C3     C     0.29116   0.16694   0.16428   0.00000  Uiso   1.00
C4     C     0.04293   0.16727   0.16369   0.00000  Uiso   1.00
C5     C     0.18383   0.02419   0.20552   0.00000  Uiso   1.00
C6     C     0.14861   0.30996   0.12853   0.00000  Uiso   1.00
C7     C     0.15032   0.02445   0.12747   0.00000  Uiso   1.00
C8     C     0.18527   0.30956   0.20466   0.00000  Uiso   1.00
C9     C     0.05144   0.11656   0.06656   0.00000  Uiso   1.00
C10    C     0.05100   0.07947   0.02733   0.00000  Uiso   1.00
C11    C     0.07628   0.09234   0.31471   0.00000  Uiso   1.00
C12    C     0.24671   0.16664   0.16608   0.00000  Uiso   1.00
C13    C     0.28613   0.26848   0.13641   0.00000  Uiso   1.00
C14    C     0.32536   0.28854   0.11385   0.00000  Uiso   1.00
C15    C     0.31520   0.31650   0.06756   0.00000  Uiso   1.00
C16    C     0.29074   0.06437   0.19002   0.00000  Uiso   1.00
C17    C     0.33216   0.05207   0.21469   0.00000  Uiso   1.00
C18    C     0.32548   0.01937   0.25764   0.00000  Uiso   1.00
C19    C     0.04873   0.21923   0.26017   0.00000  Uiso   1.00
C20    C     0.05087   0.25770   0.29710   0.00000  Uiso   1.00
C21    C     0.06484   0.24176   0.01510   0.00000  Uiso   1.00
C22    C     0.16698   0.16673   0.07300   0.00000  Uiso   1.00
C23    C     0.16692   0.16663   0.26033   0.00000  Uiso   1.00
C24    C     0.16731   0.16679   0.02182   0.00000  Uiso   1.00
C25    C     0.16729   0.16668   0.31151   0.00000  Uiso   1.00
C26    C     0.02169   0.13152   0.14181   0.00000  Uiso   1.00
C27    C     0.31278   0.20662   0.17571   0.00000  Uiso   1.00
C28    C     0.31324   0.12795   0.15079   0.00000  Uiso   1.00
H29    H     0.08273   0.13149   0.06869   0.00000  Uiso   1.00
H30    H     0.00787   0.30951   0.14187   0.00000  Uiso   1.00
H31    H     0.01336   0.26117   0.10298   0.00000  Uiso   1.00
H32    H     0.29833   0.29607   0.03962   0.00000  Uiso   1.00
H33    H     0.01084   0.32831   0.05022   0.00000  Uiso   1.00
H34    H     0.29608   0.01265   0.07783   0.00000  Uiso   1.00
H35    H     0.27312   0.03328   0.18298   0.00000  Uiso   1.00
H36    H     0.27257   0.08430   0.21730   0.00000  Uiso   1.00
H37    H     0.02030   0.03728   0.18706   0.00000  Uiso   1.00
H38    H     0.01337   0.08270   0.23004   0.00000  Uiso   1.00
H39    H     0.30335   0.03342   0.28517   0.00000  Uiso   1.00
H40    H     0.02934   0.14290   0.05342   0.00000  Uiso   1.00
H41    H     0.02194   0.01325   0.27684   0.00000  Uiso   1.00
H42    H     0.31337   0.32050   0.24328   0.00000  Uiso   1.00
H43    H     0.07890   0.20140   0.26006   0.00000  Uiso   1.00
H44    H     0.02438   0.19569   0.27371   0.00000  Uiso   1.00
H45    H     0.07264   0.28356   0.28321   0.00000  Uiso   1.00
H46    H     0.01957   0.27248   0.30083   0.00000  Uiso   1.00
H47    H     0.04306   0.21658   0.03008   0.00000  Uiso   1.00
H48    H     0.06504   0.27083   0.04055   0.00000  Uiso   1.00
H49    H     0.09638   0.22722   0.01329   0.00000  Uiso   1.00
H50    H     0.21148   0.02778   0.27050   0.00000  Uiso   1.00
H51    H     0.06375   0.04810   0.04338   0.00000  Uiso   1.00
H52    H     0.11622   0.26116   0.10509   0.00000  Uiso   1.00
H53    H     0.13197   0.02854   0.05845   0.00000  Uiso   1.00
H54    H     0.21760   0.26010   0.22859   0.00000  Uiso   1.00
H55    H     0.01858   0.07296   0.01590   0.00000  Uiso   1.00
H56    H     0.06379   0.12338   0.29741   0.00000  Uiso   1.00
H57    H     0.07540   0.06508   0.28674   0.00000  Uiso   1.00
H58    H     0.10901   0.09747   0.32540   0.00000  Uiso   1.00
H59    H     0.26326   0.29567   0.14252   0.00000  Uiso   1.00
H60    H     0.27205   0.24536   0.10862   0.00000  Uiso   1.00
N61    N     0.16667   0.28573   0.16667   0.00000  Uiso   1.00
N62    N     0.16667   0.04760   0.16667   0.00000  Uiso   1.00
O63    O     0.10559   0.20487   0.16666   0.00000  Uiso   1.00
O64    O     0.29361   0.24752   0.18336   0.00000  Uiso   1.00
O65    O     0.29481   0.08684   0.14337   0.00000  Uiso   1.00
O66    O     0.04034   0.23657   0.21182   0.00000  Uiso   1.00
O67    O     0.20099   0.04826   0.24421   0.00000  Uiso   1.00
O68    O     0.12781   0.28878   0.09082   0.00000  Uiso   1.00
O69    O     0.13468   0.04851   0.08772   0.00000  Uiso   1.00
O70    O     0.20619   0.28793   0.24248   0.00000  Uiso   1.00
O71    O     0.22774   0.12846   0.16667   0.00000  Uiso   1.00
O72    O     0.22774   0.20487   0.16667   0.00000  Uiso   1.00
O73    O     0.10559   0.12846   0.16666   0.00000  Uiso   1.00
O74    O     0.16667   0.20488   0.09511   0.00000  Uiso   1.00
O75    O     0.16666   0.12845   0.23822   0.00000  Uiso   1.00
O76    O     0.16666   0.20488   0.23822   0.00000  Uiso   1.00
O77    O     0.16667   0.12845   0.09511   0.00000  Uiso   1.00
O78    O     0.04112   0.09860   0.11403   0.00000  Uiso   1.00
Zn79   Zn    0.16667   0.21771   0.16667   0.00000  Uiso   1.00
Zn80   Zn    0.16667   0.11563   0.16667   0.00000  Uiso   1.00
C81    C     0.42024   0.16678   0.16559   0.00000  Uiso   1.00
C82    C     0.35464   0.20357   0.18408   0.00000  Uiso   1.00
C83    C     0.62450   0.16694   0.16428   0.00000  Uiso   1.00
C84    C     0.37626   0.16727   0.16369   0.00000  Uiso   1.00
C85    C     0.51717   0.02419   0.20552   0.00000  Uiso   1.00
C86    C     0.48194   0.30996   0.12853   0.00000  Uiso   1.00
C87    C     0.48366   0.02445   0.12747   0.00000  Uiso   1.00
C88    C     0.51860   0.30956   0.20466   0.00000  Uiso   1.00
C89    C     0.38477   0.11656   0.06656   0.00000  Uiso   1.00
C90    C     0.38433   0.07947   0.02733   0.00000  Uiso   1.00
C91    C     0.40962   0.09234   0.31471   0.00000  Uiso   1.00
C92    C     0.58004   0.16664   0.16608   0.00000  Uiso   1.00
C93    C     0.61946   0.26848   0.13641   0.00000  Uiso   1.00
C94    C     0.65869   0.28854   0.11385   0.00000  Uiso   1.00
C95    C     0.64854   0.31650   0.06756   0.00000  Uiso   1.00
C96    C     0.62408   0.06437   0.19002   0.00000  Uiso   1.00
C97    C     0.66549   0.05207   0.21469   0.00000  Uiso   1.00
C98    C     0.65882   0.01937   0.25764   0.00000  Uiso   1.00
C99    C     0.38206   0.21923   0.26017   0.00000  Uiso   1.00
C100   C     0.38420   0.25770   0.29710   0.00000  Uiso   1.00
C101   C     0.39817   0.24176   0.01510   0.00000  Uiso   1.00
C102   C     0.50031   0.16673   0.07300   0.00000  Uiso   1.00
C103   C     0.50025   0.16663   0.26033   0.00000  Uiso   1.00
C104   C     0.50065   0.16679   0.02182   0.00000  Uiso   1.00
C105   C     0.50063   0.16668   0.31151   0.00000  Uiso   1.00
C106   C     0.35502   0.13152   0.14181   0.00000  Uiso   1.00
C107   C     0.64611   0.20662   0.17571   0.00000  Uiso   1.00
C108   C     0.64658   0.12795   0.15079   0.00000  Uiso   1.00
H109   H     0.41606   0.13149   0.06869   0.00000  Uiso   1.00
H110   H     0.34120   0.30951   0.14187   0.00000  Uiso   1.00
H111   H     0.34669   0.26117   0.10298   0.00000  Uiso   1.00
H112   H     0.63166   0.29607   0.03962   0.00000  Uiso   1.00
H113   H     0.34418   0.32831   0.05022   0.00000  Uiso   1.00
H114   H     0.62941   0.01265   0.07783   0.00000  Uiso   1.00
H115   H     0.60646   0.03328   0.18298   0.00000  Uiso   1.00
H116   H     0.60591   0.08430   0.21730   0.00000  Uiso   1.00
H117   H     0.35363   0.03728   0.18706   0.00000  Uiso   1.00
H118   H     0.34670   0.08270   0.23004   0.00000  Uiso   1.00
H119   H     0.63668   0.03342   0.28517   0.00000  Uiso   1.00
H120   H     0.36267   0.14290   0.05342   0.00000  Uiso   1.00
H121   H     0.35527   0.01325   0.27684   0.00000  Uiso   1.00
H122   H     0.64670   0.32050   0.24328   0.00000  Uiso   1.00
H123   H     0.41223   0.20140   0.26006   0.00000  Uiso   1.00
H124   H     0.35771   0.19569   0.27371   0.00000  Uiso   1.00
H125   H     0.40597   0.28356   0.28321   0.00000  Uiso   1.00
H126   H     0.35291   0.27248   0.30083   0.00000  Uiso   1.00
H127   H     0.37639   0.21658   0.03008   0.00000  Uiso   1.00
H128   H     0.39837   0.27083   0.04055   0.00000  Uiso   1.00
H129   H     0.42971   0.22722   0.01329   0.00000  Uiso   1.00
H130   H     0.54482   0.02778   0.27050   0.00000  Uiso   1.00
H131   H     0.39709   0.04810   0.04338   0.00000  Uiso   1.00
H132   H     0.44955   0.26116   0.10509   0.00000  Uiso   1.00
H133   H     0.46530   0.02854   0.05845   0.00000  Uiso   1.00
H134   H     0.55093   0.26010   0.22859   0.00000  Uiso   1.00
H135   H     0.35191   0.07296   0.01590   0.00000  Uiso   1.00
H136   H     0.39713   0.12338   0.29741   0.00000  Uiso   1.00
H137   H     0.40873   0.06508   0.28674   0.00000  Uiso   1.00
H138   H     0.44235   0.09747   0.32540   0.00000  Uiso   1.00
H139   H     0.59659   0.29567   0.14252   0.00000  Uiso   1.00
H140   H     0.60539   0.24536   0.10862   0.00000  Uiso   1.00
N141   N     0.50000   0.28573   0.16667   0.00000  Uiso   1.00
N142   N     0.50000   0.04760   0.16667   0.00000  Uiso   1.00
O143   O     0.43892   0.20487   0.16666   0.00000  Uiso   1.00
O144   O     0.62695   0.24752   0.18336   0.00000  Uiso   1.00
O145   O     0.62815   0.08684   0.14337   0.00000  Uiso   1.00
O146   O     0.37367   0.23657   0.21182   0.00000  Uiso   1.00
O147   O     0.53433   0.04826   0.24421   0.00000  Uiso   1.00
O148   O     0.46115   0.28878   0.09082   0.00000  Uiso   1.00
O149   O     0.46801   0.04851   0.08772   0.00000  Uiso   1.00
O150   O     0.53952   0.28793   0.24248   0.00000  Uiso   1.00
O151   O     0.56108   0.12846   0.16667   0.00000  Uiso   1.00
O152   O     0.56108   0.20487   0.16667   0.00000  Uiso   1.00
O153   O     0.43892   0.12846   0.16666   0.00000  Uiso   1.00
O154   O     0.50000   0.20488   0.09511   0.00000  Uiso   1.00
O155   O     0.50000   0.12845   0.23822   0.00000  Uiso   1.00
O156   O     0.50000   0.20488   0.23822   0.00000  Uiso   1.00
O157   O     0.50000   0.12845   0.09511   0.00000  Uiso   1.00
O158   O     0.37445   0.09860   0.11403   0.00000  Uiso   1.00
Zn159  Zn    0.50000   0.21771   0.16667   0.00000  Uiso   1.00
Zn160  Zn    0.50000   0.11563   0.16667   0.00000  Uiso   1.00
C161   C     0.75358   0.16678   0.16559   0.00000  Uiso   1.00
C162   C     0.68797   0.20357   0.18408   0.00000  Uiso   1.00
C163   C     0.95783   0.16694   0.16428   0.00000  Uiso   1.00
C164   C     0.70960   0.16727   0.16369   0.00000  Uiso   1.00
C165   C     0.85050   0.02419   0.20552   0.00000  Uiso   1.00
C166   C     0.81527   0.30996   0.12853   0.00000  Uiso   1.00
C167   C     0.81699   0.02445   0.12747   0.00000  Uiso   1.00
C168   C     0.85193   0.30956   0.20466   0.00000  Uiso   1.00
C169   C     0.71811   0.11656   0.06656   0.00000  Uiso   1.00
C170   C     0.71767   0.07947   0.02733   0.00000  Uiso   1.00
C171   C     0.74295   0.09234   0.31471   0.00000  Uiso   1.00
C172   C     0.91338   0.16664   0.16608   0.00000  Uiso   1.00
C173   C     0.95280   0.26848   0.13641   0.00000  Uiso   1.00
C174   C     0.99203   0.28854   0.11385   0.00000  Uiso   1.00
C175   C     0.98187   0.31650   0.06756   0.00000  Uiso   1.00
C176   C     0.95741   0.06437   0.19002   0.00000  Uiso   1.00
C177   C     0.99883   0.05207   0.21469   0.00000  Uiso   1.00
C178   C     0.99215   0.01937   0.25764   0.00000  Uiso   1.00
C179   C     0.71539   0.21923   0.26017   0.00000  Uiso   1.00
C180   C     0.71753   0.25770   0.29710   0.00000  Uiso   1.00
C181   C     0.73150   0.24176   0.01510   0.00000  Uiso   1.00
C182   C     0.83364   0.16673   0.07300   0.00000  Uiso   1.00
C183   C     0.83359   0.16663   0.26033   0.00000  Uiso   1.00
C184   C     0.83398   0.16679   0.02182   0.00000  Uiso   1.00
C185   C     0.83396   0.16668   0.31151   0.00000  Uiso   1.00
C186   C     0.68836   0.13152   0.14181   0.00000  Uiso   1.00
C187   C     0.97944   0.20662   0.17571   0.00000  Uiso   1.00
C188   C     0.97991   0.12795   0.15079   0.00000  Uiso   1.00
H189   H     0.74939   0.13149   0.06869   0.00000  Uiso   1.00
H190   H     0.67453   0.30951   0.14187   0.00000  Uiso   1.00
H191   H     0.68002   0.26117   0.10298   0.00000  Uiso   1.00
H192   H     0.96500   0.29607   0.03962   0.00000  Uiso   1.00
H193   H     0.67751   0.32831   0.05022   0.00000  Uiso   1.00
H194   H     0.96275   0.01265   0.07783   0.00000  Uiso   1.00
H195   H     0.93979   0.03328   0.18298   0.00000  Uiso   1.00
H196   H     0.93924   0.08430   0.21730   0.00000  Uiso   1.00
H197   H     0.68697   0.03728   0.18706   0.00000  Uiso   1.00
H198   H     0.68004   0.08270   0.23004   0.00000  Uiso   1.00
H199   H     0.97001   0.03342   0.28517   0.00000  Uiso   1.00
H200   H     0.69600   0.14290   0.05342   0.00000  Uiso   1.00
H201   H     0.68861   0.01325   0.27684   0.00000  Uiso   1.00
H202   H     0.98004   0.32050   0.24328   0.00000  Uiso   1.00
H203   H     0.74556   0.20140   0.26006   0.00000  Uiso   1.00
H204   H     0.69104   0.19569   0.27371   0.00000  Uiso   1.00
H205   H     0.73931   0.28356   0.28321   0.00000  Uiso   1.00
H206   H     0.68624   0.27248   0.30083   0.00000  Uiso   1.00
H207   H     0.70973   0.21658   0.03008   0.00000  Uiso   1.00
H208   H     0.73171   0.27083   0.04055   0.00000  Uiso   1.00
H209   H     0.76304   0.22722   0.01329   0.00000  Uiso   1.00
H210   H     0.87815   0.02778   0.27050   0.00000  Uiso   1.00
H211   H     0.73042   0.04810   0.04338   0.00000  Uiso   1.00
H212   H     0.78289   0.26116   0.10509   0.00000  Uiso   1.00
H213   H     0.79864   0.02854   0.05845   0.00000  Uiso   1.00
H214   H     0.88426   0.26010   0.22859   0.00000  Uiso   1.00
H215   H     0.68525   0.07296   0.01590   0.00000  Uiso   1.00
H216   H     0.73046   0.12338   0.29741   0.00000  Uiso   1.00
H217   H     0.74207   0.06508   0.28674   0.00000  Uiso   1.00
H218   H     0.77568   0.09747   0.32540   0.00000  Uiso   1.00
H219   H     0.92993   0.29567   0.14252   0.00000  Uiso   1.00
H220   H     0.93872   0.24536   0.10862   0.00000  Uiso   1.00
N221   N     0.83333   0.28573   0.16667   0.00000  Uiso   1.00
N222   N     0.83333   0.04760   0.16667   0.00000  Uiso   1.00
O223   O     0.77226   0.20487   0.16666   0.00000  Uiso   1.00
O224   O     0.96028   0.24752   0.18336   0.00000  Uiso   1.00
O225   O     0.96148   0.08684   0.14337   0.00000  Uiso   1.00
O226   O     0.70701   0.23657   0.21182   0.00000  Uiso   1.00
O227   O     0.86766   0.04826   0.24421   0.00000  Uiso   1.00
O228   O     0.79448   0.28878   0.09082   0.00000  Uiso   1.00
O229   O     0.80135   0.04851   0.08772   0.00000  Uiso   1.00
O230   O     0.87285   0.28793   0.24248   0.00000  Uiso   1.00
O231   O     0.89441   0.12846   0.16667   0.00000  Uiso   1.00
O232   O     0.89441   0.20487   0.16667   0.00000  Uiso   1.00
O233   O     0.77226   0.12846   0.16666   0.00000  Uiso   1.00
O234   O     0.83334   0.20488   0.09511   0.00000  Uiso   1.00
O235   O     0.83333   0.12845   0.23822   0.00000  Uiso   1.00
O236   O     0.83333   0.20488   0.23822   0.00000  Uiso   1.00
O237   O     0.83334   0.12845   0.09511   0.00000  Uiso   1.00
O238   O     0.70779   0.09860   0.11403   0.00000  Uiso   1.00
Zn239  Zn    0.83333   0.21771   0.16667   0.00000  Uiso   1.00
Zn240  Zn    0.83333   0.11563   0.16667   0.00000  Uiso   1.00
C241   C     0.08691   0.50011   0.16559   0.00000  Uiso   1.00
C242   C     0.02130   0.53690   0.18408   0.00000  Uiso   1.00
C243   C     0.29116   0.50027   0.16428   0.00000  Uiso   1.00
C244   C     0.04293   0.50060   0.16369   0.00000  Uiso   1.00
C245   C     0.18383   0.35753   0.20552   0.00000  Uiso   1.00
C246   C     0.14861   0.64329   0.12853   0.00000  Uiso   1.00
C247   C     0.15032   0.35779   0.12747   0.00000  Uiso   1.00
C248   C     0.18527   0.64289   0.20466   0.00000  Uiso   1.00
C249   C     0.05144   0.44989   0.06656   0.00000  Uiso   1.00
C250   C     0.05100   0.41280   0.02733   0.00000  Uiso   1.00
C251   C     0.07628   0.42567   0.31471   0.00000  Uiso   1.00
C252   C     0.24671   0.49997   0.16608   0.00000  Uiso   1.00
C253   C     0.28613   0.60181   0.13641   0.00000  Uiso   1.00
C254   C     0.32536   0.62188   0.11385   0.00000  Uiso   1.00
C255   C     0.31520   0.64983   0.06756   0.00000  Uiso   1.00
C256   C     0.29074   0.39771   0.19002   0.00000  Uiso   1.00
C257   C     0.33216   0.38540   0.21469   0.00000  Uiso   1.00
C258   C     0.32548   0.35270   0.25764   0.00000  Uiso   1.00
C259   C     0.04873   0.55256   0.26017   0.00000  Uiso   1.00
C260   C     0.05087   0.59103   0.29710   0.00000  Uiso   1.00
C261   C     0.06484   0.57510   0.01510   0.00000  Uiso   1.00
C262   C     0.16698   0.50006   0.07300   0.00000  Uiso   1.00
C263   C     0.16692   0.49996   0.26033   0.00000  Uiso   1.00
C264   C     0.16731   0.50013   0.02182   0.00000  Uiso   1.00
C265   C     0.16729   0.50001   0.31151   0.00000  Uiso   1.00
C266   C     0.02169   0.46486   0.14181   0.00000  Uiso   1.00
C267   C     0.31278   0.53995   0.17571   0.00000  Uiso   1.00
C268   C     0.31324   0.46128   0.15079   0.00000  Uiso   1.00
H269   H     0.08273   0.46482   0.06869   0.00000  Uiso   1.00
H270   H     0.00787   0.64284   0.14187   0.00000  Uiso   1.00
H271   H     0.01336   0.59450   0.10298   0.00000  Uiso   1.00
H272   H     0.29833   0.62941   0.03962   0.00000  Uiso   1.00
H273   H     0.01084   0.66164   0.05022   0.00000  Uiso   1.00
H274   H     0.29608   0.34598   0.07783   0.00000  Uiso   1.00
H275   H     0.27312   0.36661   0.18298   0.00000  Uiso   1.00
H276   H     0.27257   0.41763   0.21730   0.00000  Uiso   1.00
H277   H     0.02030   0.37061   0.18706   0.00000  Uiso   1.00
H278   H     0.01337   0.41603   0.23004   0.00000  Uiso   1.00
H279   H     0.30335   0.36675   0.28517   0.00000  Uiso   1.00
H280   H     0.02934   0.47624   0.05342   0.00000  Uiso   1.00
H281   H     0.02194   0.34658   0.27684   0.00000  Uiso   1.00
H282   H     0.31337   0.65384   0.24328   0.00000  Uiso   1.00
H283   H     0.07890   0.53474   0.26006   0.00000  Uiso   1.00
H284   H     0.02438   0.52902   0.27371   0.00000  Uiso   1.00
H285   H     0.07264   0.61689   0.28321   0.00000  Uiso   1.00
H286   H     0.01957   0.60581   0.30083   0.00000  Uiso   1.00
H287   H     0.04306   0.54991   0.03008   0.00000  Uiso   1.00
H288   H     0.06504   0.60416   0.04055   0.00000  Uiso   1.00
H289   H     0.09638   0.56056   0.01329   0.00000  Uiso   1.00
H290   H     0.21148   0.36111   0.27050   0.00000  Uiso   1.00
H291   H     0.06375   0.38144   0.04338   0.00000  Uiso   1.00
H292   H     0.11622   0.59450   0.10509   0.00000  Uiso   1.00
H293   H     0.13197   0.36187   0.05845   0.00000  Uiso   1.00
H294   H     0.21760   0.59343   0.22859   0.00000  Uiso   1.00
H295   H     0.01858   0.40630   0.01590   0.00000  Uiso   1.00
H296   H     0.06379   0.45672   0.29741   0.00000  Uiso   1.00
H297   H     0.07540   0.39842   0.28674   0.00000  Uiso   1.00
H298   H     0.10901   0.43081   0.32540   0.00000  Uiso   1.00
H299   H     0.26326   0.62901   0.14252   0.00000  Uiso   1.00
H300   H     0.27205   0.57869   0.10862   0.00000  Uiso   1.00
N301   N     0.16667   0.61907   0.16667   0.00000  Uiso   1.00
N302   N     0.16667   0.38093   0.16667   0.00000  Uiso   1.00
O303   O     0.10559   0.53821   0.16666   0.00000  Uiso   1.00
O304   O     0.29361   0.58086   0.18336   0.00000  Uiso   1.00
O305   O     0.29481   0.42018   0.14337   0.00000  Uiso   1.00
O306   O     0.04034   0.56990   0.21182   0.00000  Uiso   1.00
O307   O     0.20099   0.38160   0.24421   0.00000  Uiso   1.00
O308   O     0.12781   0.62211   0.09082   0.00000  Uiso   1.00
O309   O     0.13468   0.38184   0.08772   0.00000  Uiso   1.00
O310   O     0.20619   0.62127   0.24248   0.00000  Uiso   1.00
O311   O     0.22774   0.46179   0.16667   0.00000  Uiso   1.00
O312   O     0.22774   0.53821   0.16667   0.00000  Uiso   1.00
O313   O     0.10559   0.46179   0.16666   0.00000  Uiso   1.00
O314   O     0.16667   0.53821   0.09511   0.00000  Uiso   1.00
O315   O     0.16666   0.46179   0.23822   0.00000  Uiso   1.00
O316   O     0.16666   0.53821   0.23822   0.00000  Uiso   1.00
O317   O     0.16667   0.46179   0.09511   0.00000  Uiso   1.00
O318   O     0.04112   0.43194   0.11403   0.00000  Uiso   1.00
Zn319  Zn    0.16667   0.55104   0.16667   0.00000  Uiso   1.00
Zn320  Zn    0.16667   0.44896   0.16667   0.00000  Uiso   1.00
C321   C     0.42024   0.50011   0.16559   0.00000  Uiso   1.00
C322   C     0.35464   0.53690   0.18408   0.00000  Uiso   1.00
C323   C     0.62450   0.50027   0.16428   0.00000  Uiso   1.00
C324   C     0.37626   0.50060   0.16369   0.00000  Uiso   1.00
C325   C     0.51717   0.35753   0.20552   0.00000  Uiso   1.00
C326   C     0.48194   0.64329   0.12853   0.00000  Uiso   1.00
C327   C     0.48366   0.35779   0.12747   0.00000  Uiso   1.00
C328   C     0.51860   0.64289   0.20466   0.00000  Uiso   1.00
C329   C     0.38477   0.44989   0.06656   0.00000  Uiso   1.00
C330   C     0.38433   0.41280   0.02733   0.00000  Uiso   1.00
C331   C     0.40962   0.42567   0.31471   0.00000  Uiso   1.00
C332   C     0.58004   0.49997   0.16608   0.00000  Uiso   1.00
C333   C     0.61946   0.60181   0.13641   0.00000  Uiso   1.00
C334   C     0.65869   0.62188   0.11385   0.00000  Uiso   1.00
C335   C     0.64854   0.64983   0.06756   0.00000  Uiso   1.00
C336   C     0.62408   0.39771   0.19002   0.00000  Uiso   1.00
C337   C     0.66549   0.38540   0.21469   0.00000  Uiso   1.00
C338   C     0.65882   0.35270   0.25764   0.00000  Uiso   1.00
C339   C     0.38206   0.55256   0.26017   0.00000  Uiso   1.00
C340   C     0.38420   0.59103   0.29710   0.00000  Uiso   1.00
C341   C     0.39817   0.57510   0.01510   0.00000  Uiso   1.00
C342   C     0.50031   0.50006   0.07300   0.00000  Uiso   1.00
C343   C     0.50025   0.49996   0.26033   0.00000  Uiso   1.00
C344   C     0.50065   0.50013   0.02182   0.00000  Uiso   1.00
C345   C     0.50063   0.50001   0.31151   0.00000  Uiso   1.00
C346   C     0.35502   0.46486   0.14181   0.00000  Uiso   1.00
C347   C     0.64611   0.53995   0.17571   0.00000  Uiso   1.00
C348   C     0.64658   0.46128   0.15079   0.00000  Uiso   1.00
H349   H     0.41606   0.46482   0.06869   0.00000  Uiso   1.00
H350   H     0.34120   0.64284   0.14187   0.00000  Uiso   1.00
H351   H     0.34669   0.59450   0.10298   0.00000  Uiso   1.00
H352   H     0.63166   0.62941   0.03962   0.00000  Uiso   1.00
H353   H     0.34418   0.66164   0.05022   0.00000  Uiso   1.00
H354   H     0.62941   0.34598   0.07783   0.00000  Uiso   1.00
H355   H     0.60646   0.36661   0.18298   0.00000  Uiso   1.00
H356   H     0.60591   0.41763   0.21730   0.00000  Uiso   1.00
H357   H     0.35363   0.37061   0.18706   0.00000  Uiso   1.00
H358   H     0.34670   0.41603   0.23004   0.00000  Uiso   1.00
H359   H     0.63668   0.36675   0.28517   0.00000  Uiso   1.00
H360   H     0.36267   0.47624   0.05342   0.00000  Uiso   1.00
H361   H     0.35527   0.34658   0.27684   0.00000  Uiso   1.00
H362   H     0.64670   0.65384   0.24328   0.00000  Uiso   1.00
H363   H     0.41223   0.53474   0.26006   0.00000  Uiso   1.00
H364   H     0.35771   0.52902   0.27371   0.00000  Uiso   1.00
H365   H     0.40597   0.61689   0.28321   0.00000  Uiso   1.00
H366   H     0.35291   0.60581   0.30083   0.00000  Uiso   1.00
H367   H     0.37639   0.54991   0.03008   0.00000  Uiso   1.00
H368   H     0.39837   0.60416   0.04055   0.00000  Uiso   1.00
H369   H     0.42971   0.56056   0.01329   0.00000  Uiso   1.00
H370   H     0.54482   0.36111   0.27050   0.00000  Uiso   1.00
H371   H     0.39709   0.38144   0.04338   0.00000  Uiso   1.00
H372   H     0.44955   0.59450   0.10509   0.00000  Uiso   1.00
H373   H     0.46530   0.36187   0.05845   0.00000  Uiso   1.00
H374   H     0.55093   0.59343   0.22859   0.00000  Uiso   1.00
H375   H     0.35191   0.40630   0.01590   0.00000  Uiso   1.00
H376   H     0.39713   0.45672   0.29741   0.00000  Uiso   1.00
H377   H     0.40873   0.39842   0.28674   0.00000  Uiso   1.00
H378   H     0.44235   0.43081   0.32540   0.00000  Uiso   1.00
H379   H     0.59659   0.62901   0.14252   0.00000  Uiso   1.00
H380   H     0.60539   0.57869   0.10862   0.00000  Uiso   1.00
N381   N     0.50000   0.61907   0.16667   0.00000  Uiso   1.00
N382   N     0.50000   0.38093   0.16667   0.00000  Uiso   1.00
O383   O     0.43892   0.53821   0.16666   0.00000  Uiso   1.00
O384   O     0.62695   0.58086   0.18336   0.00000  Uiso   1.00
O385   O     0.62815   0.42018   0.14337   0.00000  Uiso   1.00
O386   O     0.37367   0.56990   0.21182   0.00000  Uiso   1.00
O387   O     0.53433   0.38160   0.24421   0.00000  Uiso   1.00
O388   O     0.46115   0.62211   0.09082   0.00000  Uiso   1.00
O389   O     0.46801   0.38184   0.08772   0.00000  Uiso   1.00
O390   O     0.53952   0.62127   0.24248   0.00000  Uiso   1.00
O391   O     0.56108   0.46179   0.16667   0.00000  Uiso   1.00
O392   O     0.56108   0.53821   0.16667   0.00000  Uiso   1.00
O393   O     0.43892   0.46179   0.16666   0.00000  Uiso   1.00
O394   O     0.50000   0.53821   0.09511   0.00000  Uiso   1.00
O395   O     0.50000   0.46179   0.23822   0.00000  Uiso   1.00
O396   O     0.50000   0.53821   0.23822   0.00000  Uiso   1.00
O397   O     0.50000   0.46179   0.09511   0.00000  Uiso   1.00
O398   O     0.37445   0.43194   0.11403   0.00000  Uiso   1.00
Zn399  Zn    0.50000   0.55104   0.16667   0.00000  Uiso   1.00
Zn400  Zn    0.50000   0.44896   0.16667   0.00000  Uiso   1.00
C401   C     0.75358   0.50011   0.16559   0.00000  Uiso   1.00
C402   C     0.68797   0.53690   0.18408   0.00000  Uiso   1.00
C403   C     0.95783   0.50027   0.16428   0.00000  Uiso   1.00
C404   C     0.70960   0.50060   0.16369   0.00000  Uiso   1.00
C405   C     0.85050   0.35753   0.20552   0.00000  Uiso   1.00
C406   C     0.81527   0.64329   0.12853   0.00000  Uiso   1.00
C407   C     0.81699   0.35779   0.12747   0.00000  Uiso   1.00
C408   C     0.85193   0.64289   0.20466   0.00000  Uiso   1.00
C409   C     0.71811   0.44989   0.06656   0.00000  Uiso   1.00
C410   C     0.71767   0.41280   0.02733   0.00000  Uiso   1.00
C411   C     0.74295   0.42567   0.31471   0.00000  Uiso   1.00
C412   C     0.91338   0.49997   0.16608   0.00000  Uiso   1.00
C413   C     0.95280   0.60181   0.13641   0.00000  Uiso   1.00
C414   C     0.99203   0.62188   0.11385   0.00000  Uiso   1.00
C415   C     0.98187   0.64983   0.06756   0.00000  Uiso   1.00
C416   C     0.95741   0.39771   0.19002   0.00000  Uiso   1.00
C417   C     0.99883   0.38540   0.21469   0.00000  Uiso   1.00
C418   C     0.99215   0.35270   0.25764   0.00000  Uiso   1.00
C419   C     0.71539   0.55256   0.26017   0.00000  Uiso   1.00
C420   C     0.71753   0.59103   0.29710   0.00000  Uiso   1.00
C421   C     0.73150   0.57510   0.01510   0.00000  Uiso   1.00
C422   C     0.83364   0.50006   0.07300   0.00000  Uiso   1.00
C423   C     0.83359   0.49996   0.26033   0.00000  Uiso   1.00
C424   C     0.83398   0.50013   0.02182   0.00000  Uiso   1.00
C425   C     0.83396   0.50001   0.31151   0.00000  Uiso   1.00
C426   C     0.68836   0.46486   0.14181   0.00000  Uiso   1.00
C427   C     0.97944   0.53995   0.17571   0.00000  Uiso   1.00
C428   C     0.97991   0.46128   0.15079   0.00000  Uiso   1.00
H429   H     0.74939   0.46482   0.06869   0.00000  Uiso   1.00
H430   H     0.67453   0.64284   0.14187   0.00000  Uiso   1.00
H431   H     0.68002   0.59450   0.10298   0.00000  Uiso   1.00
H432   H     0.96500   0.62941   0.03962   0.00000  Uiso   1.00
H433   H     0.67751   0.66164   0.05022   0.00000  Uiso   1.00
H434   H     0.96275   0.34598   0.07783   0.00000  Uiso   1.00
H435   H     0.93979   0.36661   0.18298   0.00000  Uiso   1.00
H436   H     0.93924   0.41763   0.21730   0.00000  Uiso   1.00
H437   H     0.68697   0.37061   0.18706   0.00000  Uiso   1.00
H438   H     0.68004   0.41603   0.23004   0.00000  Uiso   1.00
H439   H     0.97001   0.36675   0.28517   0.00000  Uiso   1.00
H440   H     0.69600   0.47624   0.05342   0.00000  Uiso   1.00
H441   H     0.68861   0.34658   0.27684   0.00000  Uiso   1.00
H442   H     0.98004   0.65384   0.24328   0.00000  Uiso   1.00
H443   H     0.74556   0.53474   0.26006   0.00000  Uiso   1.00
H444   H     0.69104   0.52902   0.27371   0.00000  Uiso   1.00
H445   H     0.73931   0.61689   0.28321   0.00000  Uiso   1.00
H446   H     0.68624   0.60581   0.30083   0.00000  Uiso   1.00
H447   H     0.70973   0.54991   0.03008   0.00000  Uiso   1.00
H448   H     0.73171   0.60416   0.04055   0.00000  Uiso   1.00
H449   H     0.76304   0.56056   0.01329   0.00000  Uiso   1.00
H450   H     0.87815   0.36111   0.27050   0.00000  Uiso   1.00
H451   H     0.73042   0.38144   0.04338   0.00000  Uiso   1.00
H452   H     0.78289   0.59450   0.10509   0.00000  Uiso   1.00
H453   H     0.79864   0.36187   0.05845   0.00000  Uiso   1.00
H454   H     0.88426   0.59343   0.22859   0.00000  Uiso   1.00
H455   H     0.68525   0.40630   0.01590   0.00000  Uiso   1.00
H456   H     0.73046   0.45672   0.29741   0.00000  Uiso   1.00
H457   H     0.74207   0.39842   0.28674   0.00000  Uiso   1.00
H458   H     0.77568   0.43081   0.32540   0.00000  Uiso   1.00
H459   H     0.92993   0.62901   0.14252   0.00000  Uiso   1.00
H460   H     0.93872   0.57869   0.10862   0.00000  Uiso   1.00
N461   N     0.83333   0.61907   0.16667   0.00000  Uiso   1.00
N462   N     0.83333   0.38093   0.16667   0.00000  Uiso   1.00
O463   O     0.77226   0.53821   0.16666   0.00000  Uiso   1.00
O464   O     0.96028   0.58086   0.18336   0.00000  Uiso   1.00
O465   O     0.96148   0.42018   0.14337   0.00000  Uiso   1.00
O466   O     0.70701   0.56990   0.21182   0.00000  Uiso   1.00
O467   O     0.86766   0.38160   0.24421   0.00000  Uiso   1.00
O468   O     0.79448   0.62211   0.09082   0.00000  Uiso   1.00
O469   O     0.80135   0.38184   0.08772   0.00000  Uiso   1.00
O470   O     0.87285   0.62127   0.24248   0.00000  Uiso   1.00
O471   O     0.89441   0.46179   0.16667   0.00000  Uiso   1.00
O472   O     0.89441   0.53821   0.16667   0.00000  Uiso   1.00
O473   O     0.77226   0.46179   0.16666   0.00000  Uiso   1.00
O474   O     0.83334   0.53821   0.09511   0.00000  Uiso   1.00
O475   O     0.83333   0.46179   0.23822   0.00000  Uiso   1.00
O476   O     0.83333   0.53821   0.23822   0.00000  Uiso   1.00
O477   O     0.83334   0.46179   0.09511   0.00000  Uiso   1.00
O478   O     0.70779   0.43194   0.11403   0.00000  Uiso   1.00
Zn479  Zn    0.83333   0.55104   0.16667   0.00000  Uiso   1.00
Zn480  Zn    0.83333   0.44896   0.16667   0.00000  Uiso   1.00
C481   C     0.08691   0.83345   0.16559   0.00000  Uiso   1.00
C482   C     0.02130   0.87024   0.18408   0.00000  Uiso   1.00
C483   C     0.29116   0.83360   0.16428   0.00000  Uiso   1.00
C484   C     0.04293   0.83394   0.16369   0.00000  Uiso   1.00
C485   C     0.18383   0.69086   0.20552   0.00000  Uiso   1.00
C486   C     0.14861   0.97662   0.12853   0.00000  Uiso   1.00
C487   C     0.15032   0.69112   0.12747   0.00000  Uiso   1.00
C488   C     0.18527   0.97622   0.20466   0.00000  Uiso   1.00
C489   C     0.05144   0.78322   0.06656   0.00000  Uiso   1.00
C490   C     0.05100   0.74613   0.02733   0.00000  Uiso   1.00
C491   C     0.07628   0.75900   0.31471   0.00000  Uiso   1.00
C492   C     0.24671   0.83330   0.16608   0.00000  Uiso   1.00
C493   C     0.28613   0.93515   0.13641   0.00000  Uiso   1.00
C494   C     0.32536   0.95521   0.11385   0.00000  Uiso   1.00
C495   C     0.31520   0.98316   0.06756   0.00000  Uiso   1.00
C496   C     0.29074   0.73104   0.19002   0.00000  Uiso   1.00
C497   C     0.33216   0.71874   0.21469   0.00000  Uiso   1.00
C498   C     0.32548   0.68603   0.25764   0.00000  Uiso   1.00
C499   C     0.04873   0.88590   0.26017   0.00000  Uiso   1.00
C500   C     0.05087   0.92437   0.29710   0.00000  Uiso   1.00
C501   C     0.06484   0.90843   0.01510   0.00000  Uiso   1.00
C502   C     0.16698   0.83339   0.07300   0.00000  Uiso   1.00
C503   C     0.16692   0.83330   0.26033   0.00000  Uiso   1.00
C504   C     0.16731   0.83346   0.02182   0.00000  Uiso   1.00
C505   C     0.16729   0.83334   0.31151   0.00000  Uiso   1.00
C506   C     0.02169   0.79819   0.14181   0.00000  Uiso   1.00
C507   C     0.31278   0.87328   0.17571   0.00000  Uiso   1.00
C508   C     0.31324   0.79462   0.15079   0.00000  Uiso   1.00
H509   H     0.08273   0.79816   0.06869   0.00000  Uiso   1.00
H510   H     0.00787   0.97618   0.14187   0.00000  Uiso   1.00
H511   H     0.01336   0.92784   0.10298   0.00000  Uiso   1.00
H512   H     0.29833   0.96274   0.03962   0.00000  Uiso   1.00
H513   H     0.01084   0.99498   0.05022   0.00000  Uiso   1.00
H514   H     0.29608   0.67931   0.07783   0.00000  Uiso   1.00
H515   H     0.27312   0.69994   0.18298   0.00000  Uiso   1.00
H516   H     0.27257   0.75097   0.21730   0.00000  Uiso   1.00
H517   H     0.02030   0.70395   0.18706   0.00000  Uiso   1.00
H518   H     0.01337   0.74937   0.23004   0.00000  Uiso   1.00
H519   H     0.30335   0.70009   0.28517   0.00000  Uiso   1.00
H520   H     0.02934   0.80957   0.05342   0.00000  Uiso   1.00
H521   H     0.02194   0.67991   0.27684   0.00000  Uiso   1.00
H522   H     0.31337   0.98717   0.24328   0.00000  Uiso   1.00
H523   H     0.07890   0.86807   0.26006   0.00000  Uiso   1.00
H524   H     0.02438   0.86235   0.27371   0.00000  Uiso   1.00
H525   H     0.07264   0.95023   0.28321   0.00000  Uiso   1.00
H526   H     0.01957   0.93914   0.30083   0.00000  Uiso   1.00
H527   H     0.04306   0.88324   0.03008   0.00000  Uiso   1.00
H528   H     0.06504   0.93750   0.04055   0.00000  Uiso   1.00
H529   H     0.09638   0.89389   0.01329   0.00000  Uiso   1.00
H530   H     0.21148   0.69444   0.27050   0.00000  Uiso   1.00
H531   H     0.06375   0.71477   0.04338   0.00000  Uiso   1.00
H532   H     0.11622   0.92783   0.10509   0.00000  Uiso   1.00
H533   H     0.13197   0.69520   0.05845   0.00000  Uiso   1.00
H534   H     0.21760   0.92676   0.22859   0.00000  Uiso   1.00
H535   H     0.01858   0.73963   0.01590   0.00000  Uiso   1.00
H536   H     0.06379   0.79005   0.29741   0.00000  Uiso   1.00
H537   H     0.07540   0.73175   0.28674   0.00000  Uiso   1.00
H538   H     0.10901   0.76414   0.32540   0.00000  Uiso   1.00
H539   H     0.26326   0.96234   0.14252   0.00000  Uiso   1.00
H540   H     0.27205   0.91202   0.10862   0.00000  Uiso   1.00
N541   N     0.16667   0.95240   0.16667   0.00000  Uiso   1.00
N542   N     0.16667   0.71427   0.16667   0.00000  Uiso   1.00
O543   O     0.10559   0.87154   0.16666   0.00000  Uiso   1.00
O544   O     0.29361   0.91419   0.18336   0.00000  Uiso   1.00
O545   O     0.29481   0.75351   0.14337   0.00000  Uiso   1.00
O546   O     0.04034   0.90324   0.21182   0.00000  Uiso   1.00
O547   O     0.20099   0.71493   0.24421   0.00000  Uiso   1.00
O548   O     0.12781   0.95545   0.09082   0.00000  Uiso   1.00
O549   O     0.13468   0.71517   0.08772   0.00000  Uiso   1.00
O550   O     0.20619   0.95460   0.24248   0.00000  Uiso   1.00
O551   O     0.22774   0.79513   0.16667   0.00000  Uiso   1.00
O552   O     0.22774   0.87154   0.16667   0.00000  Uiso   1.00
O553   O     0.10559   0.79513   0.16666   0.00000  Uiso   1.00
O554   O     0.16667   0.87155   0.09511   0.00000  Uiso   1.00
O555   O     0.16666   0.79512   0.23822   0.00000  Uiso   1.00
O556   O     0.16666   0.87155   0.23822   0.00000  Uiso   1.00
O557   O     0.16667   0.79512   0.09511   0.00000  Uiso   1.00
O558   O     0.04112   0.76527   0.11403   0.00000  Uiso   1.00
Zn559  Zn    0.16667   0.88437   0.16667   0.00000  Uiso   1.00
Zn560  Zn    0.16667   0.78229   0.16667   0.00000  Uiso   1.00
C561   C     0.42024   0.83345   0.16559   0.00000  Uiso   1.00
C562   C     0.35464   0.87024   0.18408   0.00000  Uiso   1.00
C563   C     0.62450   0.83360   0.16428   0.00000  Uiso   1.00
C564   C     0.37626   0.83394   0.16369   0.00000  Uiso   1.00
C565   C     0.51717   0.69086   0.20552   0.00000  Uiso   1.00
C566   C     0.48194   0.97662   0.12853   0.00000  Uiso   1.00
C567   C     0.48366   0.69112   0.12747   0.00000  Uiso   1.00
C568   C     0.51860   0.97622   0.20466   0.00000  Uiso   1.00
C569   C     0.38477   0.78322   0.06656   0.00000  Uiso   1.00
C570   C     0.38433   0.74613   0.02733   0.00000  Uiso   1.00
C571   C     0.40962   0.75900   0.31471   0.00000  Uiso   1.00
C572   C     0.58004   0.83330   0.16608   0.00000  Uiso   1.00
C573   C     0.61946   0.93515   0.13641   0.00000  Uiso   1.00
C574   C     0.65869   0.95521   0.11385   0.00000  Uiso   1.00
C575   C     0.64854   0.98316   0.06756   0.00000  Uiso   1.00
C576   C     0.62408   0.73104   0.19002   0.00000  Uiso   1.00
C577   C     0.66549   0.71874   0.21469   0.00000  Uiso   1.00
C578   C     0.65882   0.68603   0.25764   0.00000  Uiso   1.00
C579   C     0.38206   0.88590   0.26017   0.00000  Uiso   1.00
C580   C     0.38420   0.92437   0.29710   0.00000  Uiso   1.00
C581   C     0.39817   0.90843   0.01510   0.00000  Uiso   1.00
C582   C     0.50031   0.83339   0.07300   0.00000  Uiso   1.00
C583   C     0.50025   0.83330   0.26033   0.00000  Uiso   1.00
C584   C     0.50065   0.83346   0.02182   0.00000  Uiso   1.00
C585   C     0.50063   0.83334   0.31151   0.00000  Uiso   1.00
C586   C     0.35502   0.79819   0.14181   0.00000  Uiso   1.00
C587   C     0.64611   0.87328   0.17571   0.00000  Uiso   1.00
C588   C     0.64658   0.79462   0.15079   0.00000  Uiso   1.00
H589   H     0.41606   0.79816   0.06869   0.00000  Uiso   1.00
H590   H     0.34120   0.97618   0.14187   0.00000  Uiso   1.00
H591   H     0.34669   0.92784   0.10298   0.00000  Uiso   1.00
H592   H     0.63166   0.96274   0.03962   0.00000  Uiso   1.00
H593   H     0.34418   0.99498   0.05022   0.00000  Uiso   1.00
H594   H     0.62941   0.67931   0.07783   0.00000  Uiso   1.00
H595   H     0.60646   0.69994   0.18298   0.00000  Uiso   1.00
H596   H     0.60591   0.75097   0.21730   0.00000  Uiso   1.00
H597   H     0.35363   0.70395   0.18706   0.00000  Uiso   1.00
H598   H     0.34670   0.74937   0.23004   0.00000  Uiso   1.00
H599   H     0.63668   0.70009   0.28517   0.00000  Uiso   1.00
H600   H     0.36267   0.80957   0.05342   0.00000  Uiso   1.00
H601   H     0.35527   0.67991   0.27684   0.00000  Uiso   1.00
H602   H     0.64670   0.98717   0.24328   0.00000  Uiso   1.00
H603   H     0.41223   0.86807   0.26006   0.00000  Uiso   1.00
H604   H     0.35771   0.86235   0.27371   0.00000  Uiso   1.00
H605   H     0.40597   0.95023   0.28321   0.00000  Uiso   1.00
H606   H     0.35291   0.93914   0.30083   0.00000  Uiso   1.00
H607   H     0.37639   0.88324   0.03008   0.00000  Uiso   1.00
H608   H     0.39837   0.93750   0.04055   0.00000  Uiso   1.00
H609   H     0.42971   0.89389   0.01329   0.00000  Uiso   1.00
H610   H     0.54482   0.69444   0.27050   0.00000  Uiso   1.00
H611   H     0.39709   0.71477   0.04338   0.00000  Uiso   1.00
H612   H     0.44955   0.92783   0.10509   0.00000  Uiso   1.00
H613   H     0.46530   0.69520   0.05845   0.00000  Uiso   1.00
H614   H     0.55093   0.92676   0.22859   0.00000  Uiso   1.00
H615   H     0.35191   0.73963   0.01590   0.00000  Uiso   1.00
H616   H     0.39713   0.79005   0.29741   0.00000  Uiso   1.00
H617   H     0.40873   0.73175   0.28674   0.00000  Uiso   1.00
H618   H     0.44235   0.76414   0.32540   0.00000  Uiso   1.00
H619   H     0.59659   0.96234   0.14252   0.00000  Uiso   1.00
H620   H     0.60539   0.91202   0.10862   0.00000  Uiso   1.00
N621   N     0.50000   0.95240   0.16667   0.00000  Uiso   1.00
N622   N     0.50000   0.71427   0.16667   0.00000  Uiso   1.00
O623   O     0.43892   0.87154   0.16666   0.00000  Uiso   1.00
O624   O     0.62695   0.91419   0.18336   0.00000  Uiso   1.00
O625   O     0.62815   0.75351   0.14337   0.00000  Uiso   1.00
O626   O     0.37367   0.90324   0.21182   0.00000  Uiso   1.00
O627   O     0.53433   0.71493   0.24421   0.00000  Uiso   1.00
O628   O     0.46115   0.95545   0.09082   0.00000  Uiso   1.00
O629   O     0.46801   0.71517   0.08772   0.00000  Uiso   1.00
O630   O     0.53952   0.95460   0.24248   0.00000  Uiso   1.00
O631   O     0.56108   0.79513   0.16667   0.00000  Uiso   1.00
O632   O     0.56108   0.87154   0.16667   0.00000  Uiso   1.00
O633   O     0.43892   0.79513   0.16666   0.00000  Uiso   1.00
O634   O     0.50000   0.87155   0.09511   0.00000  Uiso   1.00
O635   O     0.50000   0.79512   0.23822   0.00000  Uiso   1.00
O636   O     0.50000   0.87155   0.23822   0.00000  Uiso   1.00
O637   O     0.50000   0.79512   0.09511   0.00000  Uiso   1.00
O638   O     0.37445   0.76527   0.11403   0.00000  Uiso   1.00
Zn639  Zn    0.50000   0.88437   0.16667   0.00000  Uiso   1.00
Zn640  Zn    0.50000   0.78229   0.16667   0.00000  Uiso   1.00
C641   C     0.75358   0.83345   0.16559   0.00000  Uiso   1.00
C642   C     0.68797   0.87024   0.18408   0.00000  Uiso   1.00
C643   C     0.95783   0.83360   0.16428   0.00000  Uiso   1.00
C644   C     0.70960   0.83394   0.16369   0.00000  Uiso   1.00
C645   C     0.85050   0.69086   0.20552   0.00000  Uiso   1.00
C646   C     0.81527   0.97662   0.12853   0.00000  Uiso   1.00
C647   C     0.81699   0.69112   0.12747   0.00000  Uiso   1.00
C648   C     0.85193   0.97622   0.20466   0.00000  Uiso   1.00
C649   C     0.71811   0.78322   0.06656   0.00000  Uiso   1.00
C650   C     0.71767   0.74613   0.02733   0.00000  Uiso   1.00
C651   C     0.74295   0.75900   0.31471   0.00000  Uiso   1.00
C652   C     0.91338   0.83330   0.16608   0.00000  Uiso   1.00
C653   C     0.95280   0.93515   0.13641   0.00000  Uiso   1.00
C654   C     0.99203   0.95521   0.11385   0.00000  Uiso   1.00
C655   C     0.98187   0.98316   0.06756   0.00000  Uiso   1.00
C656   C     0.95741   0.73104   0.19002   0.00000  Uiso   1.00
C657   C     0.99883   0.71874   0.21469   0.00000  Uiso   1.00
C658   C     0.99215   0.68603   0.25764   0.00000  Uiso   1.00
C659   C     0.71539   0.88590   0.26017   0.00000  Uiso   1.00
C660   C     0.71753   0.92437   0.29710   0.00000  Uiso   1.00
C661   C     0.73150   0.90843   0.01510   0.00000  Uiso   1.00
C662   C     0.83364   0.83339   0.07300   0.00000  Uiso   1.00
C663   C     0.83359   0.83330   0.26033   0.00000  Uiso   1.00
C664   C     0.83398   0.83346   0.02182   0.00000  Uiso   1.00
C665   C     0.83396   0.83334   0.31151   0.00000  Uiso   1.00
C666   C     0.68836   0.79819   0.14181   0.00000  Uiso   1.00
C667   C     0.97944   0.87328   0.17571   0.00000  Uiso   1.00
C668   C     0.97991   0.79462   0.15079   0.00000  Uiso   1.00
H669   H     0.74939   0.79816   0.06869   0.00000  Uiso   1.00
H670   H     0.67453   0.97618   0.14187   0.00000  Uiso   1.00
H671   H     0.68002   0.92784   0.10298   0.00000  Uiso   1.00
H672   H     0.96500   0.96274   0.03962   0.00000  Uiso   1.00
H673   H     0.67751   0.99498   0.05022   0.00000  Uiso   1.00
H674   H     0.96275   0.67931   0.07783   0.00000  Uiso   1.00
H675   H     0.93979   0.69994   0.18298   0.00000  Uiso   1.00
H676   H     0.93924   0.75097   0.21730   0.00000  Uiso   1.00
H677   H     0.68697   0.70395   0.18706   0.00000  Uiso   1.00
H678   H     0.68004   0.74937   0.23004   0.00000  Uiso   1.00
H679   H     0.97001   0.70009   0.28517   0.00000  Uiso   1.00
H680   H     0.69600   0.80957   0.05342   0.00000  Uiso   1.00
H681   H     0.68861   0.67991   0.27684   0.00000  Uiso   1.00
H682   H     0.98004   0.98717   0.24328   0.00000  Uiso   1.00
H683   H     0.74556   0.86807   0.26006   0.00000  Uiso   1.00
H684   H     0.69104   0.86235   0.27371   0.00000  Uiso   1.00
H685   H     0.73931   0.95023   0.28321   0.00000  Uiso   1.00
H686   H     0.68624   0.93914   0.30083   0.00000  Uiso   1.00
H687   H     0.70973   0.88324   0.03008   0.00000  Uiso   1.00
H688   H     0.73171   0.93750   0.04055   0.00000  Uiso   1.00
H689   H     0.76304   0.89389   0.01329   0.00000  Uiso   1.00
H690   H     0.87815   0.69444   0.27050   0.00000  Uiso   1.00
H691   H     0.73042   0.71477   0.04338   0.00000  Uiso   1.00
H692   H     0.78289   0.92783   0.10509   0.00000  Uiso   1.00
H693   H     0.79864   0.69520   0.05845   0.00000  Uiso   1.00
H694   H     0.88426   0.92676   0.22859   0.00000  Uiso   1.00
H695   H     0.68525   0.73963   0.01590   0.00000  Uiso   1.00
H696   H     0.73046   0.79005   0.29741   0.00000  Uiso   1.00
H697   H     0.74207   0.73175   0.28674   0.00000  Uiso   1.00
H698   H     0.77568   0.76414   0.32540   0.00000  Uiso   1.00
H699   H     0.92993   0.96234   0.14252   0.00000  Uiso   1.00
H700   H     0.93872   0.91202   0.10862   0.00000  Uiso   1.00
N701   N     0.83333   0.95240   0.16667   0.00000  Uiso   1.00
N702   N     0.83333   0.71427   0.16667   0.00000  Uiso   1.00
O703   O     0.77226   0.87154   0.16666   0.00000  Uiso   1.00
O704   O     0.96028   0.91419   0.18336   0.00000  Uiso   1.00
O705   O     0.96148   0.75351   0.14337   0.00000  Uiso   1.00
O706   O     0.70701   0.90324   0.21182   0.00000  Uiso   1.00
O707   O     0.86766   0.71493   0.24421   0.00000  Uiso   1.00
O708   O     0.79448   0.95545   0.09082   0.00000  Uiso   1.00
O709   O     0.80135   0.71517   0.08772   0.00000  Uiso   1.00
O710   O     0.87285   0.95460   0.24248   0.00000  Uiso   1.00
O711   O     0.89441   0.79513   0.16667   0.00000  Uiso   1.00
O712   O     0.89441   0.87154   0.16667   0.00000  Uiso   1.00
O713   O     0.77226   0.79513   0.16666   0.00000  Uiso   1.00
O714   O     0.83334   0.87155   0.09511   0.00000  Uiso   1.00
O715   O     0.83333   0.79512   0.23822   0.00000  Uiso   1.00
O716   O     0.83333   0.87155   0.23822   0.00000  Uiso   1.00
O717   O     0.83334   0.79512   0.09511   0.00000  Uiso   1.00
O718   O     0.70779   0.76527   0.11403   0.00000  Uiso   1.00
Zn719  Zn    0.83333   0.88437   0.16667   0.00000  Uiso   1.00
Zn720  Zn    0.83333   0.78229   0.16667   0.00000  Uiso   1.00
C721   C     0.08691   0.16678   0.49892   0.00000  Uiso   1.00
C722   C     0.02130   0.20357   0.51741   0.00000  Uiso   1.00
C723   C     0.29116   0.16694   0.49761   0.00000  Uiso   1.00
C724   C     0.04293   0.16727   0.49702   0.00000  Uiso   1.00
C725   C     0.18383   0.02419   0.53885   0.00000  Uiso   1.00
C726   C     0.14861   0.30996   0.46187   0.00000  Uiso   1.00
C727   C     0.15032   0.02445   0.46080   0.00000  Uiso   1.00
C728   C     0.18527   0.30956   0.53799   0.00000  Uiso   1.00
C729   C     0.05144   0.11656   0.39989   0.00000  Uiso   1.00
C730   C     0.05100   0.07947   0.36066   0.00000  Uiso   1.00
C731   C     0.07628   0.09234   0.64804   0.00000  Uiso   1.00
C732   C     0.24671   0.16664   0.49941   0.00000  Uiso   1.00
C733   C     0.28613   0.26848   0.46974   0.00000  Uiso   1.00
C734   C     0.32536   0.28854   0.44719   0.00000  Uiso   1.00
C735   C     0.31520   0.31650   0.40089   0.00000  Uiso   1.00
C736   C     0.29074   0.06437   0.52336   0.00000  Uiso   1.00
C737   C     0.33216   0.05207   0.54802   0.00000  Uiso   1.00
C738   C     0.32548   0.01937   0.59098   0.00000  Uiso   1.00
C739   C     0.04873   0.21923   0.59351   0.00000  Uiso   1.00
C740   C     0.05087   0.25770   0.63043   0.00000  Uiso   1.00
C741   C     0.06484   0.24176   0.34843   0.00000  Uiso   1.00
C742   C     0.16698   0.16673   0.40634   0.00000  Uiso   1.00
C743   C     0.16692   0.16663   0.59366   0.00000  Uiso   1.00
C744   C     0.16731   0.16679   0.35515   0.00000  Uiso   1.00
C745   C     0.16729   0.16668   0.64485   0.00000  Uiso   1.00
C746   C     0.02169   0.13152   0.47515   0.00000  Uiso   1.00
C747   C     0.31278   0.20662   0.50904   0.00000  Uiso   1.00
C748   C     0.31324   0.12795   0.48413   0.00000  Uiso   1.00
H749   H     0.08273   0.13149   0.40202   0.00000  Uiso   1.00
H750   H     0.00787   0.30951   0.47520   0.00000  Uiso   1.00
H751   H     0.01336   0.26117   0.43631   0.00000  Uiso   1.00
H752   H     0.29833   0.29607   0.37295   0.00000  Uiso   1.00
H753   H     0.01084   0.32831   0.38355   0.00000  Uiso   1.00
H754   H     0.29608   0.01265   0.41116   0.00000  Uiso   1.00
H755   H     0.27312   0.03328   0.51631   0.00000  Uiso   1.00
H756   H     0.27257   0.08430   0.55063   0.00000  Uiso   1.00
H757   H     0.02030   0.03728   0.52039   0.00000  Uiso   1.00
H758   H     0.01337   0.08270   0.56337   0.00000  Uiso   1.00
H759   H     0.30335   0.03342   0.61850   0.00000  Uiso   1.00
H760   H     0.02934   0.14290   0.38675   0.00000  Uiso   1.00
H761   H     0.02194   0.01325   0.61017   0.00000  Uiso   1.00
H762   H     0.31337   0.32050   0.57661   0.00000  Uiso   1.00
H763   H     0.07890   0.20140   0.59340   0.00000  Uiso   1.00
H764   H     0.02438   0.19569   0.60704   0.00000  Uiso   1.00
H765   H     0.07264   0.28356   0.61654   0.00000  Uiso   1.00
H766   H     0.01957   0.27248   0.63416   0.00000  Uiso   1.00
H767   H     0.04306   0.21658   0.36342   0.00000  Uiso   1.00
H768   H     0.06504   0.27083   0.37388   0.00000  Uiso   1.00
H769   H     0.09638   0.22722   0.34663   0.00000  Uiso   1.00
H770   H     0.21148   0.02778   0.60383   0.00000  Uiso   1.00
H771   H     0.06375   0.04810   0.37671   0.00000  Uiso   1.00
H772   H     0.11622   0.26116   0.43842   0.00000  Uiso   1.00
H773   H     0.13197   0.02854   0.39178   0.00000  Uiso   1.00
H774   H     0.21760   0.26010   0.56192   0.00000  Uiso   1.00
H775   H     0.01858   0.07296   0.34924   0.00000  Uiso   1.00
H776   H     0.06379   0.12338   0.63074   0.00000  Uiso   1.00
H777   H     0.07540   0.06508   0.62008   0.00000  Uiso   1.00
H778   H     0.10901   0.09747   0.65873   0.00000  Uiso   1.00
H779   H     0.26326   0.29567   0.47585   0.00000  Uiso   1.00
H780   H     0.27205   0.24536   0.44195   0.00000  Uiso   1.00
N781   N     0.16667   0.28573   0.50000   0.00000  Uiso   1.00
N782   N     0.16667   0.04760   0.50000   0.00000  Uiso   1.00
O783   O     0.10559   0.20487   0.50000   0.00000  Uiso   1.00
O784   O     0.29361   0.24752   0.51670   0.00000  Uiso   1.00
O785   O     0.29481   0.08684   0.47670   0.00000  Uiso   1.00
O786   O     0.04034   0.23657   0.54515   0.00000  Uiso   1.00
O787   O     0.20099   0.04826   0.57755   0.00000  Uiso   1.00
O788   O     0.12781   0.28878   0.42415   0.00000  Uiso   1.00
O789   O     0.13468   0.04851   0.42105   0.00000  Uiso   1.00
O790   O     0.20619   0.28793   0.57581   0.00000  Uiso   1.00
O791   O     0.22774   0.12846   0.50000   0.00000  Uiso   1.00
O792   O     0.22774   0.20487   0.50000   0.00000  Uiso   1.00
O793   O     0.10559   0.12846   0.50000   0.00000  Uiso   1.00
O794   O     0.16667   0.20488   0.42845   0.00000  Uiso   1.00
O795   O     0.16666   0.12845   0.57155   0.00000  Uiso   1.00
O796   O     0.16666   0.20488   0.57155   0.00000  Uiso   1.00
O797   O     0.16667   0.12845   0.42845   0.00000  Uiso   1.00
O798   O     0.04112   0.09860   0.44737   0.00000  Uiso   1.00
Zn799  Zn    0.16667   0.21771   0.50000   0.00000  Uiso   1.00
Zn800  Zn    0.16667   0.11563   0.50000   0.00000  Uiso   1.00
C801   C     0.42024   0.16678   0.49892   0.00000  Uiso   1.00
C802   C     0.35464   0.20357   0.51741   0.00000  Uiso   1.00
C803   C     0.62450   0.16694   0.49761   0.00000  Uiso   1.00
C804   C     0.37626   0.16727   0.49702   0.00000  Uiso   1.00
C805   C     0.51717   0.02419   0.53885   0.00000  Uiso   1.00
C806   C     0.48194   0.30996   0.46187   0.00000  Uiso   1.00
C807   C     0.48366   0.02445   0.46080   0.00000  Uiso   1.00
C808   C     0.51860   0.30956   0.53799   0.00000  Uiso   1.00
C809   C     0.38477   0.11656   0.39989   0.00000  Uiso   1.00
C810   C     0.38433   0.07947   0.36066   0.00000  Uiso   1.00
C811   C     0.40962   0.09234   0.64804   0.00000  Uiso   1.00
C812   C     0.58004   0.16664   0.49941   0.00000  Uiso   1.00
C813   C     0.61946   0.26848   0.46974   0.00000  Uiso   1.00
C814   C     0.65869   0.28854   0.44719   0.00000  Uiso   1.00
C815   C     0.64854   0.31650   0.40089   0.00000  Uiso   1.00
C816   C     0.62408   0.06437   0.52336   0.00000  Uiso   1.00
C817   C     0.66549   0.05207   0.54802   0.00000  Uiso   1.00
C818   C     0.65882   0.01937   0.59098   0.00000  Uiso   1.00
C819   C     0.38206   0.21923   0.59351   0.00000  Uiso   1.00
C820   C     0.38420   0.25770   0.63043   0.00000  Uiso   1.00
C821   C     0.39817   0.24176   0.34843   0.00000  Uiso   1.00
C822   C     0.50031   0.16673   0.40634   0.00000  Uiso   1.00
C823   C     0.50025   0.16663   0.59366   0.00000  Uiso   1.00
C824   C     0.50065   0.16679   0.35515   0.00000  Uiso   1.00
C825   C     0.50063   0.16668   0.64485   0.00000  Uiso   1.00
C826   C     0.35502   0.13152   0.47515   0.00000  Uiso   1.00
C827   C     0.64611   0.20662   0.50904   0.00000  Uiso   1.00
C828   C     0.64658   0.12795   0.48413   0.00000  Uiso   1.00
H829   H     0.41606   0.13149   0.40202   0.00000  Uiso   1.00
H830   H     0.34120   0.30951   0.47520   0.00000  Uiso   1.00
H831   H     0.34669   0.26117   0.43631   0.00000  Uiso   1.00
H832   H     0.63166   0.29607   0.37295   0.00000  Uiso   1.00
H833   H     0.34418   0.32831   0.38355   0.00000  Uiso   1.00
H834   H     0.62941   0.01265   0.41116   0.00000  Uiso   1.00
H835   H     0.60646   0.03328   0.51631   0.00000  Uiso   1.00
H836   H     0.60591   0.08430   0.55063   0.00000  Uiso   1.00
H837   H     0.35363   0.03728   0.52039   0.00000  Uiso   1.00
H838   H     0.34670   0.08270   0.56337   0.00000  Uiso   1.00
H839   H     0.63668   0.03342   0.61850   0.00000  Uiso   1.00
H840   H     0.36267   0.14290   0.38675   0.00000  Uiso   1.00
H841   H     0.35527   0.01325   0.61017   0.00000  Uiso   1.00
H842   H     0.64670   0.32050   0.57661   0.00000  Uiso   1.00
H843   H     0.41223   0.20140   0.59340   0.00000  Uiso   1.00
H844   H     0.35771   0.19569   0.60704   0.00000  Uiso   1.00
H845   H     0.40597   0.28356   0.61654   0.00000  Uiso   1.00
H846   H     0.35291   0.27248   0.63416   0.00000  Uiso   1.00
H847   H     0.37639   0.21658   0.36342   0.00000  Uiso   1.00
H848   H     0.39837   0.27083   0.37388   0.00000  Uiso   1.00
H849   H     0.42971   0.22722   0.34663   0.00000  Uiso   1.00
H850   H     0.54482   0.02778   0.60383   0.00000  Uiso   1.00
H851   H     0.39709   0.04810   0.37671   0.00000  Uiso   1.00
H852   H     0.44955   0.26116   0.43842   0.00000  Uiso   1.00
H853   H     0.46530   0.02854   0.39178   0.00000  Uiso   1.00
H854   H     0.55093   0.26010   0.56192   0.00000  Uiso   1.00
H855   H     0.35191   0.07296   0.34924   0.00000  Uiso   1.00
H856   H     0.39713   0.12338   0.63074   0.00000  Uiso   1.00
H857   H     0.40873   0.06508   0.62008   0.00000  Uiso   1.00
H858   H     0.44235   0.09747   0.65873   0.00000  Uiso   1.00
H859   H     0.59659   0.29567   0.47585   0.00000  Uiso   1.00
H860   H     0.60539   0.24536   0.44195   0.00000  Uiso   1.00
N861   N     0.50000   0.28573   0.50000   0.00000  Uiso   1.00
N862   N     0.50000   0.04760   0.50000   0.00000  Uiso   1.00
O863   O     0.43892   0.20487   0.50000   0.00000  Uiso   1.00
O864   O     0.62695   0.24752   0.51670   0.00000  Uiso   1.00
O865   O     0.62815   0.08684   0.47670   0.00000  Uiso   1.00
O866   O     0.37367   0.23657   0.54515   0.00000  Uiso   1.00
O867   O     0.53433   0.04826   0.57755   0.00000  Uiso   1.00
O868   O     0.46115   0.28878   0.42415   0.00000  Uiso   1.00
O869   O     0.46801   0.04851   0.42105   0.00000  Uiso   1.00
O870   O     0.53952   0.28793   0.57581   0.00000  Uiso   1.00
O871   O     0.56108   0.12846   0.50000   0.00000  Uiso   1.00
O872   O     0.56108   0.20487   0.50000   0.00000  Uiso   1.00
O873   O     0.43892   0.12846   0.50000   0.00000  Uiso   1.00
O874   O     0.50000   0.20488   0.42845   0.00000  Uiso   1.00
O875   O     0.50000   0.12845   0.57155   0.00000  Uiso   1.00
O876   O     0.50000   0.20488   0.57155   0.00000  Uiso   1.00
O877   O     0.50000   0.12845   0.42845   0.00000  Uiso   1.00
O878   O     0.37445   0.09860   0.44737   0.00000  Uiso   1.00
Zn879  Zn    0.50000   0.21771   0.50000   0.00000  Uiso   1.00
Zn880  Zn    0.50000   0.11563   0.50000   0.00000  Uiso   1.00
C881   C     0.75358   0.16678   0.49892   0.00000  Uiso   1.00
C882   C     0.68797   0.20357   0.51741   0.00000  Uiso   1.00
C883   C     0.95783   0.16694   0.49761   0.00000  Uiso   1.00
C884   C     0.70960   0.16727   0.49702   0.00000  Uiso   1.00
C885   C     0.85050   0.02419   0.53885   0.00000  Uiso   1.00
C886   C     0.81527   0.30996   0.46187   0.00000  Uiso   1.00
C887   C     0.81699   0.02445   0.46080   0.00000  Uiso   1.00
C888   C     0.85193   0.30956   0.53799   0.00000  Uiso   1.00
C889   C     0.71811   0.11656   0.39989   0.00000  Uiso   1.00
C890   C     0.71767   0.07947   0.36066   0.00000  Uiso   1.00
C891   C     0.74295   0.09234   0.64804   0.00000  Uiso   1.00
C892   C     0.91338   0.16664   0.49941   0.00000  Uiso   1.00
C893   C     0.95280   0.26848   0.46974   0.00000  Uiso   1.00
C894   C     0.99203   0.28854   0.44719   0.00000  Uiso   1.00
C895   C     0.98187   0.31650   0.40089   0.00000  Uiso   1.00
C896   C     0.95741   0.06437   0.52336   0.00000  Uiso   1.00
C897   C     0.99883   0.05207   0.54802   0.00000  Uiso   1.00
C898   C     0.99215   0.01937   0.59098   0.00000  Uiso   1.00
C899   C     0.71539   0.21923   0.59351   0.00000  Uiso   1.00
C900   C     0.71753   0.25770   0.63043   0.00000  Uiso   1.00
C901   C     0.73150   0.24176   0.34843   0.00000  Uiso   1.00
C902   C     0.83364   0.16673   0.40634   0.00000  Uiso   1.00
C903   C     0.83359   0.16663   0.59366   0.00000  Uiso   1.00
C904   C     0.83398   0.16679   0.35515   0.00000  Uiso   1.00
C905   C     0.83396   0.16668   0.64485   0.00000  Uiso   1.00
C906   C     0.68836   0.13152   0.47515   0.00000  Uiso   1.00
C907   C     0.97944   0.20662   0.50904   0.00000  Uiso   1.00
C908   C     0.97991   0.12795   0.48413   0.00000  Uiso   1.00
H909   H     0.74939   0.13149   0.40202   0.00000  Uiso   1.00
H910   H     0.67453   0.30951   0.47520   0.00000  Uiso   1.00
H911   H     0.68002   0.26117   0.43631   0.00000  Uiso   1.00
H912   H     0.96500   0.29607   0.37295   0.00000  Uiso   1.00
H913   H     0.67751   0.32831   0.38355   0.00000  Uiso   1.00
H914   H     0.96275   0.01265   0.41116   0.00000  Uiso   1.00
H915   H     0.93979   0.03328   0.51631   0.00000  Uiso   1.00
H916   H     0.93924   0.08430   0.55063   0.00000  Uiso   1.00
H917   H     0.68697   0.03728   0.52039   0.00000  Uiso   1.00
H918   H     0.68004   0.08270   0.56337   0.00000  Uiso   1.00
H919   H     0.97001   0.03342   0.61850   0.00000  Uiso   1.00
H920   H     0.69600   0.14290   0.38675   0.00000  Uiso   1.00
H921   H     0.68861   0.01325   0.61017   0.00000  Uiso   1.00
H922   H     0.98004   0.32050   0.57661   0.00000  Uiso   1.00
H923   H     0.74556   0.20140   0.59340   0.00000  Uiso   1.00
H924   H     0.69104   0.19569   0.60704   0.00000  Uiso   1.00
H925   H     0.73931   0.28356   0.61654   0.00000  Uiso   1.00
H926   H     0.68624   0.27248   0.63416   0.00000  Uiso   1.00
H927   H     0.70973   0.21658   0.36342   0.00000  Uiso   1.00
H928   H     0.73171   0.27083   0.37388   0.00000  Uiso   1.00
H929   H     0.76304   0.22722   0.34663   0.00000  Uiso   1.00
H930   H     0.87815   0.02778   0.60383   0.00000  Uiso   1.00
H931   H     0.73042   0.04810   0.37671   0.00000  Uiso   1.00
H932   H     0.78289   0.26116   0.43842   0.00000  Uiso   1.00
H933   H     0.79864   0.02854   0.39178   0.00000  Uiso   1.00
H934   H     0.88426   0.26010   0.56192   0.00000  Uiso   1.00
H935   H     0.68525   0.07296   0.34924   0.00000  Uiso   1.00
H936   H     0.73046   0.12338   0.63074   0.00000  Uiso   1.00
H937   H     0.74207   0.06508   0.62008   0.00000  Uiso   1.00
H938   H     0.77568   0.09747   0.65873   0.00000  Uiso   1.00
H939   H     0.92993   0.29567   0.47585   0.00000  Uiso   1.00
H940   H     0.93872   0.24536   0.44195   0.00000  Uiso   1.00
N941   N     0.83333   0.28573   0.50000   0.00000  Uiso   1.00
N942   N     0.83333   0.04760   0.50000   0.00000  Uiso   1.00
O943   O     0.77226   0.20487   0.50000   0.00000  Uiso   1.00
O944   O     0.96028   0.24752   0.51670   0.00000  Uiso   1.00
O945   O     0.96148   0.08684   0.47670   0.00000  Uiso   1.00
O946   O     0.70701   0.23657   0.54515   0.00000  Uiso   1.00
O947   O     0.86766   0.04826   0.57755   0.00000  Uiso   1.00
O948   O     0.79448   0.28878   0.42415   0.00000  Uiso   1.00
O949   O     0.80135   0.04851   0.42105   0.00000  Uiso   1.00
O950   O     0.87285   0.28793   0.57581   0.00000  Uiso   1.00
O951   O     0.89441   0.12846   0.50000   0.00000  Uiso   1.00
O952   O     0.89441   0.20487   0.50000   0.00000  Uiso   1.00
O953   O     0.77226   0.12846   0.50000   0.00000  Uiso   1.00
O954   O     0.83334   0.20488   0.42845   0.00000  Uiso   1.00
O955   O     0.83333   0.12845   0.57155   0.00000  Uiso   1.00
O956   O     0.83333   0.20488   0.57155   0.00000  Uiso   1.00
O957   O     0.83334   0.12845   0.42845   0.00000  Uiso   1.00
O958   O     0.70779   0.09860   0.44737   0.00000  Uiso   1.00
Zn959  Zn    0.83333   0.21771   0.50000   0.00000  Uiso   1.00
Zn960  Zn    0.83333   0.11563   0.50000   0.00000  Uiso   1.00
C961   C     0.08691   0.50011   0.49892   0.00000  Uiso   1.00
C962   C     0.02130   0.53690   0.51741   0.00000  Uiso   1.00
C963   C     0.29116   0.50027   0.49761   0.00000  Uiso   1.00
C964   C     0.04293   0.50060   0.49702   0.00000  Uiso   1.00
C965   C     0.18383   0.35753   0.53885   0.00000  Uiso   1.00
C966   C     0.14861   0.64329   0.46187   0.00000  Uiso   1.00
C967   C     0.15032   0.35779   0.46080   0.00000  Uiso   1.00
C968   C     0.18527   0.64289   0.53799   0.00000  Uiso   1.00
C969   C     0.05144   0.44989   0.39989   0.00000  Uiso   1.00
C970   C     0.05100   0.41280   0.36066   0.00000  Uiso   1.00
C971   C     0.07628   0.42567   0.64804   0.00000  Uiso   1.00
C972   C     0.24671   0.49997   0.49941   0.00000  Uiso   1.00
C973   C     0.28613   0.60181   0.46974   0.00000  Uiso   1.00
C974   C     0.32536   0.62188   0.44719   0.00000  Uiso   1.00
C975   C     0.31520   0.64983   0.40089   0.00000  Uiso   1.00
C976   C     0.29074   0.39771   0.52336   0.00000  Uiso   1.00
C977   C     0.33216   0.38540   0.54802   0.00000  Uiso   1.00
C978   C     0.32548   0.35270   0.59098   0.00000  Uiso   1.00
C979   C     0.04873   0.55256   0.59351   0.00000  Uiso   1.00
C980   C     0.05087   0.59103   0.63043   0.00000  Uiso   1.00
C981   C     0.06484   0.57510   0.34843   0.00000  Uiso   1.00
C982   C     0.16698   0.50006   0.40634   0.00000  Uiso   1.00
C983   C     0.16692   0.49996   0.59366   0.00000  Uiso   1.00
C984   C     0.16731   0.50013   0.35515   0.00000  Uiso   1.00
C985   C     0.16729   0.50001   0.64485   0.00000  Uiso   1.00
C986   C     0.02169   0.46486   0.47515   0.00000  Uiso   1.00
C987   C     0.31278   0.53995   0.50904   0.00000  Uiso   1.00
C988   C     0.31324   0.46128   0.48413   0.00000  Uiso   1.00
H989   H     0.08273   0.46482   0.40202   0.00000  Uiso   1.00
H990   H     0.00787   0.64284   0.47520   0.00000  Uiso   1.00
H991   H     0.01336   0.59450   0.43631   0.00000  Uiso   1.00
H992   H     0.29833   0.62941   0.37295   0.00000  Uiso   1.00
H993   H     0.01084   0.66164   0.38355   0.00000  Uiso   1.00
H994   H     0.29608   0.34598   0.41116   0.00000  Uiso   1.00
H995   H     0.27312   0.36661   0.51631   0.00000  Uiso   1.00
H996   H     0.27257   0.41763   0.55063   0.00000  Uiso   1.00
H997   H     0.02030   0.37061   0.52039   0.00000  Uiso   1.00
H998   H     0.01337   0.41603   0.56337   0.00000  Uiso   1.00
H999   H     0.30335   0.36675   0.61850   0.00000  Uiso   1.00
H1000  H     0.02934   0.47624   0.38675   0.00000  Uiso   1.00
H1001  H     0.02194   0.34658   0.61017   0.00000  Uiso   1.00
H1002  H     0.31337   0.65384   0.57661   0.00000  Uiso   1.00
H1003  H     0.07890   0.53474   0.59340   0.00000  Uiso   1.00
H1004  H     0.02438   0.52902   0.60704   0.00000  Uiso   1.00
H1005  H     0.07264   0.61689   0.61654   0.00000  Uiso   1.00
H1006  H     0.01957   0.60581   0.63416   0.00000  Uiso   1.00
H1007  H     0.04306   0.54991   0.36342   0.00000  Uiso   1.00
H1008  H     0.06504   0.60416   0.37388   0.00000  Uiso   1.00
H1009  H     0.09638   0.56056   0.34663   0.00000  Uiso   1.00
H1010  H     0.21148   0.36111   0.60383   0.00000  Uiso   1.00
H1011  H     0.06375   0.38144   0.37671   0.00000  Uiso   1.00
H1012  H     0.11622   0.59450   0.43842   0.00000  Uiso   1.00
H1013  H     0.13197   0.36187   0.39178   0.00000  Uiso   1.00
H1014  H     0.21760   0.59343   0.56192   0.00000  Uiso   1.00
H1015  H     0.01858   0.40630   0.34924   0.00000  Uiso   1.00
H1016  H     0.06379   0.45672   0.63074   0.00000  Uiso   1.00
H1017  H     0.07540   0.39842   0.62008   0.00000  Uiso   1.00
H1018  H     0.10901   0.43081   0.65873   0.00000  Uiso   1.00
H1019  H     0.26326   0.62901   0.47585   0.00000  Uiso   1.00
H1020  H     0.27205   0.57869   0.44195   0.00000  Uiso   1.00
N1021  N     0.16667   0.61907   0.50000   0.00000  Uiso   1.00
N1022  N     0.16667   0.38093   0.50000   0.00000  Uiso   1.00
O1023  O     0.10559   0.53821   0.50000   0.00000  Uiso   1.00
O1024  O     0.29361   0.58086   0.51670   0.00000  Uiso   1.00
O1025  O     0.29481   0.42018   0.47670   0.00000  Uiso   1.00
O1026  O     0.04034   0.56990   0.54515   0.00000  Uiso   1.00
O1027  O     0.20099   0.38160   0.57755   0.00000  Uiso   1.00
O1028  O     0.12781   0.62211   0.42415   0.00000  Uiso   1.00
O1029  O     0.13468   0.38184   0.42105   0.00000  Uiso   1.00
O1030  O     0.20619   0.62127   0.57581   0.00000  Uiso   1.00
O1031  O     0.22774   0.46179   0.50000   0.00000  Uiso   1.00
O1032  O     0.22774   0.53821   0.50000   0.00000  Uiso   1.00
O1033  O     0.10559   0.46179   0.50000   0.00000  Uiso   1.00
O1034  O     0.16667   0.53821   0.42845   0.00000  Uiso   1.00
O1035  O     0.16666   0.46179   0.57155   0.00000  Uiso   1.00
O1036  O     0.16666   0.53821   0.57155   0.00000  Uiso   1.00
O1037  O     0.16667   0.46179   0.42845   0.00000  Uiso   1.00
O1038  O     0.04112   0.43194   0.44737   0.00000  Uiso   1.00
Zn1039 Zn    0.16667   0.55104   0.50000   0.00000  Uiso   1.00
Zn1040 Zn    0.16667   0.44896   0.50000   0.00000  Uiso   1.00
C1041  C     0.42024   0.50011   0.49892   0.00000  Uiso   1.00
C1042  C     0.35464   0.53690   0.51741   0.00000  Uiso   1.00
C1043  C     0.62450   0.50027   0.49761   0.00000  Uiso   1.00
C1044  C     0.37626   0.50060   0.49702   0.00000  Uiso   1.00
C1045  C     0.51717   0.35753   0.53885   0.00000  Uiso   1.00
C1046  C     0.48194   0.64329   0.46187   0.00000  Uiso   1.00
C1047  C     0.48366   0.35779   0.46080   0.00000  Uiso   1.00
C1048  C     0.51860   0.64289   0.53799   0.00000  Uiso   1.00
C1049  C     0.38477   0.44989   0.39989   0.00000  Uiso   1.00
C1050  C     0.38433   0.41280   0.36066   0.00000  Uiso   1.00
C1051  C     0.40962   0.42567   0.64804   0.00000  Uiso   1.00
C1052  C     0.58004   0.49997   0.49941   0.00000  Uiso   1.00
C1053  C     0.61946   0.60181   0.46974   0.00000  Uiso   1.00
C1054  C     0.65869   0.62188   0.44719   0.00000  Uiso   1.00
C1055  C     0.64854   0.64983   0.40089   0.00000  Uiso   1.00
C1056  C     0.62408   0.39771   0.52336   0.00000  Uiso   1.00
C1057  C     0.66549   0.38540   0.54802   0.00000  Uiso   1.00
C1058  C     0.65882   0.35270   0.59098   0.00000  Uiso   1.00
C1059  C     0.38206   0.55256   0.59351   0.00000  Uiso   1.00
C1060  C     0.38420   0.59103   0.63043   0.00000  Uiso   1.00
C1061  C     0.39817   0.57510   0.34843   0.00000  Uiso   1.00
C1062  C     0.50031   0.50006   0.40634   0.00000  Uiso   1.00
C1063  C     0.50025   0.49996   0.59366   0.00000  Uiso   1.00
C1064  C     0.50065   0.50013   0.35515   0.00000  Uiso   1.00
C1065  C     0.50063   0.50001   0.64485   0.00000  Uiso   1.00
C1066  C     0.35502   0.46486   0.47515   0.00000  Uiso   1.00
C1067  C     0.64611   0.53995   0.50904   0.00000  Uiso   1.00
C1068  C     0.64658   0.46128   0.48413   0.00000  Uiso   1.00
H1069  H     0.41606   0.46482   0.40202   0.00000  Uiso   1.00
H1070  H     0.34120   0.64284   0.47520   0.00000  Uiso   1.00
H1071  H     0.34669   0.59450   0.43631   0.00000  Uiso   1.00
H1072  H     0.63166   0.62941   0.37295   0.00000  Uiso   1.00
H1073  H     0.34418   0.66164   0.38355   0.00000  Uiso   1.00
H1074  H     0.62941   0.34598   0.41116   0.00000  Uiso   1.00
H1075  H     0.60646   0.36661   0.51631   0.00000  Uiso   1.00
H1076  H     0.60591   0.41763   0.55063   0.00000  Uiso   1.00
H1077  H     0.35363   0.37061   0.52039   0.00000  Uiso   1.00
H1078  H     0.34670   0.41603   0.56337   0.00000  Uiso   1.00
H1079  H     0.63668   0.36675   0.61850   0.00000  Uiso   1.00
H1080  H     0.36267   0.47624   0.38675   0.00000  Uiso   1.00
H1081  H     0.35527   0.34658   0.61017   0.00000  Uiso   1.00
H1082  H     0.64670   0.65384   0.57661   0.00000  Uiso   1.00
H1083  H     0.41223   0.53474   0.59340   0.00000  Uiso   1.00
H1084  H     0.35771   0.52902   0.60704   0.00000  Uiso   1.00
H1085  H     0.40597   0.61689   0.61654   0.00000  Uiso   1.00
H1086  H     0.35291   0.60581   0.63416   0.00000  Uiso   1.00
H1087  H     0.37639   0.54991   0.36342   0.00000  Uiso   1.00
H1088  H     0.39837   0.60416   0.37388   0.00000  Uiso   1.00
H1089  H     0.42971   0.56056   0.34663   0.00000  Uiso   1.00
H1090  H     0.54482   0.36111   0.60383   0.00000  Uiso   1.00
H1091  H     0.39709   0.38144   0.37671   0.00000  Uiso   1.00
H1092  H     0.44955   0.59450   0.43842   0.00000  Uiso   1.00
H1093  H     0.46530   0.36187   0.39178   0.00000  Uiso   1.00
H1094  H     0.55093   0.59343   0.56192   0.00000  Uiso   1.00
H1095  H     0.35191   0.40630   0.34924   0.00000  Uiso   1.00
H1096  H     0.39713   0.45672   0.63074   0.00000  Uiso   1.00
H1097  H     0.40873   0.39842   0.62008   0.00000  Uiso   1.00
H1098  H     0.44235   0.43081   0.65873   0.00000  Uiso   1.00
H1099  H     0.59659   0.62901   0.47585   0.00000  Uiso   1.00
H1100  H     0.60539   0.57869   0.44195   0.00000  Uiso   1.00
N1101  N     0.50000   0.61907   0.50000   0.00000  Uiso   1.00
N1102  N     0.50000   0.38093   0.50000   0.00000  Uiso   1.00
O1103  O     0.43892   0.53821   0.50000   0.00000  Uiso   1.00
O1104  O     0.62695   0.58086   0.51670   0.00000  Uiso   1.00
O1105  O     0.62815   0.42018   0.47670   0.00000  Uiso   1.00
O1106  O     0.37367   0.56990   0.54515   0.00000  Uiso   1.00
O1107  O     0.53433   0.38160   0.57755   0.00000  Uiso   1.00
O1108  O     0.46115   0.62211   0.42415   0.00000  Uiso   1.00
O1109  O     0.46801   0.38184   0.42105   0.00000  Uiso   1.00
O1110  O     0.53952   0.62127   0.57581   0.00000  Uiso   1.00
O1111  O     0.56108   0.46179   0.50000   0.00000  Uiso   1.00
O1112  O     0.56108   0.53821   0.50000   0.00000  Uiso   1.00
O1113  O     0.43892   0.46179   0.50000   0.00000  Uiso   1.00
O1114  O     0.50000   0.53821   0.42845   0.00000  Uiso   1.00
O1115  O     0.50000   0.46179   0.57155   0.00000  Uiso   1.00
O1116  O     0.50000   0.53821   0.57155   0.00000  Uiso   1.00
O1117  O     0.50000   0.46179   0.42845   0.00000  Uiso   1.00
O1118  O     0.37445   0.43194   0.44737   0.00000  Uiso   1.00
Zn1119 Zn    0.50000   0.55104   0.50000   0.00000  Uiso   1.00
Zn1120 Zn    0.50000   0.44896   0.50000   0.00000  Uiso   1.00
C1121  C     0.75358   0.50011   0.49892   0.00000  Uiso   1.00
C1122  C     0.68797   0.53690   0.51741   0.00000  Uiso   1.00
C1123  C     0.95783   0.50027   0.49761   0.00000  Uiso   1.00
C1124  C     0.70960   0.50060   0.49702   0.00000  Uiso   1.00
C1125  C     0.85050   0.35753   0.53885   0.00000  Uiso   1.00
C1126  C     0.81527   0.64329   0.46187   0.00000  Uiso   1.00
C1127  C     0.81699   0.35779   0.46080   0.00000  Uiso   1.00
C1128  C     0.85193   0.64289   0.53799   0.00000  Uiso   1.00
C1129  C     0.71811   0.44989   0.39989   0.00000  Uiso   1.00
C1130  C     0.71767   0.41280   0.36066   0.00000  Uiso   1.00
C1131  C     0.74295   0.42567   0.64804   0.00000  Uiso   1.00
C1132  C     0.91338   0.49997   0.49941   0.00000  Uiso   1.00
C1133  C     0.95280   0.60181   0.46974   0.00000  Uiso   1.00
C1134  C     0.99203   0.62188   0.44719   0.00000  Uiso   1.00
C1135  C     0.98187   0.64983   0.40089   0.00000  Uiso   1.00
C1136  C     0.95741   0.39771   0.52336   0.00000  Uiso   1.00
C1137  C     0.99883   0.38540   0.54802   0.00000  Uiso   1.00
C1138  C     0.99215   0.35270   0.59098   0.00000  Uiso   1.00
C1139  C     0.71539   0.55256   0.59351   0.00000  Uiso   1.00
C1140  C     0.71753   0.59103   0.63043   0.00000  Uiso   1.00
C1141  C     0.73150   0.57510   0.34843   0.00000  Uiso   1.00
C1142  C     0.83364   0.50006   0.40634   0.00000  Uiso   1.00
C1143  C     0.83359   0.49996   0.59366   0.00000  Uiso   1.00
C1144  C     0.83398   0.50013   0.35515   0.00000  Uiso   1.00
C1145  C     0.83396   0.50001   0.64485   0.00000  Uiso   1.00
C1146  C     0.68836   0.46486   0.47515   0.00000  Uiso   1.00
C1147  C     0.97944   0.53995   0.50904   0.00000  Uiso   1.00
C1148  C     0.97991   0.46128   0.48413   0.00000  Uiso   1.00
H1149  H     0.74939   0.46482   0.40202   0.00000  Uiso   1.00
H1150  H     0.67453   0.64284   0.47520   0.00000  Uiso   1.00
H1151  H     0.68002   0.59450   0.43631   0.00000  Uiso   1.00
H1152  H     0.96500   0.62941   0.37295   0.00000  Uiso   1.00
H1153  H     0.67751   0.66164   0.38355   0.00000  Uiso   1.00
H1154  H     0.96275   0.34598   0.41116   0.00000  Uiso   1.00
H1155  H     0.93979   0.36661   0.51631   0.00000  Uiso   1.00
H1156  H     0.93924   0.41763   0.55063   0.00000  Uiso   1.00
H1157  H     0.68697   0.37061   0.52039   0.00000  Uiso   1.00
H1158  H     0.68004   0.41603   0.56337   0.00000  Uiso   1.00
H1159  H     0.97001   0.36675   0.61850   0.00000  Uiso   1.00
H1160  H     0.69600   0.47624   0.38675   0.00000  Uiso   1.00
H1161  H     0.68861   0.34658   0.61017   0.00000  Uiso   1.00
H1162  H     0.98004   0.65384   0.57661   0.00000  Uiso   1.00
H1163  H     0.74556   0.53474   0.59340   0.00000  Uiso   1.00
H1164  H     0.69104   0.52902   0.60704   0.00000  Uiso   1.00
H1165  H     0.73931   0.61689   0.61654   0.00000  Uiso   1.00
H1166  H     0.68624   0.60581   0.63416   0.00000  Uiso   1.00
H1167  H     0.70973   0.54991   0.36342   0.00000  Uiso   1.00
H1168  H     0.73171   0.60416   0.37388   0.00000  Uiso   1.00
H1169  H     0.76304   0.56056   0.34663   0.00000  Uiso   1.00
H1170  H     0.87815   0.36111   0.60383   0.00000  Uiso   1.00
H1171  H     0.73042   0.38144   0.37671   0.00000  Uiso   1.00
H1172  H     0.78289   0.59450   0.43842   0.00000  Uiso   1.00
H1173  H     0.79864   0.36187   0.39178   0.00000  Uiso   1.00
H1174  H     0.88426   0.59343   0.56192   0.00000  Uiso   1.00
H1175  H     0.68525   0.40630   0.34924   0.00000  Uiso   1.00
H1176  H     0.73046   0.45672   0.63074   0.00000  Uiso   1.00
H1177  H     0.74207   0.39842   0.62008   0.00000  Uiso   1.00
H1178  H     0.77568   0.43081   0.65873   0.00000  Uiso   1.00
H1179  H     0.92993   0.62901   0.47585   0.00000  Uiso   1.00
H1180  H     0.93872   0.57869   0.44195   0.00000  Uiso   1.00
N1181  N     0.83333   0.61907   0.50000   0.00000  Uiso   1.00
N1182  N     0.83333   0.38093   0.50000   0.00000  Uiso   1.00
O1183  O     0.77226   0.53821   0.50000   0.00000  Uiso   1.00
O1184  O     0.96028   0.58086   0.51670   0.00000  Uiso   1.00
O1185  O     0.96148   0.42018   0.47670   0.00000  Uiso   1.00
O1186  O     0.70701   0.56990   0.54515   0.00000  Uiso   1.00
O1187  O     0.86766   0.38160   0.57755   0.00000  Uiso   1.00
O1188  O     0.79448   0.62211   0.42415   0.00000  Uiso   1.00
O1189  O     0.80135   0.38184   0.42105   0.00000  Uiso   1.00
O1190  O     0.87285   0.62127   0.57581   0.00000  Uiso   1.00
O1191  O     0.89441   0.46179   0.50000   0.00000  Uiso   1.00
O1192  O     0.89441   0.53821   0.50000   0.00000  Uiso   1.00
O1193  O     0.77226   0.46179   0.50000   0.00000  Uiso   1.00
O1194  O     0.83334   0.53821   0.42845   0.00000  Uiso   1.00
O1195  O     0.83333   0.46179   0.57155   0.00000  Uiso   1.00
O1196  O     0.83333   0.53821   0.57155   0.00000  Uiso   1.00
O1197  O     0.83334   0.46179   0.42845   0.00000  Uiso   1.00
O1198  O     0.70779   0.43194   0.44737   0.00000  Uiso   1.00
Zn1199 Zn    0.83333   0.55104   0.50000   0.00000  Uiso   1.00
Zn1200 Zn    0.83333   0.44896   0.50000   0.00000  Uiso   1.00
C1201  C     0.08691   0.83345   0.49892   0.00000  Uiso   1.00
C1202  C     0.02130   0.87024   0.51741   0.00000  Uiso   1.00
C1203  C     0.29116   0.83360   0.49761   0.00000  Uiso   1.00
C1204  C     0.04293   0.83394   0.49702   0.00000  Uiso   1.00
C1205  C     0.18383   0.69086   0.53885   0.00000  Uiso   1.00
C1206  C     0.14861   0.97662   0.46187   0.00000  Uiso   1.00
C1207  C     0.15032   0.69112   0.46080   0.00000  Uiso   1.00
C1208  C     0.18527   0.97622   0.53799   0.00000  Uiso   1.00
C1209  C     0.05144   0.78322   0.39989   0.00000  Uiso   1.00
C1210  C     0.05100   0.74613   0.36066   0.00000  Uiso   1.00
C1211  C     0.07628   0.75900   0.64804   0.00000  Uiso   1.00
C1212  C     0.24671   0.83330   0.49941   0.00000  Uiso   1.00
C1213  C     0.28613   0.93515   0.46974   0.00000  Uiso   1.00
C1214  C     0.32536   0.95521   0.44719   0.00000  Uiso   1.00
C1215  C     0.31520   0.98316   0.40089   0.00000  Uiso   1.00
C1216  C     0.29074   0.73104   0.52336   0.00000  Uiso   1.00
C1217  C     0.33216   0.71874   0.54802   0.00000  Uiso   1.00
C1218  C     0.32548   0.68603   0.59098   0.00000  Uiso   1.00
C1219  C     0.04873   0.88590   0.59351   0.00000  Uiso   1.00
C1220  C     0.05087   0.92437   0.63043   0.00000  Uiso   1.00
C1221  C     0.06484   0.90843   0.34843   0.00000  Uiso   1.00
C1222  C     0.16698   0.83339   0.40634   0.00000  Uiso   1.00
C1223  C     0.16692   0.83330   0.59366   0.00000  Uiso   1.00
C1224  C     0.16731   0.83346   0.35515   0.00000  Uiso   1.00
C1225  C     0.16729   0.83334   0.64485   0.00000  Uiso   1.00
C1226  C     0.02169   0.79819   0.47515   0.00000  Uiso   1.00
C1227  C     0.31278   0.87328   0.50904   0.00000  Uiso   1.00
C1228  C     0.31324   0.79462   0.48413   0.00000  Uiso   1.00
H1229  H     0.08273   0.79816   0.40202   0.00000  Uiso   1.00
H1230  H     0.00787   0.97618   0.47520   0.00000  Uiso   1.00
H1231  H     0.01336   0.92784   0.43631   0.00000  Uiso   1.00
H1232  H     0.29833   0.96274   0.37295   0.00000  Uiso   1.00
H1233  H     0.01084   0.99498   0.38355   0.00000  Uiso   1.00
H1234  H     0.29608   0.67931   0.41116   0.00000  Uiso   1.00
H1235  H     0.27312   0.69994   0.51631   0.00000  Uiso   1.00
H1236  H     0.27257   0.75097   0.55063   0.00000  Uiso   1.00
H1237  H     0.02030   0.70395   0.52039   0.00000  Uiso   1.00
H1238  H     0.01337   0.74937   0.56337   0.00000  Uiso   1.00
H1239  H     0.30335   0.70009   0.61850   0.00000  Uiso   1.00
H1240  H     0.02934   0.80957   0.38675   0.00000  Uiso   1.00
H1241  H     0.02194   0.67991   0.61017   0.00000  Uiso   1.00
H1242  H     0.31337   0.98717   0.57661   0.00000  Uiso   1.00
H1243  H     0.07890   0.86807   0.59340   0.00000  Uiso   1.00
H1244  H     0.02438   0.86235   0.60704   0.00000  Uiso   1.00
H1245  H     0.07264   0.95023   0.61654   0.00000  Uiso   1.00
H1246  H     0.01957   0.93914   0.63416   0.00000  Uiso   1.00
H1247  H     0.04306   0.88324   0.36342   0.00000  Uiso   1.00
H1248  H     0.06504   0.93750   0.37388   0.00000  Uiso   1.00
H1249  H     0.09638   0.89389   0.34663   0.00000  Uiso   1.00
H1250  H     0.21148   0.69444   0.60383   0.00000  Uiso   1.00
H1251  H     0.06375   0.71477   0.37671   0.00000  Uiso   1.00
H1252  H     0.11622   0.92783   0.43842   0.00000  Uiso   1.00
H1253  H     0.13197   0.69520   0.39178   0.00000  Uiso   1.00
H1254  H     0.21760   0.92676   0.56192   0.00000  Uiso   1.00
H1255  H     0.01858   0.73963   0.34924   0.00000  Uiso   1.00
H1256  H     0.06379   0.79005   0.63074   0.00000  Uiso   1.00
H1257  H     0.07540   0.73175   0.62008   0.00000  Uiso   1.00
H1258  H     0.10901   0.76414   0.65873   0.00000  Uiso   1.00
H1259  H     0.26326   0.96234   0.47585   0.00000  Uiso   1.00
H1260  H     0.27205   0.91202   0.44195   0.00000  Uiso   1.00
N1261  N     0.16667   0.95240   0.50000   0.00000  Uiso   1.00
N1262  N     0.16667   0.71427   0.50000   0.00000  Uiso   1.00
O1263  O     0.10559   0.87154   0.50000   0.00000  Uiso   1.00
O1264  O     0.29361   0.91419   0.51670   0.00000  Uiso   1.00
O1265  O     0.29481   0.75351   0.47670   0.00000  Uiso   1.00
O1266  O     0.04034   0.90324   0.54515   0.00000  Uiso   1.00
O1267  O     0.20099   0.71493   0.57755   0.00000  Uiso   1.00
O1268  O     0.12781   0.95545   0.42415   0.00000  Uiso   1.00
O1269  O     0.13468   0.71517   0.42105   0.00000  Uiso   1.00
O1270  O     0.20619   0.95460   0.57581   0.00000  Uiso   1.00
O1271  O     0.22774   0.79513   0.50000   0.00000  Uiso   1.00
O1272  O     0.22774   0.87154   0.50000   0.00000  Uiso   1.00
O1273  O     0.10559   0.79513   0.50000   0.00000  Uiso   1.00
O1274  O     0.16667   0.87155   0.42845   0.00000  Uiso   1.00
O1275  O     0.16666   0.79512   0.57155   0.00000  Uiso   1.00
O1276  O     0.16666   0.87155   0.57155   0.00000  Uiso   1.00
O1277  O     0.16667   0.79512   0.42845   0.00000  Uiso   1.00
O1278  O     0.04112   0.76527   0.44737   0.00000  Uiso   1.00
Zn1279 Zn    0.16667   0.88437   0.50000   0.00000  Uiso   1.00
Zn1280 Zn    0.16667   0.78229   0.50000   0.00000  Uiso   1.00
C1281  C     0.42024   0.83345   0.49892   0.00000  Uiso   1.00
C1282  C     0.35464   0.87024   0.51741   0.00000  Uiso   1.00
C1283  C     0.62450   0.83360   0.49761   0.00000  Uiso   1.00
C1284  C     0.37626   0.83394   0.49702   0.00000  Uiso   1.00
C1285  C     0.51717   0.69086   0.53885   0.00000  Uiso   1.00
C1286  C     0.48194   0.97662   0.46187   0.00000  Uiso   1.00
C1287  C     0.48366   0.69112   0.46080   0.00000  Uiso   1.00
C1288  C     0.51860   0.97622   0.53799   0.00000  Uiso   1.00
C1289  C     0.38477   0.78322   0.39989   0.00000  Uiso   1.00
C1290  C     0.38433   0.74613   0.36066   0.00000  Uiso   1.00
C1291  C     0.40962   0.75900   0.64804   0.00000  Uiso   1.00
C1292  C     0.58004   0.83330   0.49941   0.00000  Uiso   1.00
C1293  C     0.61946   0.93515   0.46974   0.00000  Uiso   1.00
C1294  C     0.65869   0.95521   0.44719   0.00000  Uiso   1.00
C1295  C     0.64854   0.98316   0.40089   0.00000  Uiso   1.00
C1296  C     0.62408   0.73104   0.52336   0.00000  Uiso   1.00
C1297  C     0.66549   0.71874   0.54802   0.00000  Uiso   1.00
C1298  C     0.65882   0.68603   0.59098   0.00000  Uiso   1.00
C1299  C     0.38206   0.88590   0.59351   0.00000  Uiso   1.00
C1300  C     0.38420   0.92437   0.63043   0.00000  Uiso   1.00
C1301  C     0.39817   0.90843   0.34843   0.00000  Uiso   1.00
C1302  C     0.50031   0.83339   0.40634   0.00000  Uiso   1.00
C1303  C     0.50025   0.83330   0.59366   0.00000  Uiso   1.00
C1304  C     0.50065   0.83346   0.35515   0.00000  Uiso   1.00
C1305  C     0.50063   0.83334   0.64485   0.00000  Uiso   1.00
C1306  C     0.35502   0.79819   0.47515   0.00000  Uiso   1.00
C1307  C     0.64611   0.87328   0.50904   0.00000  Uiso   1.00
C1308  C     0.64658   0.79462   0.48413   0.00000  Uiso   1.00
H1309  H     0.41606   0.79816   0.40202   0.00000  Uiso   1.00
H1310  H     0.34120   0.97618   0.47520   0.00000  Uiso   1.00
H1311  H     0.34669   0.92784   0.43631   0.00000  Uiso   1.00
H1312  H     0.63166   0.96274   0.37295   0.00000  Uiso   1.00
H1313  H     0.34418   0.99498   0.38355   0.00000  Uiso   1.00
H1314  H     0.62941   0.67931   0.41116   0.00000  Uiso   1.00
H1315  H     0.60646   0.69994   0.51631   0.00000  Uiso   1.00
H1316  H     0.60591   0.75097   0.55063   0.00000  Uiso   1.00
H1317  H     0.35363   0.70395   0.52039   0.00000  Uiso   1.00
H1318  H     0.34670   0.74937   0.56337   0.00000  Uiso   1.00
H1319  H     0.63668   0.70009   0.61850   0.00000  Uiso   1.00
H1320  H     0.36267   0.80957   0.38675   0.00000  Uiso   1.00
H1321  H     0.35527   0.67991   0.61017   0.00000  Uiso   1.00
H1322  H     0.64670   0.98717   0.57661   0.00000  Uiso   1.00
H1323  H     0.41223   0.86807   0.59340   0.00000  Uiso   1.00
H1324  H     0.35771   0.86235   0.60704   0.00000  Uiso   1.00
H1325  H     0.40597   0.95023   0.61654   0.00000  Uiso   1.00
H1326  H     0.35291   0.93914   0.63416   0.00000  Uiso   1.00
H1327  H     0.37639   0.88324   0.36342   0.00000  Uiso   1.00
H1328  H     0.39837   0.93750   0.37388   0.00000  Uiso   1.00
H1329  H     0.42971   0.89389   0.34663   0.00000  Uiso   1.00
H1330  H     0.54482   0.69444   0.60383   0.00000  Uiso   1.00
H1331  H     0.39709   0.71477   0.37671   0.00000  Uiso   1.00
H1332  H     0.44955   0.92783   0.43842   0.00000  Uiso   1.00
H1333  H     0.46530   0.69520   0.39178   0.00000  Uiso   1.00
H1334  H     0.55093   0.92676   0.56192   0.00000  Uiso   1.00
H1335  H     0.35191   0.73963   0.34924   0.00000  Uiso   1.00
H1336  H     0.39713   0.79005   0.63074   0.00000  Uiso   1.00
H1337  H     0.40873   0.73175   0.62008   0.00000  Uiso   1.00
H1338  H     0.44235   0.76414   0.65873   0.00000  Uiso   1.00
H1339  H     0.59659   0.96234   0.47585   0.00000  Uiso   1.00
H1340  H     0.60539   0.91202   0.44195   0.00000  Uiso   1.00
N1341  N     0.50000   0.95240   0.50000   0.00000  Uiso   1.00
N1342  N     0.50000   0.71427   0.50000   0.00000  Uiso   1.00
O1343  O     0.43892   0.87154   0.50000   0.00000  Uiso   1.00
O1344  O     0.62695   0.91419   0.51670   0.00000  Uiso   1.00
O1345  O     0.62815   0.75351   0.47670   0.00000  Uiso   1.00
O1346  O     0.37367   0.90324   0.54515   0.00000  Uiso   1.00
O1347  O     0.53433   0.71493   0.57755   0.00000  Uiso   1.00
O1348  O     0.46115   0.95545   0.42415   0.00000  Uiso   1.00
O1349  O     0.46801   0.71517   0.42105   0.00000  Uiso   1.00
O1350  O     0.53952   0.95460   0.57581   0.00000  Uiso   1.00
O1351  O     0.56108   0.79513   0.50000   0.00000  Uiso   1.00
O1352  O     0.56108   0.87154   0.50000   0.00000  Uiso   1.00
O1353  O     0.43892   0.79513   0.50000   0.00000  Uiso   1.00
O1354  O     0.50000   0.87155   0.42845   0.00000  Uiso   1.00
O1355  O     0.50000   0.79512   0.57155   0.00000  Uiso   1.00
O1356  O     0.50000   0.87155   0.57155   0.00000  Uiso   1.00
O1357  O     0.50000   0.79512   0.42845   0.00000  Uiso   1.00
O1358  O     0.37445   0.76527   0.44737   0.00000  Uiso   1.00
Zn1359 Zn    0.50000   0.88437   0.50000   0.00000  Uiso   1.00
Zn1360 Zn    0.50000   0.78229   0.50000   0.00000  Uiso   1.00
C1361  C     0.75358   0.83345   0.49892   0.00000  Uiso   1.00
C1362  C     0.68797   0.87024   0.51741   0.00000  Uiso   1.00
C1363  C     0.95783   0.83360   0.49761   0.00000  Uiso   1.00
C1364  C     0.70960   0.83394   0.49702   0.00000  Uiso   1.00
C1365  C     0.85050   0.69086   0.53885   0.00000  Uiso   1.00
C1366  C     0.81527   0.97662   0.46187   0.00000  Uiso   1.00
C1367  C     0.81699   0.69112   0.46080   0.00000  Uiso   1.00
C1368  C     0.85193   0.97622   0.53799   0.00000  Uiso   1.00
C1369  C     0.71811   0.78322   0.39989   0.00000  Uiso   1.00
C1370  C     0.71767   0.74613   0.36066   0.00000  Uiso   1.00
C1371  C     0.74295   0.75900   0.64804   0.00000  Uiso   1.00
C1372  C     0.91338   0.83330   0.49941   0.00000  Uiso   1.00
C1373  C     0.95280   0.93515   0.46974   0.00000  Uiso   1.00
C1374  C     0.99203   0.95521   0.44719   0.00000  Uiso   1.00
C1375  C     0.98187   0.98316   0.40089   0.00000  Uiso   1.00
C1376  C     0.95741   0.73104   0.52336   0.00000  Uiso   1.00
C1377  C     0.99883   0.71874   0.54802   0.00000  Uiso   1.00
C1378  C     0.99215   0.68603   0.59098   0.00000  Uiso   1.00
C1379  C     0.71539   0.88590   0.59351   0.00000  Uiso   1.00
C1380  C     0.71753   0.92437   0.63043   0.00000  Uiso   1.00
C1381  C     0.73150   0.90843   0.34843   0.00000  Uiso   1.00
C1382  C     0.83364   0.83339   0.40634   0.00000  Uiso   1.00
C1383  C     0.83359   0.83330   0.59366   0.00000  Uiso   1.00
C1384  C     0.83398   0.83346   0.35515   0.00000  Uiso   1.00
C1385  C     0.83396   0.83334   0.64485   0.00000  Uiso   1.00
C1386  C     0.68836   0.79819   0.47515   0.00000  Uiso   1.00
C1387  C     0.97944   0.87328   0.50904   0.00000  Uiso   1.00
C1388  C     0.97991   0.79462   0.48413   0.00000  Uiso   1.00
H1389  H     0.74939   0.79816   0.40202   0.00000  Uiso   1.00
H1390  H     0.67453   0.97618   0.47520   0.00000  Uiso   1.00
H1391  H     0.68002   0.92784   0.43631   0.00000  Uiso   1.00
H1392  H     0.96500   0.96274   0.37295   0.00000  Uiso   1.00
H1393  H     0.67751   0.99498   0.38355   0.00000  Uiso   1.00
H1394  H     0.96275   0.67931   0.41116   0.00000  Uiso   1.00
H1395  H     0.93979   0.69994   0.51631   0.00000  Uiso   1.00
H1396  H     0.93924   0.75097   0.55063   0.00000  Uiso   1.00
H1397  H     0.68697   0.70395   0.52039   0.00000  Uiso   1.00
H1398  H     0.68004   0.74937   0.56337   0.00000  Uiso   1.00
H1399  H     0.97001   0.70009   0.61850   0.00000  Uiso   1.00
H1400  H     0.69600   0.80957   0.38675   0.00000  Uiso   1.00
H1401  H     0.68861   0.67991   0.61017   0.00000  Uiso   1.00
H1402  H     0.98004   0.98717   0.57661   0.00000  Uiso   1.00
H1403  H     0.74556   0.86807   0.59340   0.00000  Uiso   1.00
H1404  H     0.69104   0.86235   0.60704   0.00000  Uiso   1.00
H1405  H     0.73931   0.95023   0.61654   0.00000  Uiso   1.00
H1406  H     0.68624   0.93914   0.63416   0.00000  Uiso   1.00
H1407  H     0.70973   0.88324   0.36342   0.00000  Uiso   1.00
H1408  H     0.73171   0.93750   0.37388   0.00000  Uiso   1.00
H1409  H     0.76304   0.89389   0.34663   0.00000  Uiso   1.00
H1410  H     0.87815   0.69444   0.60383   0.00000  Uiso   1.00
H1411  H     0.73042   0.71477   0.37671   0.00000  Uiso   1.00
H1412  H     0.78289   0.92783   0.43842   0.00000  Uiso   1.00
H1413  H     0.79864   0.69520   0.39178   0.00000  Uiso   1.00
H1414  H     0.88426   0.92676   0.56192   0.00000  Uiso   1.00
H1415  H     0.68525   0.73963   0.34924   0.00000  Uiso   1.00
H1416  H     0.73046   0.79005   0.63074   0.00000  Uiso   1.00
H1417  H     0.74207   0.73175   0.62008   0.00000  Uiso   1.00
H1418  H     0.77568   0.76414   0.65873   0.00000  Uiso   1.00
H1419  H     0.92993   0.96234   0.47585   0.00000  Uiso   1.00
H1420  H     0.93872   0.91202   0.44195   0.00000  Uiso   1.00
N1421  N     0.83333   0.95240   0.50000   0.00000  Uiso   1.00
N1422  N     0.83333   0.71427   0.50000   0.00000  Uiso   1.00
O1423  O     0.77226   0.87154   0.50000   0.00000  Uiso   1.00
O1424  O     0.96028   0.91419   0.51670   0.00000  Uiso   1.00
O1425  O     0.96148   0.75351   0.47670   0.00000  Uiso   1.00
O1426  O     0.70701   0.90324   0.54515   0.00000  Uiso   1.00
O1427  O     0.86766   0.71493   0.57755   0.00000  Uiso   1.00
O1428  O     0.79448   0.95545   0.42415   0.00000  Uiso   1.00
O1429  O     0.80135   0.71517   0.42105   0.00000  Uiso   1.00
O1430  O     0.87285   0.95460   0.57581   0.00000  Uiso   1.00
O1431  O     0.89441   0.79513   0.50000   0.00000  Uiso   1.00
O1432  O     0.89441   0.87154   0.50000   0.00000  Uiso   1.00
O1433  O     0.77226   0.79513   0.50000   0.00000  Uiso   1.00
O1434  O     0.83334   0.87155   0.42845   0.00000  Uiso   1.00
O1435  O     0.83333   0.79512   0.57155   0.00000  Uiso   1.00
O1436  O     0.83333   0.87155   0.57155   0.00000  Uiso   1.00
O1437  O     0.83334   0.79512   0.42845   0.00000  Uiso   1.00
O1438  O     0.70779   0.76527   0.44737   0.00000  Uiso   1.00
Zn1439 Zn    0.83333   0.88437   0.50000   0.00000  Uiso   1.00
Zn1440 Zn    0.83333   0.78229   0.50000   0.00000  Uiso   1.00
C1441  C     0.08691   0.16678   0.83225   0.00000  Uiso   1.00
C1442  C     0.02130   0.20357   0.85074   0.00000  Uiso   1.00
C1443  C     0.29116   0.16694   0.83094   0.00000  Uiso   1.00
C1444  C     0.04293   0.16727   0.83035   0.00000  Uiso   1.00
C1445  C     0.18383   0.02419   0.87219   0.00000  Uiso   1.00
C1446  C     0.14861   0.30996   0.79520   0.00000  Uiso   1.00
C1447  C     0.15032   0.02445   0.79414   0.00000  Uiso   1.00
C1448  C     0.18527   0.30956   0.87133   0.00000  Uiso   1.00
C1449  C     0.05144   0.11656   0.73322   0.00000  Uiso   1.00
C1450  C     0.05100   0.07947   0.69399   0.00000  Uiso   1.00
C1451  C     0.07628   0.09234   0.98138   0.00000  Uiso   1.00
C1452  C     0.24671   0.16664   0.83274   0.00000  Uiso   1.00
C1453  C     0.28613   0.26848   0.80307   0.00000  Uiso   1.00
C1454  C     0.32536   0.28854   0.78052   0.00000  Uiso   1.00
C1455  C     0.31520   0.31650   0.73423   0.00000  Uiso   1.00
C1456  C     0.29074   0.06437   0.85669   0.00000  Uiso   1.00
C1457  C     0.33216   0.05207   0.88135   0.00000  Uiso   1.00
C1458  C     0.32548   0.01937   0.92431   0.00000  Uiso   1.00
C1459  C     0.04873   0.21923   0.92684   0.00000  Uiso   1.00
C1460  C     0.05087   0.25770   0.96376   0.00000  Uiso   1.00
C1461  C     0.06484   0.24176   0.68177   0.00000  Uiso   1.00
C1462  C     0.16698   0.16673   0.73967   0.00000  Uiso   1.00
C1463  C     0.16692   0.16663   0.92700   0.00000  Uiso   1.00
C1464  C     0.16731   0.16679   0.68849   0.00000  Uiso   1.00
C1465  C     0.16729   0.16668   0.97818   0.00000  Uiso   1.00
C1466  C     0.02169   0.13152   0.80848   0.00000  Uiso   1.00
C1467  C     0.31278   0.20662   0.84237   0.00000  Uiso   1.00
C1468  C     0.31324   0.12795   0.81746   0.00000  Uiso   1.00
H1469  H     0.08273   0.13149   0.73536   0.00000  Uiso   1.00
H1470  H     0.00787   0.30951   0.80854   0.00000  Uiso   1.00
H1471  H     0.01336   0.26117   0.76964   0.00000  Uiso   1.00
H1472  H     0.29833   0.29607   0.70628   0.00000  Uiso   1.00
H1473  H     0.01084   0.32831   0.71689   0.00000  Uiso   1.00
H1474  H     0.29608   0.01265   0.74449   0.00000  Uiso   1.00
H1475  H     0.27312   0.03328   0.84965   0.00000  Uiso   1.00
H1476  H     0.27257   0.08430   0.88396   0.00000  Uiso   1.00
H1477  H     0.02030   0.03728   0.85372   0.00000  Uiso   1.00
H1478  H     0.01337   0.08270   0.89670   0.00000  Uiso   1.00
H1479  H     0.30335   0.03342   0.95184   0.00000  Uiso   1.00
H1480  H     0.02934   0.14290   0.72009   0.00000  Uiso   1.00
H1481  H     0.02194   0.01325   0.94350   0.00000  Uiso   1.00
H1482  H     0.31337   0.32050   0.90994   0.00000  Uiso   1.00
H1483  H     0.07890   0.20140   0.92673   0.00000  Uiso   1.00
H1484  H     0.02438   0.19569   0.94038   0.00000  Uiso   1.00
H1485  H     0.07264   0.28356   0.94987   0.00000  Uiso   1.00
H1486  H     0.01957   0.27248   0.96749   0.00000  Uiso   1.00
H1487  H     0.04306   0.21658   0.69675   0.00000  Uiso   1.00
H1488  H     0.06504   0.27083   0.70722   0.00000  Uiso   1.00
H1489  H     0.09638   0.22722   0.67996   0.00000  Uiso   1.00
H1490  H     0.21148   0.02778   0.93716   0.00000  Uiso   1.00
H1491  H     0.06375   0.04810   0.71005   0.00000  Uiso   1.00
H1492  H     0.11622   0.26116   0.77175   0.00000  Uiso   1.00
H1493  H     0.13197   0.02854   0.72512   0.00000  Uiso   1.00
H1494  H     0.21760   0.26010   0.89526   0.00000  Uiso   1.00
H1495  H     0.01858   0.07296   0.68257   0.00000  Uiso   1.00
H1496  H     0.06379   0.12338   0.96407   0.00000  Uiso   1.00
H1497  H     0.07540   0.06508   0.95341   0.00000  Uiso   1.00
H1498  H     0.10901   0.09747   0.99206   0.00000  Uiso   1.00
H1499  H     0.26326   0.29567   0.80918   0.00000  Uiso   1.00
H1500  H     0.27205   0.24536   0.77528   0.00000  Uiso   1.00
N1501  N     0.16667   0.28573   0.83333   0.00000  Uiso   1.00
N1502  N     0.16667   0.04760   0.83333   0.00000  Uiso   1.00
O1503  O     0.10559   0.20487   0.83333   0.00000  Uiso   1.00
O1504  O     0.29361   0.24752   0.85003   0.00000  Uiso   1.00
O1505  O     0.29481   0.08684   0.81003   0.00000  Uiso   1.00
O1506  O     0.04034   0.23657   0.87849   0.00000  Uiso   1.00
O1507  O     0.20099   0.04826   0.91088   0.00000  Uiso   1.00
O1508  O     0.12781   0.28878   0.75749   0.00000  Uiso   1.00
O1509  O     0.13468   0.04851   0.75439   0.00000  Uiso   1.00
O1510  O     0.20619   0.28793   0.90915   0.00000  Uiso   1.00
O1511  O     0.22774   0.12846   0.83334   0.00000  Uiso   1.00
O1512  O     0.22774   0.20487   0.83334   0.00000  Uiso   1.00
O1513  O     0.10559   0.12846   0.83333   0.00000  Uiso   1.00
O1514  O     0.16667   0.20488   0.76178   0.00000  Uiso   1.00
O1515  O     0.16666   0.12845   0.90489   0.00000  Uiso   1.00
O1516  O     0.16666   0.20488   0.90489   0.00000  Uiso   1.00
O1517  O     0.16667   0.12845   0.76178   0.00000  Uiso   1.00
O1518  O     0.04112   0.09860   0.78070   0.00000  Uiso   1.00
Zn1519 Zn    0.16667   0.21771   0.83333   0.00000  Uiso   1.00
Zn1520 Zn    0.16667   0.11563   0.83333   0.00000  Uiso   1.00
C1521  C     0.42024   0.16678   0.83225   0.00000  Uiso   1.00
C1522  C     0.35464   0.20357   0.85074   0.00000  Uiso   1.00
C1523  C     0.62450   0.16694   0.83094   0.00000  Uiso   1.00
C1524  C     0.37626   0.16727   0.83035   0.00000  Uiso   1.00
C1525  C     0.51717   0.02419   0.87219   0.00000  Uiso   1.00
C1526  C     0.48194   0.30996   0.79520   0.00000  Uiso   1.00
C1527  C     0.48366   0.02445   0.79414   0.00000  Uiso   1.00
C1528  C     0.51860   0.30956   0.87133   0.00000  Uiso   1.00
C1529  C     0.38477   0.11656   0.73322   0.00000  Uiso   1.00
C1530  C     0.38433   0.07947   0.69399   0.00000  Uiso   1.00
C1531  C     0.40962   0.09234   0.98138   0.00000  Uiso   1.00
C1532  C     0.58004   0.16664   0.83274   0.00000  Uiso   1.00
C1533  C     0.61946   0.26848   0.80307   0.00000  Uiso   1.00
C1534  C     0.65869   0.28854   0.78052   0.00000  Uiso   1.00
C1535  C     0.64854   0.31650   0.73423   0.00000  Uiso   1.00
C1536  C     0.62408   0.06437   0.85669   0.00000  Uiso   1.00
C1537  C     0.66549   0.05207   0.88135   0.00000  Uiso   1.00
C1538  C     0.65882   0.01937   0.92431   0.00000  Uiso   1.00
C1539  C     0.38206   0.21923   0.92684   0.00000  Uiso   1.00
C1540  C     0.38420   0.25770   0.96376   0.00000  Uiso   1.00
C1541  C     0.39817   0.24176   0.68177   0.00000  Uiso   1.00
C1542  C     0.50031   0.16673   0.73967   0.00000  Uiso   1.00
C1543  C     0.50025   0.16663   0.92700   0.00000  Uiso   1.00
C1544  C     0.50065   0.16679   0.68849   0.00000  Uiso   1.00
C1545  C     0.50063   0.16668   0.97818   0.00000  Uiso   1.00
C1546  C     0.35502   0.13152   0.80848   0.00000  Uiso   1.00
C1547  C     0.64611   0.20662   0.84237   0.00000  Uiso   1.00
C1548  C     0.64658   0.12795   0.81746   0.00000  Uiso   1.00
H1549  H     0.41606   0.13149   0.73536   0.00000  Uiso   1.00
H1550  H     0.34120   0.30951   0.80854   0.00000  Uiso   1.00
H1551  H     0.34669   0.26117   0.76964   0.00000  Uiso   1.00
H1552  H     0.63166   0.29607   0.70628   0.00000  Uiso   1.00
H1553  H     0.34418   0.32831   0.71689   0.00000  Uiso   1.00
H1554  H     0.62941   0.01265   0.74449   0.00000  Uiso   1.00
H1555  H     0.60646   0.03328   0.84965   0.00000  Uiso   1.00
H1556  H     0.60591   0.08430   0.88396   0.00000  Uiso   1.00
H1557  H     0.35363   0.03728   0.85372   0.00000  Uiso   1.00
H1558  H     0.34670   0.08270   0.89670   0.00000  Uiso   1.00
H1559  H     0.63668   0.03342   0.95184   0.00000  Uiso   1.00
H1560  H     0.36267   0.14290   0.72009   0.00000  Uiso   1.00
H1561  H     0.35527   0.01325   0.94350   0.00000  Uiso   1.00
H1562  H     0.64670   0.32050   0.90994   0.00000  Uiso   1.00
H1563  H     0.41223   0.20140   0.92673   0.00000  Uiso   1.00
H1564  H     0.35771   0.19569   0.94038   0.00000  Uiso   1.00
H1565  H     0.40597   0.28356   0.94987   0.00000  Uiso   1.00
H1566  H     0.35291   0.27248   0.96749   0.00000  Uiso   1.00
H1567  H     0.37639   0.21658   0.69675   0.00000  Uiso   1.00
H1568  H     0.39837   0.27083   0.70722   0.00000  Uiso   1.00
H1569  H     0.42971   0.22722   0.67996   0.00000  Uiso   1.00
H1570  H     0.54482   0.02778   0.93716   0.00000  Uiso   1.00
H1571  H     0.39709   0.04810   0.71005   0.00000  Uiso   1.00
H1572  H     0.44955   0.26116   0.77175   0.00000  Uiso   1.00
H1573  H     0.46530   0.02854   0.72512   0.00000  Uiso   1.00
H1574  H     0.55093   0.26010   0.89526   0.00000  Uiso   1.00
H1575  H     0.35191   0.07296   0.68257   0.00000  Uiso   1.00
H1576  H     0.39713   0.12338   0.96407   0.00000  Uiso   1.00
H1577  H     0.40873   0.06508   0.95341   0.00000  Uiso   1.00
H1578  H     0.44235   0.09747   0.99206   0.00000  Uiso   1.00
H1579  H     0.59659   0.29567   0.80918   0.00000  Uiso   1.00
H1580  H     0.60539   0.24536   0.77528   0.00000  Uiso   1.00
N1581  N     0.50000   0.28573   0.83333   0.00000  Uiso   1.00
N1582  N     0.50000   0.04760   0.83333   0.00000  Uiso   1.00
O1583  O     0.43892   0.20487   0.83333   0.00000  Uiso   1.00
O1584  O     0.62695   0.24752   0.85003   0.00000  Uiso   1.00
O1585  O     0.62815   0.08684   0.81003   0.00000  Uiso   1.00
O1586  O     0.37367   0.23657   0.87849   0.00000  Uiso   1.00
O1587  O     0.53433   0.04826   0.91088   0.00000  Uiso   1.00
O1588  O     0.46115   0.28878   0.75749   0.00000  Uiso   1.00
O1589  O     0.46801   0.04851   0.75439   0.00000  Uiso   1.00
O1590  O     0.53952   0.28793   0.90915   0.00000  Uiso   1.00
O1591  O     0.56108   0.12846   0.83334   0.00000  Uiso   1.00
O1592  O     0.56108   0.20487   0.83334   0.00000  Uiso   1.00
O1593  O     0.43892   0.12846   0.83333   0.00000  Uiso   1.00
O1594  O     0.50000   0.20488   0.76178   0.00000  Uiso   1.00
O1595  O     0.50000   0.12845   0.90489   0.00000  Uiso   1.00
O1596  O     0.50000   0.20488   0.90489   0.00000  Uiso   1.00
O1597  O     0.50000   0.12845   0.76178   0.00000  Uiso   1.00
O1598  O     0.37445   0.09860   0.78070   0.00000  Uiso   1.00
Zn1599 Zn    0.50000   0.21771   0.83333   0.00000  Uiso   1.00
Zn1600 Zn    0.50000   0.11563   0.83333   0.00000  Uiso   1.00
C1601  C     0.75358   0.16678   0.83225   0.00000  Uiso   1.00
C1602  C     0.68797   0.20357   0.85074   0.00000  Uiso   1.00
C1603  C     0.95783   0.16694   0.83094   0.00000  Uiso   1.00
C1604  C     0.70960   0.16727   0.83035   0.00000  Uiso   1.00
C1605  C     0.85050   0.02419   0.87219   0.00000  Uiso   1.00
C1606  C     0.81527   0.30996   0.79520   0.00000  Uiso   1.00
C1607  C     0.81699   0.02445   0.79414   0.00000  Uiso   1.00
C1608  C     0.85193   0.30956   0.87133   0.00000  Uiso   1.00
C1609  C     0.71811   0.11656   0.73322   0.00000  Uiso   1.00
C1610  C     0.71767   0.07947   0.69399   0.00000  Uiso   1.00
C1611  C     0.74295   0.09234   0.98138   0.00000  Uiso   1.00
C1612  C     0.91338   0.16664   0.83274   0.00000  Uiso   1.00
C1613  C     0.95280   0.26848   0.80307   0.00000  Uiso   1.00
C1614  C     0.99203   0.28854   0.78052   0.00000  Uiso   1.00
C1615  C     0.98187   0.31650   0.73423   0.00000  Uiso   1.00
C1616  C     0.95741   0.06437   0.85669   0.00000  Uiso   1.00
C1617  C     0.99883   0.05207   0.88135   0.00000  Uiso   1.00
C1618  C     0.99215   0.01937   0.92431   0.00000  Uiso   1.00
C1619  C     0.71539   0.21923   0.92684   0.00000  Uiso   1.00
C1620  C     0.71753   0.25770   0.96376   0.00000  Uiso   1.00
C1621  C     0.73150   0.24176   0.68177   0.00000  Uiso   1.00
C1622  C     0.83364   0.16673   0.73967   0.00000  Uiso   1.00
C1623  C     0.83359   0.16663   0.92700   0.00000  Uiso   1.00
C1624  C     0.83398   0.16679   0.68849   0.00000  Uiso   1.00
C1625  C     0.83396   0.16668   0.97818   0.00000  Uiso   1.00
C1626  C     0.68836   0.13152   0.80848   0.00000  Uiso   1.00
C1627  C     0.97944   0.20662   0.84237   0.00000  Uiso   1.00
C1628  C     0.97991   0.12795   0.81746   0.00000  Uiso   1.00
H1629  H     0.74939   0.13149   0.73536   0.00000  Uiso   1.00
H1630  H     0.67453   0.30951   0.80854   0.00000  Uiso   1.00
H1631  H     0.68002   0.26117   0.76964   0.00000  Uiso   1.00
H1632  H     0.96500   0.29607   0.70628   0.00000  Uiso   1.00
H1633  H     0.67751   0.32831   0.71689   0.00000  Uiso   1.00
H1634  H     0.96275   0.01265   0.74449   0.00000  Uiso   1.00
H1635  H     0.93979   0.03328   0.84965   0.00000  Uiso   1.00
H1636  H     0.93924   0.08430   0.88396   0.00000  Uiso   1.00
H1637  H     0.68697   0.03728   0.85372   0.00000  Uiso   1.00
H1638  H     0.68004   0.08270   0.89670   0.00000  Uiso   1.00
H1639  H     0.97001   0.03342   0.95184   0.00000  Uiso   1.00
H1640  H     0.69600   0.14290   0.72009   0.00000  Uiso   1.00
H1641  H     0.68861   0.01325   0.94350   0.00000  Uiso   1.00
H1642  H     0.98004   0.32050   0.90994   0.00000  Uiso   1.00
H1643  H     0.74556   0.20140   0.92673   0.00000  Uiso   1.00
H1644  H     0.69104   0.19569   0.94038   0.00000  Uiso   1.00
H1645  H     0.73931   0.28356   0.94987   0.00000  Uiso   1.00
H1646  H     0.68624   0.27248   0.96749   0.00000  Uiso   1.00
H1647  H     0.70973   0.21658   0.69675   0.00000  Uiso   1.00
H1648  H     0.73171   0.27083   0.70722   0.00000  Uiso   1.00
H1649  H     0.76304   0.22722   0.67996   0.00000  Uiso   1.00
H1650  H     0.87815   0.02778   0.93716   0.00000  Uiso   1.00
H1651  H     0.73042   0.04810   0.71005   0.00000  Uiso   1.00
H1652  H     0.78289   0.26116   0.77175   0.00000  Uiso   1.00
H1653  H     0.79864   0.02854   0.72512   0.00000  Uiso   1.00
H1654  H     0.88426   0.26010   0.89526   0.00000  Uiso   1.00
H1655  H     0.68525   0.07296   0.68257   0.00000  Uiso   1.00
H1656  H     0.73046   0.12338   0.96407   0.00000  Uiso   1.00
H1657  H     0.74207   0.06508   0.95341   0.00000  Uiso   1.00
H1658  H     0.77568   0.09747   0.99206   0.00000  Uiso   1.00
H1659  H     0.92993   0.29567   0.80918   0.00000  Uiso   1.00
H1660  H     0.93872   0.24536   0.77528   0.00000  Uiso   1.00
N1661  N     0.83333   0.28573   0.83333   0.00000  Uiso   1.00
N1662  N     0.83333   0.04760   0.83333   0.00000  Uiso   1.00
O1663  O     0.77226   0.20487   0.83333   0.00000  Uiso   1.00
O1664  O     0.96028   0.24752   0.85003   0.00000  Uiso   1.00
O1665  O     0.96148   0.08684   0.81003   0.00000  Uiso   1.00
O1666  O     0.70701   0.23657   0.87849   0.00000  Uiso   1.00
O1667  O     0.86766   0.04826   0.91088   0.00000  Uiso   1.00
O1668  O     0.79448   0.28878   0.75749   0.00000  Uiso   1.00
O1669  O     0.80135   0.04851   0.75439   0.00000  Uiso   1.00
O1670  O     0.87285   0.28793   0.90915   0.00000  Uiso   1.00
O1671  O     0.89441   0.12846   0.83334   0.00000  Uiso   1.00
O1672  O     0.89441   0.20487   0.83334   0.00000  Uiso   1.00
O1673  O     0.77226   0.12846   0.83333   0.00000  Uiso   1.00
O1674  O     0.83334   0.20488   0.76178   0.00000  Uiso   1.00
O1675  O     0.83333   0.12845   0.90489   0.00000  Uiso   1.00
O1676  O     0.83333   0.20488   0.90489   0.00000  Uiso   1.00
O1677  O     0.83334   0.12845   0.76178   0.00000  Uiso   1.00
O1678  O     0.70779   0.09860   0.78070   0.00000  Uiso   1.00
Zn1679 Zn    0.83333   0.21771   0.83333   0.00000  Uiso   1.00
Zn1680 Zn    0.83333   0.11563   0.83333   0.00000  Uiso   1.00
C1681  C     0.08691   0.50011   0.83225   0.00000  Uiso   1.00
C1682  C     0.02130   0.53690   0.85074   0.00000  Uiso   1.00
C1683  C     0.29116   0.50027   0.83094   0.00000  Uiso   1.00
C1684  C     0.04293   0.50060   0.83035   0.00000  Uiso   1.00
C1685  C     0.18383   0.35753   0.87219   0.00000  Uiso   1.00
C1686  C     0.14861   0.64329   0.79520   0.00000  Uiso   1.00
C1687  C     0.15032   0.35779   0.79414   0.00000  Uiso   1.00
C1688  C     0.18527   0.64289   0.87133   0.00000  Uiso   1.00
C1689  C     0.05144   0.44989   0.73322   0.00000  Uiso   1.00
C1690  C     0.05100   0.41280   0.69399   0.00000  Uiso   1.00
C1691  C     0.07628   0.42567   0.98138   0.00000  Uiso   1.00
C1692  C     0.24671   0.49997   0.83274   0.00000  Uiso   1.00
C1693  C     0.28613   0.60181   0.80307   0.00000  Uiso   1.00
C1694  C     0.32536   0.62188   0.78052   0.00000  Uiso   1.00
C1695  C     0.31520   0.64983   0.73423   0.00000  Uiso   1.00
C1696  C     0.29074   0.39771   0.85669   0.00000  Uiso   1.00
C1697  C     0.33216   0.38540   0.88135   0.00000  Uiso   1.00
C1698  C     0.32548   0.35270   0.92431   0.00000  Uiso   1.00
C1699  C     0.04873   0.55256   0.92684   0.00000  Uiso   1.00
C1700  C     0.05087   0.59103   0.96376   0.00000  Uiso   1.00
C1701  C     0.06484   0.57510   0.68177   0.00000  Uiso   1.00
C1702  C     0.16698   0.50006   0.73967   0.00000  Uiso   1.00
C1703  C     0.16692   0.49996   0.92700   0.00000  Uiso   1.00
C1704  C     0.16731   0.50013   0.68849   0.00000  Uiso   1.00
C1705  C     0.16729   0.50001   0.97818   0.00000  Uiso   1.00
C1706  C     0.02169   0.46486   0.80848   0.00000  Uiso   1.00
C1707  C     0.31278   0.53995   0.84237   0.00000  Uiso   1.00
C1708  C     0.31324   0.46128   0.81746   0.00000  Uiso   1.00
H1709  H     0.08273   0.46482   0.73536   0.00000  Uiso   1.00
H1710  H     0.00787   0.64284   0.80854   0.00000  Uiso   1.00
H1711  H     0.01336   0.59450   0.76964   0.00000  Uiso   1.00
H1712  H     0.29833   0.62941   0.70628   0.00000  Uiso   1.00
H1713  H     0.01084   0.66164   0.71689   0.00000  Uiso   1.00
H1714  H     0.29608   0.34598   0.74449   0.00000  Uiso   1.00
H1715  H     0.27312   0.36661   0.84965   0.00000  Uiso   1.00
H1716  H     0.27257   0.41763   0.88396   0.00000  Uiso   1.00
H1717  H     0.02030   0.37061   0.85372   0.00000  Uiso   1.00
H1718  H     0.01337   0.41603   0.89670   0.00000  Uiso   1.00
H1719  H     0.30335   0.36675   0.95184   0.00000  Uiso   1.00
H1720  H     0.02934   0.47624   0.72009   0.00000  Uiso   1.00
H1721  H     0.02194   0.34658   0.94350   0.00000  Uiso   1.00
H1722  H     0.31337   0.65384   0.90994   0.00000  Uiso   1.00
H1723  H     0.07890   0.53474   0.92673   0.00000  Uiso   1.00
H1724  H     0.02438   0.52902   0.94038   0.00000  Uiso   1.00
H1725  H     0.07264   0.61689   0.94987   0.00000  Uiso   1.00
H1726  H     0.01957   0.60581   0.96749   0.00000  Uiso   1.00
H1727  H     0.04306   0.54991   0.69675   0.00000  Uiso   1.00
H1728  H     0.06504   0.60416   0.70722   0.00000  Uiso   1.00
H1729  H     0.09638   0.56056   0.67996   0.00000  Uiso   1.00
H1730  H     0.21148   0.36111   0.93716   0.00000  Uiso   1.00
H1731  H     0.06375   0.38144   0.71005   0.00000  Uiso   1.00
H1732  H     0.11622   0.59450   0.77175   0.00000  Uiso   1.00
H1733  H     0.13197   0.36187   0.72512   0.00000  Uiso   1.00
H1734  H     0.21760   0.59343   0.89526   0.00000  Uiso   1.00
H1735  H     0.01858   0.40630   0.68257   0.00000  Uiso   1.00
H1736  H     0.06379   0.45672   0.96407   0.00000  Uiso   1.00
H1737  H     0.07540   0.39842   0.95341   0.00000  Uiso   1.00
H1738  H     0.10901   0.43081   0.99206   0.00000  Uiso   1.00
H1739  H     0.26326   0.62901   0.80918   0.00000  Uiso   1.00
H1740  H     0.27205   0.57869   0.77528   0.00000  Uiso   1.00
N1741  N     0.16667   0.61907   0.83333   0.00000  Uiso   1.00
N1742  N     0.16667   0.38093   0.83333   0.00000  Uiso   1.00
O1743  O     0.10559   0.53821   0.83333   0.00000  Uiso   1.00
O1744  O     0.29361   0.58086   0.85003   0.00000  Uiso   1.00
O1745  O     0.29481   0.42018   0.81003   0.00000  Uiso   1.00
O1746  O     0.04034   0.56990   0.87849   0.00000  Uiso   1.00
O1747  O     0.20099   0.38160   0.91088   0.00000  Uiso   1.00
O1748  O     0.12781   0.62211   0.75749   0.00000  Uiso   1.00
O1749  O     0.13468   0.38184   0.75439   0.00000  Uiso   1.00
O1750  O     0.20619   0.62127   0.90915   0.00000  Uiso   1.00
O1751  O     0.22774   0.46179   0.83334   0.00000  Uiso   1.00
O1752  O     0.22774   0.53821   0.83334   0.00000  Uiso   1.00
O1753  O     0.10559   0.46179   0.83333   0.00000  Uiso   1.00
O1754  O     0.16667   0.53821   0.76178   0.00000  Uiso   1.00
O1755  O     0.16666   0.46179   0.90489   0.00000  Uiso   1.00
O1756  O     0.16666   0.53821   0.90489   0.00000  Uiso   1.00
O1757  O     0.16667   0.46179   0.76178   0.00000  Uiso   1.00
O1758  O     0.04112   0.43194   0.78070   0.00000  Uiso   1.00
Zn1759 Zn    0.16667   0.55104   0.83333   0.00000  Uiso   1.00
Zn1760 Zn    0.16667   0.44896   0.83333   0.00000  Uiso   1.00
C1761  C     0.42024   0.50011   0.83225   0.00000  Uiso   1.00
C1762  C     0.35464   0.53690   0.85074   0.00000  Uiso   1.00
C1763  C     0.62450   0.50027   0.83094   0.00000  Uiso   1.00
C1764  C     0.37626   0.50060   0.83035   0.00000  Uiso   1.00
C1765  C     0.51717   0.35753   0.87219   0.00000  Uiso   1.00
C1766  C     0.48194   0.64329   0.79520   0.00000  Uiso   1.00
C1767  C     0.48366   0.35779   0.79414   0.00000  Uiso   1.00
C1768  C     0.51860   0.64289   0.87133   0.00000  Uiso   1.00
C1769  C     0.38477   0.44989   0.73322   0.00000  Uiso   1.00
C1770  C     0.38433   0.41280   0.69399   0.00000  Uiso   1.00
C1771  C     0.40962   0.42567   0.98138   0.00000  Uiso   1.00
C1772  C     0.58004   0.49997   0.83274   0.00000  Uiso   1.00
C1773  C     0.61946   0.60181   0.80307   0.00000  Uiso   1.00
C1774  C     0.65869   0.62188   0.78052   0.00000  Uiso   1.00
C1775  C     0.64854   0.64983   0.73423   0.00000  Uiso   1.00
C1776  C     0.62408   0.39771   0.85669   0.00000  Uiso   1.00
C1777  C     0.66549   0.38540   0.88135   0.00000  Uiso   1.00
C1778  C     0.65882   0.35270   0.92431   0.00000  Uiso   1.00
C1779  C     0.38206   0.55256   0.92684   0.00000  Uiso   1.00
C1780  C     0.38420   0.59103   0.96376   0.00000  Uiso   1.00
C1781  C     0.39817   0.57510   0.68177   0.00000  Uiso   1.00
C1782  C     0.50031   0.50006   0.73967   0.00000  Uiso   1.00
C1783  C     0.50025   0.49996   0.92700   0.00000  Uiso   1.00
C1784  C     0.50065   0.50013   0.68849   0.00000  Uiso   1.00
C1785  C     0.50063   0.50001   0.97818   0.00000  Uiso   1.00
C1786  C     0.35502   0.46486   0.80848   0.00000  Uiso   1.00
C1787  C     0.64611   0.53995   0.84237   0.00000  Uiso   1.00
C1788  C     0.64658   0.46128   0.81746   0.00000  Uiso   1.00
H1789  H     0.41606   0.46482   0.73536   0.00000  Uiso   1.00
H1790  H     0.34120   0.64284   0.80854   0.00000  Uiso   1.00
H1791  H     0.34669   0.59450   0.76964   0.00000  Uiso   1.00
H1792  H     0.63166   0.62941   0.70628   0.00000  Uiso   1.00
H1793  H     0.34418   0.66164   0.71689   0.00000  Uiso   1.00
H1794  H     0.62941   0.34598   0.74449   0.00000  Uiso   1.00
H1795  H     0.60646   0.36661   0.84965   0.00000  Uiso   1.00
H1796  H     0.60591   0.41763   0.88396   0.00000  Uiso   1.00
H1797  H     0.35363   0.37061   0.85372   0.00000  Uiso   1.00
H1798  H     0.34670   0.41603   0.89670   0.00000  Uiso   1.00
H1799  H     0.63668   0.36675   0.95184   0.00000  Uiso   1.00
H1800  H     0.36267   0.47624   0.72009   0.00000  Uiso   1.00
H1801  H     0.35527   0.34658   0.94350   0.00000  Uiso   1.00
H1802  H     0.64670   0.65384   0.90994   0.00000  Uiso   1.00
H1803  H     0.41223   0.53474   0.92673   0.00000  Uiso   1.00
H1804  H     0.35771   0.52902   0.94038   0.00000  Uiso   1.00
H1805  H     0.40597   0.61689   0.94987   0.00000  Uiso   1.00
H1806  H     0.35291   0.60581   0.96749   0.00000  Uiso   1.00
H1807  H     0.37639   0.54991   0.69675   0.00000  Uiso   1.00
H1808  H     0.39837   0.60416   0.70722   0.00000  Uiso   1.00
H1809  H     0.42971   0.56056   0.67996   0.00000  Uiso   1.00
H1810  H     0.54482   0.36111   0.93716   0.00000  Uiso   1.00
H1811  H     0.39709   0.38144   0.71005   0.00000  Uiso   1.00
H1812  H     0.44955   0.59450   0.77175   0.00000  Uiso   1.00
H1813  H     0.46530   0.36187   0.72512   0.00000  Uiso   1.00
H1814  H     0.55093   0.59343   0.89526   0.00000  Uiso   1.00
H1815  H     0.35191   0.40630   0.68257   0.00000  Uiso   1.00
H1816  H     0.39713   0.45672   0.96407   0.00000  Uiso   1.00
H1817  H     0.40873   0.39842   0.95341   0.00000  Uiso   1.00
H1818  H     0.44235   0.43081   0.99206   0.00000  Uiso   1.00
H1819  H     0.59659   0.62901   0.80918   0.00000  Uiso   1.00
H1820  H     0.60539   0.57869   0.77528   0.00000  Uiso   1.00
N1821  N     0.50000   0.61907   0.83333   0.00000  Uiso   1.00
N1822  N     0.50000   0.38093   0.83333   0.00000  Uiso   1.00
O1823  O     0.43892   0.53821   0.83333   0.00000  Uiso   1.00
O1824  O     0.62695   0.58086   0.85003   0.00000  Uiso   1.00
O1825  O     0.62815   0.42018   0.81003   0.00000  Uiso   1.00
O1826  O     0.37367   0.56990   0.87849   0.00000  Uiso   1.00
O1827  O     0.53433   0.38160   0.91088   0.00000  Uiso   1.00
O1828  O     0.46115   0.62211   0.75749   0.00000  Uiso   1.00
O1829  O     0.46801   0.38184   0.75439   0.00000  Uiso   1.00
O1830  O     0.53952   0.62127   0.90915   0.00000  Uiso   1.00
O1831  O     0.56108   0.46179   0.83334   0.00000  Uiso   1.00
O1832  O     0.56108   0.53821   0.83334   0.00000  Uiso   1.00
O1833  O     0.43892   0.46179   0.83333   0.00000  Uiso   1.00
O1834  O     0.50000   0.53821   0.76178   0.00000  Uiso   1.00
O1835  O     0.50000   0.46179   0.90489   0.00000  Uiso   1.00
O1836  O     0.50000   0.53821   0.90489   0.00000  Uiso   1.00
O1837  O     0.50000   0.46179   0.76178   0.00000  Uiso   1.00
O1838  O     0.37445   0.43194   0.78070   0.00000  Uiso   1.00
Zn1839 Zn    0.50000   0.55104   0.83333   0.00000  Uiso   1.00
Zn1840 Zn    0.50000   0.44896   0.83333   0.00000  Uiso   1.00
C1841  C     0.75358   0.50011   0.83225   0.00000  Uiso   1.00
C1842  C     0.68797   0.53690   0.85074   0.00000  Uiso   1.00
C1843  C     0.95783   0.50027   0.83094   0.00000  Uiso   1.00
C1844  C     0.70960   0.50060   0.83035   0.00000  Uiso   1.00
C1845  C     0.85050   0.35753   0.87219   0.00000  Uiso   1.00
C1846  C     0.81527   0.64329   0.79520   0.00000  Uiso   1.00
C1847  C     0.81699   0.35779   0.79414   0.00000  Uiso   1.00
C1848  C     0.85193   0.64289   0.87133   0.00000  Uiso   1.00
C1849  C     0.71811   0.44989   0.73322   0.00000  Uiso   1.00
C1850  C     0.71767   0.41280   0.69399   0.00000  Uiso   1.00
C1851  C     0.74295   0.42567   0.98138   0.00000  Uiso   1.00
C1852  C     0.91338   0.49997   0.83274   0.00000  Uiso   1.00
C1853  C     0.95280   0.60181   0.80307   0.00000  Uiso   1.00
C1854  C     0.99203   0.62188   0.78052   0.00000  Uiso   1.00
C1855  C     0.98187   0.64983   0.73423   0.00000  Uiso   1.00
C1856  C     0.95741   0.39771   0.85669   0.00000  Uiso   1.00
C1857  C     0.99883   0.38540   0.88135   0.00000  Uiso   1.00
C1858  C     0.99215   0.35270   0.92431   0.00000  Uiso   1.00
C1859  C     0.71539   0.55256   0.92684   0.00000  Uiso   1.00
C1860  C     0.71753   0.59103   0.96376   0.00000  Uiso   1.00
C1861  C     0.73150   0.57510   0.68177   0.00000  Uiso   1.00
C1862  C     0.83364   0.50006   0.73967   0.00000  Uiso   1.00
C1863  C     0.83359   0.49996   0.92700   0.00000  Uiso   1.00
C1864  C     0.83398   0.50013   0.68849   0.00000  Uiso   1.00
C1865  C     0.83396   0.50001   0.97818   0.00000  Uiso   1.00
C1866  C     0.68836   0.46486   0.80848   0.00000  Uiso   1.00
C1867  C     0.97944   0.53995   0.84237   0.00000  Uiso   1.00
C1868  C     0.97991   0.46128   0.81746   0.00000  Uiso   1.00
H1869  H     0.74939   0.46482   0.73536   0.00000  Uiso   1.00
H1870  H     0.67453   0.64284   0.80854   0.00000  Uiso   1.00
H1871  H     0.68002   0.59450   0.76964   0.00000  Uiso   1.00
H1872  H     0.96500   0.62941   0.70628   0.00000  Uiso   1.00
H1873  H     0.67751   0.66164   0.71689   0.00000  Uiso   1.00
H1874  H     0.96275   0.34598   0.74449   0.00000  Uiso   1.00
H1875  H     0.93979   0.36661   0.84965   0.00000  Uiso   1.00
H1876  H     0.93924   0.41763   0.88396   0.00000  Uiso   1.00
H1877  H     0.68697   0.37061   0.85372   0.00000  Uiso   1.00
H1878  H     0.68004   0.41603   0.89670   0.00000  Uiso   1.00
H1879  H     0.97001   0.36675   0.95184   0.00000  Uiso   1.00
H1880  H     0.69600   0.47624   0.72009   0.00000  Uiso   1.00
H1881  H     0.68861   0.34658   0.94350   0.00000  Uiso   1.00
H1882  H     0.98004   0.65384   0.90994   0.00000  Uiso   1.00
H1883  H     0.74556   0.53474   0.92673   0.00000  Uiso   1.00
H1884  H     0.69104   0.52902   0.94038   0.00000  Uiso   1.00
H1885  H     0.73931   0.61689   0.94987   0.00000  Uiso   1.00
H1886  H     0.68624   0.60581   0.96749   0.00000  Uiso   1.00
H1887  H     0.70973   0.54991   0.69675   0.00000  Uiso   1.00
H1888  H     0.73171   0.60416   0.70722   0.00000  Uiso   1.00
H1889  H     0.76304   0.56056   0.67996   0.00000  Uiso   1.00
H1890  H     0.87815   0.36111   0.93716   0.00000  Uiso   1.00
H1891  H     0.73042   0.38144   0.71005   0.00000  Uiso   1.00
H1892  H     0.78289   0.59450   0.77175   0.00000  Uiso   1.00
H1893  H     0.79864   0.36187   0.72512   0.00000  Uiso   1.00
H1894  H     0.88426   0.59343   0.89526   0.00000  Uiso   1.00
H1895  H     0.68525   0.40630   0.68257   0.00000  Uiso   1.00
H1896  H     0.73046   0.45672   0.96407   0.00000  Uiso   1.00
H1897  H     0.74207   0.39842   0.95341   0.00000  Uiso   1.00
H1898  H     0.77568   0.43081   0.99206   0.00000  Uiso   1.00
H1899  H     0.92993   0.62901   0.80918   0.00000  Uiso   1.00
H1900  H     0.93872   0.57869   0.77528   0.00000  Uiso   1.00
N1901  N     0.83333   0.61907   0.83333   0.00000  Uiso   1.00
N1902  N     0.83333   0.38093   0.83333   0.00000  Uiso   1.00
O1903  O     0.77226   0.53821   0.83333   0.00000  Uiso   1.00
O1904  O     0.96028   0.58086   0.85003   0.00000  Uiso   1.00
O1905  O     0.96148   0.42018   0.81003   0.00000  Uiso   1.00
O1906  O     0.70701   0.56990   0.87849   0.00000  Uiso   1.00
O1907  O     0.86766   0.38160   0.91088   0.00000  Uiso   1.00
O1908  O     0.79448   0.62211   0.75749   0.00000  Uiso   1.00
O1909  O     0.80135   0.38184   0.75439   0.00000  Uiso   1.00
O1910  O     0.87285   0.62127   0.90915   0.00000  Uiso   1.00
O1911  O     0.89441   0.46179   0.83334   0.00000  Uiso   1.00
O1912  O     0.89441   0.53821   0.83334   0.00000  Uiso   1.00
O1913  O     0.77226   0.46179   0.83333   0.00000  Uiso   1.00
O1914  O     0.83334   0.53821   0.76178   0.00000  Uiso   1.00
O1915  O     0.83333   0.46179   0.90489   0.00000  Uiso   1.00
O1916  O     0.83333   0.53821   0.90489   0.00000  Uiso   1.00
O1917  O     0.83334   0.46179   0.76178   0.00000  Uiso   1.00
O1918  O     0.70779   0.43194   0.78070   0.00000  Uiso   1.00
Zn1919 Zn    0.83333   0.55104   0.83333   0.00000  Uiso   1.00
Zn1920 Zn    0.83333   0.44896   0.83333   0.00000  Uiso   1.00
C1921  C     0.08691   0.83345   0.83225   0.00000  Uiso   1.00
C1922  C     0.02130   0.87024   0.85074   0.00000  Uiso   1.00
C1923  C     0.29116   0.83360   0.83094   0.00000  Uiso   1.00
C1924  C     0.04293   0.83394   0.83035   0.00000  Uiso   1.00
C1925  C     0.18383   0.69086   0.87219   0.00000  Uiso   1.00
C1926  C     0.14861   0.97662   0.79520   0.00000  Uiso   1.00
C1927  C     0.15032   0.69112   0.79414   0.00000  Uiso   1.00
C1928  C     0.18527   0.97622   0.87133   0.00000  Uiso   1.00
C1929  C     0.05144   0.78322   0.73322   0.00000  Uiso   1.00
C1930  C     0.05100   0.74613   0.69399   0.00000  Uiso   1.00
C1931  C     0.07628   0.75900   0.98138   0.00000  Uiso   1.00
C1932  C     0.24671   0.83330   0.83274   0.00000  Uiso   1.00
C1933  C     0.28613   0.93515   0.80307   0.00000  Uiso   1.00
C1934  C     0.32536   0.95521   0.78052   0.00000  Uiso   1.00
C1935  C     0.31520   0.98316   0.73423   0.00000  Uiso   1.00
C1936  C     0.29074   0.73104   0.85669   0.00000  Uiso   1.00
C1937  C     0.33216   0.71874   0.88135   0.00000  Uiso   1.00
C1938  C     0.32548   0.68603   0.92431   0.00000  Uiso   1.00
C1939  C     0.04873   0.88590   0.92684   0.00000  Uiso   1.00
C1940  C     0.05087   0.92437   0.96376   0.00000  Uiso   1.00
C1941  C     0.06484   0.90843   0.68177   0.00000  Uiso   1.00
C1942  C     0.16698   0.83339   0.73967   0.00000  Uiso   1.00
C1943  C     0.16692   0.83330   0.92700   0.00000  Uiso   1.00
C1944  C     0.16731   0.83346   0.68849   0.00000  Uiso   1.00
C1945  C     0.16729   0.83334   0.97818   0.00000  Uiso   1.00
C1946  C     0.02169   0.79819   0.80848   0.00000  Uiso   1.00
C1947  C     0.31278   0.87328   0.84237   0.00000  Uiso   1.00
C1948  C     0.31324   0.79462   0.81746   0.00000  Uiso   1.00
H1949  H     0.08273   0.79816   0.73536   0.00000  Uiso   1.00
H1950  H     0.00787   0.97618   0.80854   0.00000  Uiso   1.00
H1951  H     0.01336   0.92784   0.76964   0.00000  Uiso   1.00
H1952  H     0.29833   0.96274   0.70628   0.00000  Uiso   1.00
H1953  H     0.01084   0.99498   0.71689   0.00000  Uiso   1.00
H1954  H     0.29608   0.67931   0.74449   0.00000  Uiso   1.00
H1955  H     0.27312   0.69994   0.84965   0.00000  Uiso   1.00
H1956  H     0.27257   0.75097   0.88396   0.00000  Uiso   1.00
H1957  H     0.02030   0.70395   0.85372   0.00000  Uiso   1.00
H1958  H     0.01337   0.74937   0.89670   0.00000  Uiso   1.00
H1959  H     0.30335   0.70009   0.95184   0.00000  Uiso   1.00
H1960  H     0.02934   0.80957   0.72009   0.00000  Uiso   1.00
H1961  H     0.02194   0.67991   0.94350   0.00000  Uiso   1.00
H1962  H     0.31337   0.98717   0.90994   0.00000  Uiso   1.00
H1963  H     0.07890   0.86807   0.92673   0.00000  Uiso   1.00
H1964  H     0.02438   0.86235   0.94038   0.00000  Uiso   1.00
H1965  H     0.07264   0.95023   0.94987   0.00000  Uiso   1.00
H1966  H     0.01957   0.93914   0.96749   0.00000  Uiso   1.00
H1967  H     0.04306   0.88324   0.69675   0.00000  Uiso   1.00
H1968  H     0.06504   0.93750   0.70722   0.00000  Uiso   1.00
H1969  H     0.09638   0.89389   0.67996   0.00000  Uiso   1.00
H1970  H     0.21148   0.69444   0.93716   0.00000  Uiso   1.00
H1971  H     0.06375   0.71477   0.71005   0.00000  Uiso   1.00
H1972  H     0.11622   0.92783   0.77175   0.00000  Uiso   1.00
H1973  H     0.13197   0.69520   0.72512   0.00000  Uiso   1.00
H1974  H     0.21760   0.92676   0.89526   0.00000  Uiso   1.00
H1975  H     0.01858   0.73963   0.68257   0.00000  Uiso   1.00
H1976  H     0.06379   0.79005   0.96407   0.00000  Uiso   1.00
H1977  H     0.07540   0.73175   0.95341   0.00000  Uiso   1.00
H1978  H     0.10901   0.76414   0.99206   0.00000  Uiso   1.00
H1979  H     0.26326   0.96234   0.80918   0.00000  Uiso   1.00
H1980  H     0.27205   0.91202   0.77528   0.00000  Uiso   1.00
N1981  N     0.16667   0.95240   0.83333   0.00000  Uiso   1.00
N1982  N     0.16667   0.71427   0.83333   0.00000  Uiso   1.00
O1983  O     0.10559   0.87154   0.83333   0.00000  Uiso   1.00
O1984  O     0.29361   0.91419   0.85003   0.00000  Uiso   1.00
O1985  O     0.29481   0.75351   0.81003   0.00000  Uiso   1.00
O1986  O     0.04034   0.90324   0.87849   0.00000  Uiso   1.00
O1987  O     0.20099   0.71493   0.91088   0.00000  Uiso   1.00
O1988  O     0.12781   0.95545   0.75749   0.00000  Uiso   1.00
O1989  O     0.13468   0.71517   0.75439   0.00000  Uiso   1.00
O1990  O     0.20619   0.95460   0.90915   0.00000  Uiso   1.00
O1991  O     0.22774   0.79513   0.83334   0.00000  Uiso   1.00
O1992  O     0.22774   0.87154   0.83334   0.00000  Uiso   1.00
O1993  O     0.10559   0.79513   0.83333   0.00000  Uiso   1.00
O1994  O     0.16667   0.87155   0.76178   0.00000  Uiso   1.00
O1995  O     0.16666   0.79512   0.90489   0.00000  Uiso   1.00
O1996  O     0.16666   0.87155   0.90489   0.00000  Uiso   1.00
O1997  O     0.16667   0.79512   0.76178   0.00000  Uiso   1.00
O1998  O     0.04112   0.76527   0.78070   0.00000  Uiso   1.00
Zn1999 Zn    0.16667   0.88437   0.83333   0.00000  Uiso   1.00
Zn2000 Zn    0.16667   0.78229   0.83333   0.00000  Uiso   1.00
C2001  C     0.42024   0.83345   0.83225   0.00000  Uiso   1.00
C2002  C     0.35464   0.87024   0.85074   0.00000  Uiso   1.00
C2003  C     0.62450   0.83360   0.83094   0.00000  Uiso   1.00
C2004  C     0.37626   0.83394   0.83035   0.00000  Uiso   1.00
C2005  C     0.51717   0.69086   0.87219   0.00000  Uiso   1.00
C2006  C     0.48194   0.97662   0.79520   0.00000  Uiso   1.00
C2007  C     0.48366   0.69112   0.79414   0.00000  Uiso   1.00
C2008  C     0.51860   0.97622   0.87133   0.00000  Uiso   1.00
C2009  C     0.38477   0.78322   0.73322   0.00000  Uiso   1.00
C2010  C     0.38433   0.74613   0.69399   0.00000  Uiso   1.00
C2011  C     0.40962   0.75900   0.98138   0.00000  Uiso   1.00
C2012  C     0.58004   0.83330   0.83274   0.00000  Uiso   1.00
C2013  C     0.61946   0.93515   0.80307   0.00000  Uiso   1.00
C2014  C     0.65869   0.95521   0.78052   0.00000  Uiso   1.00
C2015  C     0.64854   0.98316   0.73423   0.00000  Uiso   1.00
C2016  C     0.62408   0.73104   0.85669   0.00000  Uiso   1.00
C2017  C     0.66549   0.71874   0.88135   0.00000  Uiso   1.00
C2018  C     0.65882   0.68603   0.92431   0.00000  Uiso   1.00
C2019  C     0.38206   0.88590   0.92684   0.00000  Uiso   1.00
C2020  C     0.38420   0.92437   0.96376   0.00000  Uiso   1.00
C2021  C     0.39817   0.90843   0.68177   0.00000  Uiso   1.00
C2022  C     0.50031   0.83339   0.73967   0.00000  Uiso   1.00
C2023  C     0.50025   0.83330   0.92700   0.00000  Uiso   1.00
C2024  C     0.50065   0.83346   0.68849   0.00000  Uiso   1.00
C2025  C     0.50063   0.83334   0.97818   0.00000  Uiso   1.00
C2026  C     0.35502   0.79819   0.80848   0.00000  Uiso   1.00
C2027  C     0.64611   0.87328   0.84237   0.00000  Uiso   1.00
C2028  C     0.64658   0.79462   0.81746   0.00000  Uiso   1.00
H2029  H     0.41606   0.79816   0.73536   0.00000  Uiso   1.00
H2030  H     0.34120   0.97618   0.80854   0.00000  Uiso   1.00
H2031  H     0.34669   0.92784   0.76964   0.00000  Uiso   1.00
H2032  H     0.63166   0.96274   0.70628   0.00000  Uiso   1.00
H2033  H     0.34418   0.99498   0.71689   0.00000  Uiso   1.00
H2034  H     0.62941   0.67931   0.74449   0.00000  Uiso   1.00
H2035  H     0.60646   0.69994   0.84965   0.00000  Uiso   1.00
H2036  H     0.60591   0.75097   0.88396   0.00000  Uiso   1.00
H2037  H     0.35363   0.70395   0.85372   0.00000  Uiso   1.00
H2038  H     0.34670   0.74937   0.89670   0.00000  Uiso   1.00
H2039  H     0.63668   0.70009   0.95184   0.00000  Uiso   1.00
H2040  H     0.36267   0.80957   0.72009   0.00000  Uiso   1.00
H2041  H     0.35527   0.67991   0.94350   0.00000  Uiso   1.00
H2042  H     0.64670   0.98717   0.90994   0.00000  Uiso   1.00
H2043  H     0.41223   0.86807   0.92673   0.00000  Uiso   1.00
H2044  H     0.35771   0.86235   0.94038   0.00000  Uiso   1.00
H2045  H     0.40597   0.95023   0.94987   0.00000  Uiso   1.00
H2046  H     0.35291   0.93914   0.96749   0.00000  Uiso   1.00
H2047  H     0.37639   0.88324   0.69675   0.00000  Uiso   1.00
H2048  H     0.39837   0.93750   0.70722   0.00000  Uiso   1.00
H2049  H     0.42971   0.89389   0.67996   0.00000  Uiso   1.00
H2050  H     0.54482   0.69444   0.93716   0.00000  Uiso   1.00
H2051  H     0.39709   0.71477   0.71005   0.00000  Uiso   1.00
H2052  H     0.44955   0.92783   0.77175   0.00000  Uiso   1.00
H2053  H     0.46530   0.69520   0.72512   0.00000  Uiso   1.00
H2054  H     0.55093   0.92676   0.89526   0.00000  Uiso   1.00
H2055  H     0.35191   0.73963   0.68257   0.00000  Uiso   1.00
H2056  H     0.39713   0.79005   0.96407   0.00000  Uiso   1.00
H2057  H     0.40873   0.73175   0.95341   0.00000  Uiso   1.00
H2058  H     0.44235   0.76414   0.99206   0.00000  Uiso   1.00
H2059  H     0.59659   0.96234   0.80918   0.00000  Uiso   1.00
H2060  H     0.60539   0.91202   0.77528   0.00000  Uiso   1.00
N2061  N     0.50000   0.95240   0.83333   0.00000  Uiso   1.00
N2062  N     0.50000   0.71427   0.83333   0.00000  Uiso   1.00
O2063  O     0.43892   0.87154   0.83333   0.00000  Uiso   1.00
O2064  O     0.62695   0.91419   0.85003   0.00000  Uiso   1.00
O2065  O     0.62815   0.75351   0.81003   0.00000  Uiso   1.00
O2066  O     0.37367   0.90324   0.87849   0.00000  Uiso   1.00
O2067  O     0.53433   0.71493   0.91088   0.00000  Uiso   1.00
O2068  O     0.46115   0.95545   0.75749   0.00000  Uiso   1.00
O2069  O     0.46801   0.71517   0.75439   0.00000  Uiso   1.00
O2070  O     0.53952   0.95460   0.90915   0.00000  Uiso   1.00
O2071  O     0.56108   0.79513   0.83334   0.00000  Uiso   1.00
O2072  O     0.56108   0.87154   0.83334   0.00000  Uiso   1.00
O2073  O     0.43892   0.79513   0.83333   0.00000  Uiso   1.00
O2074  O     0.50000   0.87155   0.76178   0.00000  Uiso   1.00
O2075  O     0.50000   0.79512   0.90489   0.00000  Uiso   1.00
O2076  O     0.50000   0.87155   0.90489   0.00000  Uiso   1.00
O2077  O     0.50000   0.79512   0.76178   0.00000  Uiso   1.00
O2078  O     0.37445   0.76527   0.78070   0.00000  Uiso   1.00
Zn2079 Zn    0.50000   0.88437   0.83333   0.00000  Uiso   1.00
Zn2080 Zn    0.50000   0.78229   0.83333   0.00000  Uiso   1.00
C2081  C     0.75358   0.83345   0.83225   0.00000  Uiso   1.00
C2082  C     0.68797   0.87024   0.85074   0.00000  Uiso   1.00
C2083  C     0.95783   0.83360   0.83094   0.00000  Uiso   1.00
C2084  C     0.70960   0.83394   0.83035   0.00000  Uiso   1.00
C2085  C     0.85050   0.69086   0.87219   0.00000  Uiso   1.00
C2086  C     0.81527   0.97662   0.79520   0.00000  Uiso   1.00
C2087  C     0.81699   0.69112   0.79414   0.00000  Uiso   1.00
C2088  C     0.85193   0.97622   0.87133   0.00000  Uiso   1.00
C2089  C     0.71811   0.78322   0.73322   0.00000  Uiso   1.00
C2090  C     0.71767   0.74613   0.69399   0.00000  Uiso   1.00
C2091  C     0.74295   0.75900   0.98138   0.00000  Uiso   1.00
C2092  C     0.91338   0.83330   0.83274   0.00000  Uiso   1.00
C2093  C     0.95280   0.93515   0.80307   0.00000  Uiso   1.00
C2094  C     0.99203   0.95521   0.78052   0.00000  Uiso   1.00
C2095  C     0.98187   0.98316   0.73423   0.00000  Uiso   1.00
C2096  C     0.95741   0.73104   0.85669   0.00000  Uiso   1.00
C2097  C     0.99883   0.71874   0.88135   0.00000  Uiso   1.00
C2098  C     0.99215   0.68603   0.92431   0.00000  Uiso   1.00
C2099  C     0.71539   0.88590   0.92684   0.00000  Uiso   1.00
C2100  C     0.71753   0.92437   0.96376   0.00000  Uiso   1.00
C2101  C     0.73150   0.90843   0.68177   0.00000  Uiso   1.00
C2102  C     0.83364   0.83339   0.73967   0.00000  Uiso   1.00
C2103  C     0.83359   0.83330   0.92700   0.00000  Uiso   1.00
C2104  C     0.83398   0.83346   0.68849   0.00000  Uiso   1.00
C2105  C     0.83396   0.83334   0.97818   0.00000  Uiso   1.00
C2106  C     0.68836   0.79819   0.80848   0.00000  Uiso   1.00
C2107  C     0.97944   0.87328   0.84237   0.00000  Uiso   1.00
C2108  C     0.97991   0.79462   0.81746   0.00000  Uiso   1.00
H2109  H     0.74939   0.79816   0.73536   0.00000  Uiso   1.00
H2110  H     0.67453   0.97618   0.80854   0.00000  Uiso   1.00
H2111  H     0.68002   0.92784   0.76964   0.00000  Uiso   1.00
H2112  H     0.96500   0.96274   0.70628   0.00000  Uiso   1.00
H2113  H     0.67751   0.99498   0.71689   0.00000  Uiso   1.00
H2114  H     0.96275   0.67931   0.74449   0.00000  Uiso   1.00
H2115  H     0.93979   0.69994   0.84965   0.00000  Uiso   1.00
H2116  H     0.93924   0.75097   0.88396   0.00000  Uiso   1.00
H2117  H     0.68697   0.70395   0.85372   0.00000  Uiso   1.00
H2118  H     0.68004   0.74937   0.89670   0.00000  Uiso   1.00
H2119  H     0.97001   0.70009   0.95184   0.00000  Uiso   1.00
H2120  H     0.69600   0.80957   0.72009   0.00000  Uiso   1.00
H2121  H     0.68861   0.67991   0.94350   0.00000  Uiso   1.00
H2122  H     0.98004   0.98717   0.90994   0.00000  Uiso   1.00
H2123  H     0.74556   0.86807   0.92673   0.00000  Uiso   1.00
H2124  H     0.69104   0.86235   0.94038   0.00000  Uiso   1.00
H2125  H     0.73931   0.95023   0.94987   0.00000  Uiso   1.00
H2126  H     0.68624   0.93914   0.96749   0.00000  Uiso   1.00
H2127  H     0.70973   0.88324   0.69675   0.00000  Uiso   1.00
H2128  H     0.73171   0.93750   0.70722   0.00000  Uiso   1.00
H2129  H     0.76304   0.89389   0.67996   0.00000  Uiso   1.00
H2130  H     0.87815   0.69444   0.93716   0.00000  Uiso   1.00
H2131  H     0.73042   0.71477   0.71005   0.00000  Uiso   1.00
H2132  H     0.78289   0.92783   0.77175   0.00000  Uiso   1.00
H2133  H     0.79864   0.69520   0.72512   0.00000  Uiso   1.00
H2134  H     0.88426   0.92676   0.89526   0.00000  Uiso   1.00
H2135  H     0.68525   0.73963   0.68257   0.00000  Uiso   1.00
H2136  H     0.73046   0.79005   0.96407   0.00000  Uiso   1.00
H2137  H     0.74207   0.73175   0.95341   0.00000  Uiso   1.00
H2138  H     0.77568   0.76414   0.99206   0.00000  Uiso   1.00
H2139  H     0.92993   0.96234   0.80918   0.00000  Uiso   1.00
H2140  H     0.93872   0.91202   0.77528   0.00000  Uiso   1.00
N2141  N     0.83333   0.95240   0.83333   0.00000  Uiso   1.00
N2142  N     0.83333   0.71427   0.83333   0.00000  Uiso   1.00
O2143  O     0.77226   0.87154   0.83333   0.00000  Uiso   1.00
O2144  O     0.96028   0.91419   0.85003   0.00000  Uiso   1.00
O2145  O     0.96148   0.75351   0.81003   0.00000  Uiso   1.00
O2146  O     0.70701   0.90324   0.87849   0.00000  Uiso   1.00
O2147  O     0.86766   0.71493   0.91088   0.00000  Uiso   1.00
O2148  O     0.79448   0.95545   0.75749   0.00000  Uiso   1.00
O2149  O     0.80135   0.71517   0.75439   0.00000  Uiso   1.00
O2150  O     0.87285   0.95460   0.90915   0.00000  Uiso   1.00
O2151  O     0.89441   0.79513   0.83334   0.00000  Uiso   1.00
O2152  O     0.89441   0.87154   0.83334   0.00000  Uiso   1.00
O2153  O     0.77226   0.79513   0.83333   0.00000  Uiso   1.00
O2154  O     0.83334   0.87155   0.76178   0.00000  Uiso   1.00
O2155  O     0.83333   0.79512   0.90489   0.00000  Uiso   1.00
O2156  O     0.83333   0.87155   0.90489   0.00000  Uiso   1.00
O2157  O     0.83334   0.79512   0.76178   0.00000  Uiso   1.00
O2158  O     0.70779   0.76527   0.78070   0.00000  Uiso   1.00
Zn2159 Zn    0.83333   0.88437   0.83333   0.00000  Uiso   1.00
Zn2160 Zn    0.83333   0.78229   0.83333   0.00000  Uiso   1.00
loop_
_geom_bond_atom_site_label_1
_geom_bond_atom_site_label_2
_geom_bond_distance
_geom_bond_site_symmetry_2
_ccdc_geom_bond_type
C1     O63     1.292   .     A
C1     C4      1.425   .     S
C1     O73     1.293   .     A
C2     C4      1.401   .     A
C2     O66     1.383   .     S
C2     C187    1.376   1_455 S
C3     C28     1.413   .     A
C3     C12     1.440   .     S
C3     C27     1.414   .     A
C4     C26     1.402   .     A
C5     O67     1.380   .     S
C5     N62     1.367   .     A
C5     C488    1.435   1_545 S
C6     N61     1.377   .     A
C6     O68     1.370   .     S
C6     C247    1.431   .     S
C7     N62     1.365   .     A
C7     O69     1.376   .     S
C7     C486    1.431   1_545 S
C8     N61     1.382   .     A
C8     O70     1.374   .     S
C8     C245    1.435   .     S
C9     H29     1.110   .     S
C9     H40     1.117   .     S
C9     C10     1.529   .     S
C9     O78     1.418   .     S
C10    H51     1.108   .     S
C10    H55     1.111   .     S
C10    C1451   1.527   1_554 S
C11    H58     1.109   .     S
C11    H57     1.108   .     S
C11    H56     1.110   .     S
C11    C730    1.527   .     S
C12    O72     1.295   .     A
C12    O71     1.298   .     A
C13    H60     1.115   .     S
C13    C14     1.531   .     S
C13    H59     1.110   .     S
C13    O64     1.421   .     S
C14    C15     1.526   .     S
C14    H110    1.105   .     S
C14    H111    1.109   .     S
C15    H32     1.111   .     S
C15    H113    1.106   .     S
C15    H274    1.110   .     S
C16    H35     1.109   .     S
C16    C17     1.536   .     S
C16    H36     1.111   .     S
C16    O65     1.422   .     S
C17    C18     1.522   .     S
C17    H117    1.108   .     S
C17    H118    1.111   .     S
C18    H39     1.111   .     S
C18    H121    1.106   .     S
C18    H522    1.110   1_545 S
C19    C20     1.520   .     S
C19    O66     1.417   .     S
C19    H43     1.111   .     S
C19    H44     1.119   .     S
C20    H45     1.112   .     S
C20    H46     1.109   .     S
C20    C741    1.519   .     S
C21    H49     1.109   .     S
C21    H48     1.106   .     S
C21    H47     1.108   .     S
C21    C1460   1.519   1_554 S
C22    C24     1.369   .     S
C22    O74     1.286   .     A
C22    O77     1.286   .     A
C23    O76     1.285   .     A
C23    O75     1.287   .     A
C23    C25     1.369   .     S
C24    C1465   1.167   1_554 S
C25    C744    1.167   .     S
C26    O78     1.385   .     S
C26    C188    1.379   1_455 S
C27    O64     1.385   .     S
C27    C82     1.376   .     S
C28    O65     1.383   .     S
C28    C106    1.379   .     S
H30    C174    1.105   1_455 S
H31    C174    1.109   1_455 S
H33    C175    1.106   1_455 S
H34    C495    1.110   1_545 S
H37    C177    1.108   1_455 S
H38    C177    1.111   1_455 S
H41    C178    1.106   1_455 S
H42    C258    1.110   .     S
H50    O67     0.989   .     S
H52    O68     0.984   .     S
H53    O69     0.990   .     S
H54    O70     0.983   .     S
N61    Zn79    2.033   .     S
N62    Zn80    2.033   .     S
O63    Zn79    2.016   .     S
O71    Zn80    2.016   .     S
O72    Zn79    2.013   .     S
O73    Zn80    2.013   .     S
O74    Zn79    1.953   .     S
O75    Zn80    1.953   .     S
O76    Zn79    1.951   .     S
O77    Zn80    1.951   .     S
C81    O143    1.292   .     A
C81    C84     1.425   .     S
C81    O153    1.293   .     A
C82    C84     1.401   .     A
C82    O146    1.383   .     S
C83    C108    1.413   .     A
C83    C92     1.440   .     S
C83    C107    1.414   .     A
C84    C106    1.402   .     A
C85    O147    1.380   .     S
C85    N142    1.367   .     A
C85    C568    1.435   1_545 S
C86    N141    1.377   .     A
C86    O148    1.370   .     S
C86    C327    1.431   .     S
C87    N142    1.365   .     A
C87    O149    1.376   .     S
C87    C566    1.431   1_545 S
C88    N141    1.382   .     A
C88    O150    1.374   .     S
C88    C325    1.435   .     S
C89    H109    1.110   .     S
C89    H120    1.117   .     S
C89    C90     1.529   .     S
C89    O158    1.418   .     S
C90    H131    1.108   .     S
C90    H135    1.111   .     S
C90    C1531   1.527   1_554 S
C91    H138    1.109   .     S
C91    H137    1.108   .     S
C91    H136    1.110   .     S
C91    C810    1.527   .     S
C92    O152    1.295   .     A
C92    O151    1.298   .     A
C93    H140    1.115   .     S
C93    C94     1.531   .     S
C93    H139    1.110   .     S
C93    O144    1.421   .     S
C94    C95     1.526   .     S
C94    H190    1.105   .     S
C94    H191    1.109   .     S
C95    H112    1.111   .     S
C95    H193    1.106   .     S
C95    H354    1.110   .     S
C96    H115    1.109   .     S
C96    C97     1.536   .     S
C96    H116    1.111   .     S
C96    O145    1.422   .     S
C97    C98     1.522   .     S
C97    H197    1.108   .     S
C97    H198    1.111   .     S
C98    H119    1.111   .     S
C98    H201    1.106   .     S
C98    H602    1.110   1_545 S
C99    C100    1.520   .     S
C99    O146    1.417   .     S
C99    H123    1.111   .     S
C99    H124    1.119   .     S
C100   H125    1.112   .     S
C100   H126    1.109   .     S
C100   C821    1.519   .     S
C101   H129    1.109   .     S
C101   H128    1.106   .     S
C101   H127    1.108   .     S
C101   C1540   1.519   1_554 S
C102   C104    1.369   .     S
C102   O154    1.286   .     A
C102   O157    1.286   .     A
C103   O156    1.285   .     A
C103   O155    1.287   .     A
C103   C105    1.369   .     S
C104   C1545   1.167   1_554 S
C105   C824    1.167   .     S
C106   O158    1.385   .     S
C107   O144    1.385   .     S
C107   C162    1.376   .     S
C108   O145    1.383   .     S
C108   C186    1.379   .     S
H114   C575    1.110   1_545 S
H122   C338    1.110   .     S
H130   O147    0.989   .     S
H132   O148    0.984   .     S
H133   O149    0.990   .     S
H134   O150    0.983   .     S
N141   Zn159   2.033   .     S
N142   Zn160   2.033   .     S
O143   Zn159   2.016   .     S
O151   Zn160   2.016   .     S
O152   Zn159   2.013   .     S
O153   Zn160   2.013   .     S
O154   Zn159   1.953   .     S
O155   Zn160   1.953   .     S
O156   Zn159   1.951   .     S
O157   Zn160   1.951   .     S
C161   O223    1.292   .     A
C161   C164    1.425   .     S
C161   O233    1.293   .     A
C162   C164    1.401   .     A
C162   O226    1.383   .     S
C163   C188    1.413   .     A
C163   C172    1.440   .     S
C163   C187    1.414   .     A
C164   C186    1.402   .     A
C165   O227    1.380   .     S
C165   N222    1.367   .     A
C165   C648    1.435   1_545 S
C166   N221    1.377   .     A
C166   O228    1.370   .     S
C166   C407    1.431   .     S
C167   N222    1.365   .     A
C167   O229    1.376   .     S
C167   C646    1.431   1_545 S
C168   N221    1.382   .     A
C168   O230    1.374   .     S
C168   C405    1.435   .     S
C169   H189    1.110   .     S
C169   H200    1.117   .     S
C169   C170    1.529   .     S
C169   O238    1.418   .     S
C170   H211    1.108   .     S
C170   H215    1.111   .     S
C170   C1611   1.527   1_554 S
C171   H218    1.109   .     S
C171   H217    1.108   .     S
C171   H216    1.110   .     S
C171   C890    1.527   .     S
C172   O232    1.295   .     A
C172   O231    1.298   .     A
C173   H220    1.115   .     S
C173   C174    1.531   .     S
C173   H219    1.110   .     S
C173   O224    1.421   .     S
C174   C175    1.526   .     S
C174   H30     1.105   1_655 S
C174   H31     1.109   1_655 S
C175   H192    1.111   .     S
C175   H33     1.106   1_655 S
C175   H434    1.110   .     S
C176   H195    1.109   .     S
C176   C177    1.536   .     S
C176   H196    1.111   .     S
C176   O225    1.422   .     S
C177   C178    1.522   .     S
C177   H37     1.108   1_655 S
C177   H38     1.111   1_655 S
C178   H199    1.111   .     S
C178   H41     1.106   1_655 S
C178   H682    1.110   1_545 S
C179   C180    1.520   .     S
C179   O226    1.417   .     S
C179   H203    1.111   .     S
C179   H204    1.119   .     S
C180   H205    1.112   .     S
C180   H206    1.109   .     S
C180   C901    1.519   .     S
C181   H209    1.109   .     S
C181   H208    1.106   .     S
C181   H207    1.108   .     S
C181   C1620   1.519   1_554 S
C182   C184    1.369   .     S
C182   O234    1.286   .     A
C182   O237    1.286   .     A
C183   O236    1.285   .     A
C183   O235    1.287   .     A
C183   C185    1.369   .     S
C184   C1625   1.167   1_554 S
C185   C904    1.167   .     S
C186   O238    1.385   .     S
C187   O224    1.385   .     S
C187   C2      1.376   1_655 S
C188   O225    1.383   .     S
C188   C26     1.379   1_655 S
H194   C655    1.110   1_545 S
H202   C418    1.110   .     S
H210   O227    0.989   .     S
H212   O228    0.984   .     S
H213   O229    0.990   .     S
H214   O230    0.983   .     S
N221   Zn239   2.033   .     S
N222   Zn240   2.033   .     S
O223   Zn239   2.016   .     S
O231   Zn240   2.016   .     S
O232   Zn239   2.013   .     S
O233   Zn240   2.013   .     S
O234   Zn239   1.953   .     S
O235   Zn240   1.953   .     S
O236   Zn239   1.951   .     S
O237   Zn240   1.951   .     S
C241   O303    1.292   .     A
C241   C244    1.425   .     S
C241   O313    1.293   .     A
C242   C244    1.401   .     A
C242   O306    1.383   .     S
C242   C427    1.376   1_455 S
C243   C268    1.413   .     A
C243   C252    1.440   .     S
C243   C267    1.414   .     A
C244   C266    1.402   .     A
C245   O307    1.380   .     S
C245   N302    1.367   .     A
C246   N301    1.377   .     A
C246   O308    1.370   .     S
C246   C487    1.431   .     S
C247   N302    1.365   .     A
C247   O309    1.376   .     S
C248   N301    1.382   .     A
C248   O310    1.374   .     S
C248   C485    1.435   .     S
C249   H269    1.110   .     S
C249   H280    1.117   .     S
C249   C250    1.529   .     S
C249   O318    1.418   .     S
C250   H291    1.108   .     S
C250   H295    1.111   .     S
C250   C1691   1.527   1_554 S
C251   H298    1.109   .     S
C251   H297    1.108   .     S
C251   H296    1.110   .     S
C251   C970    1.527   .     S
C252   O312    1.295   .     A
C252   O311    1.298   .     A
C253   H300    1.115   .     S
C253   C254    1.531   .     S
C253   H299    1.110   .     S
C253   O304    1.421   .     S
C254   C255    1.526   .     S
C254   H350    1.105   .     S
C254   H351    1.109   .     S
C255   H272    1.111   .     S
C255   H353    1.106   .     S
C255   H514    1.110   .     S
C256   H275    1.109   .     S
C256   C257    1.536   .     S
C256   H276    1.111   .     S
C256   O305    1.422   .     S
C257   C258    1.522   .     S
C257   H357    1.108   .     S
C257   H358    1.111   .     S
C258   H279    1.111   .     S
C258   H361    1.106   .     S
C259   C260    1.520   .     S
C259   O306    1.417   .     S
C259   H283    1.111   .     S
C259   H284    1.119   .     S
C260   H285    1.112   .     S
C260   H286    1.109   .     S
C260   C981    1.519   .     S
C261   H289    1.109   .     S
C261   H288    1.106   .     S
C261   H287    1.108   .     S
C261   C1700   1.519   1_554 S
C262   C264    1.369   .     S
C262   O314    1.286   .     A
C262   O317    1.286   .     A
C263   O316    1.285   .     A
C263   O315    1.287   .     A
C263   C265    1.369   .     S
C264   C1705   1.167   1_554 S
C265   C984    1.167   .     S
C266   O318    1.385   .     S
C266   C428    1.379   1_455 S
C267   O304    1.385   .     S
C267   C322    1.376   .     S
C268   O305    1.383   .     S
C268   C346    1.379   .     S
H270   C414    1.105   1_455 S
H271   C414    1.109   1_455 S
H273   C415    1.106   1_455 S
H277   C417    1.108   1_455 S
H278   C417    1.111   1_455 S
H281   C418    1.106   1_455 S
H282   C498    1.110   .     S
H290   O307    0.989   .     S
H292   O308    0.984   .     S
H293   O309    0.990   .     S
H294   O310    0.983   .     S
N301   Zn319   2.033   .     S
N302   Zn320   2.033   .     S
O303   Zn319   2.016   .     S
O311   Zn320   2.016   .     S
O312   Zn319   2.013   .     S
O313   Zn320   2.013   .     S
O314   Zn319   1.953   .     S
O315   Zn320   1.953   .     S
O316   Zn319   1.951   .     S
O317   Zn320   1.951   .     S
C321   O383    1.292   .     A
C321   C324    1.425   .     S
C321   O393    1.293   .     A
C322   C324    1.401   .     A
C322   O386    1.383   .     S
C323   C348    1.413   .     A
C323   C332    1.440   .     S
C323   C347    1.414   .     A
C324   C346    1.402   .     A
C325   O387    1.380   .     S
C325   N382    1.367   .     A
C326   N381    1.377   .     A
C326   O388    1.370   .     S
C326   C567    1.431   .     S
C327   N382    1.365   .     A
C327   O389    1.376   .     S
C328   N381    1.382   .     A
C328   O390    1.374   .     S
C328   C565    1.435   .     S
C329   H349    1.110   .     S
C329   H360    1.117   .     S
C329   C330    1.529   .     S
C329   O398    1.418   .     S
C330   H371    1.108   .     S
C330   H375    1.111   .     S
C330   C1771   1.527   1_554 S
C331   H378    1.109   .     S
C331   H377    1.108   .     S
C331   H376    1.110   .     S
C331   C1050   1.527   .     S
C332   O392    1.295   .     A
C332   O391    1.298   .     A
C333   H380    1.115   .     S
C333   C334    1.531   .     S
C333   H379    1.110   .     S
C333   O384    1.421   .     S
C334   C335    1.526   .     S
C334   H430    1.105   .     S
C334   H431    1.109   .     S
C335   H352    1.111   .     S
C335   H433    1.106   .     S
C335   H594    1.110   .     S
C336   H355    1.109   .     S
C336   C337    1.536   .     S
C336   H356    1.111   .     S
C336   O385    1.422   .     S
C337   C338    1.522   .     S
C337   H437    1.108   .     S
C337   H438    1.111   .     S
C338   H359    1.111   .     S
C338   H441    1.106   .     S
C339   C340    1.520   .     S
C339   O386    1.417   .     S
C339   H363    1.111   .     S
C339   H364    1.119   .     S
C340   H365    1.112   .     S
C340   H366    1.109   .     S
C340   C1061   1.519   .     S
C341   H369    1.109   .     S
C341   H368    1.106   .     S
C341   H367    1.108   .     S
C341   C1780   1.519   1_554 S
C342   C344    1.369   .     S
C342   O394    1.286   .     A
C342   O397    1.286   .     A
C343   O396    1.285   .     A
C343   O395    1.287   .     A
C343   C345    1.369   .     S
C344   C1785   1.167   1_554 S
C345   C1064   1.167   .     S
C346   O398    1.385   .     S
C347   O384    1.385   .     S
C347   C402    1.376   .     S
C348   O385    1.383   .     S
C348   C426    1.379   .     S
H362   C578    1.110   .     S
H370   O387    0.989   .     S
H372   O388    0.984   .     S
H373   O389    0.990   .     S
H374   O390    0.983   .     S
N381   Zn399   2.033   .     S
N382   Zn400   2.033   .     S
O383   Zn399   2.016   .     S
O391   Zn400   2.016   .     S
O392   Zn399   2.013   .     S
O393   Zn400   2.013   .     S
O394   Zn399   1.953   .     S
O395   Zn400   1.953   .     S
O396   Zn399   1.951   .     S
O397   Zn400   1.951   .     S
C401   O463    1.292   .     A
C401   C404    1.425   .     S
C401   O473    1.293   .     A
C402   C404    1.401   .     A
C402   O466    1.383   .     S
C403   C428    1.413   .     A
C403   C412    1.440   .     S
C403   C427    1.414   .     A
C404   C426    1.402   .     A
C405   O467    1.380   .     S
C405   N462    1.367   .     A
C406   N461    1.377   .     A
C406   O468    1.370   .     S
C406   C647    1.431   .     S
C407   N462    1.365   .     A
C407   O469    1.376   .     S
C408   N461    1.382   .     A
C408   O470    1.374   .     S
C408   C645    1.435   .     S
C409   H429    1.110   .     S
C409   H440    1.117   .     S
C409   C410    1.529   .     S
C409   O478    1.418   .     S
C410   H451    1.108   .     S
C410   H455    1.111   .     S
C410   C1851   1.527   1_554 S
C411   H458    1.109   .     S
C411   H457    1.108   .     S
C411   H456    1.110   .     S
C411   C1130   1.527   .     S
C412   O472    1.295   .     A
C412   O471    1.298   .     A
C413   H460    1.115   .     S
C413   C414    1.531   .     S
C413   H459    1.110   .     S
C413   O464    1.421   .     S
C414   C415    1.526   .     S
C414   H270    1.105   1_655 S
C414   H271    1.109   1_655 S
C415   H432    1.111   .     S
C415   H273    1.106   1_655 S
C415   H674    1.110   .     S
C416   H435    1.109   .     S
C416   C417    1.536   .     S
C416   H436    1.111   .     S
C416   O465    1.422   .     S
C417   C418    1.522   .     S
C417   H277    1.108   1_655 S
C417   H278    1.111   1_655 S
C418   H439    1.111   .     S
C418   H281    1.106   1_655 S
C419   C420    1.520   .     S
C419   O466    1.417   .     S
C419   H443    1.111   .     S
C419   H444    1.119   .     S
C420   H445    1.112   .     S
C420   H446    1.109   .     S
C420   C1141   1.519   .     S
C421   H449    1.109   .     S
C421   H448    1.106   .     S
C421   H447    1.108   .     S
C421   C1860   1.519   1_554 S
C422   C424    1.369   .     S
C422   O474    1.286   .     A
C422   O477    1.286   .     A
C423   O476    1.285   .     A
C423   O475    1.287   .     A
C423   C425    1.369   .     S
C424   C1865   1.167   1_554 S
C425   C1144   1.167   .     S
C426   O478    1.385   .     S
C427   O464    1.385   .     S
C427   C242    1.376   1_655 S
C428   O465    1.383   .     S
C428   C266    1.379   1_655 S
H442   C658    1.110   .     S
H450   O467    0.989   .     S
H452   O468    0.984   .     S
H453   O469    0.990   .     S
H454   O470    0.983   .     S
N461   Zn479   2.033   .     S
N462   Zn480   2.033   .     S
O463   Zn479   2.016   .     S
O471   Zn480   2.016   .     S
O472   Zn479   2.013   .     S
O473   Zn480   2.013   .     S
O474   Zn479   1.953   .     S
O475   Zn480   1.953   .     S
O476   Zn479   1.951   .     S
O477   Zn480   1.951   .     S
C481   O543    1.292   .     A
C481   C484    1.425   .     S
C481   O553    1.293   .     A
C482   C484    1.401   .     A
C482   O546    1.383   .     S
C482   C667    1.376   1_455 S
C483   C508    1.413   .     A
C483   C492    1.440   .     S
C483   C507    1.414   .     A
C484   C506    1.402   .     A
C485   O547    1.380   .     S
C485   N542    1.367   .     A
C486   N541    1.377   .     A
C486   O548    1.370   .     S
C486   C7      1.431   1_565 S
C487   N542    1.365   .     A
C487   O549    1.376   .     S
C488   N541    1.382   .     A
C488   O550    1.374   .     S
C488   C5      1.435   1_565 S
C489   H509    1.110   .     S
C489   H520    1.117   .     S
C489   C490    1.529   .     S
C489   O558    1.418   .     S
C490   H531    1.108   .     S
C490   H535    1.111   .     S
C490   C1931   1.527   1_554 S
C491   H538    1.109   .     S
C491   H537    1.108   .     S
C491   H536    1.110   .     S
C491   C1210   1.527   .     S
C492   O552    1.295   .     A
C492   O551    1.298   .     A
C493   H540    1.115   .     S
C493   C494    1.531   .     S
C493   H539    1.110   .     S
C493   O544    1.421   .     S
C494   C495    1.526   .     S
C494   H590    1.105   .     S
C494   H591    1.109   .     S
C495   H512    1.111   .     S
C495   H593    1.106   .     S
C495   H34     1.110   1_565 S
C496   H515    1.109   .     S
C496   C497    1.536   .     S
C496   H516    1.111   .     S
C496   O545    1.422   .     S
C497   C498    1.522   .     S
C497   H597    1.108   .     S
C497   H598    1.111   .     S
C498   H519    1.111   .     S
C498   H601    1.106   .     S
C499   C500    1.520   .     S
C499   O546    1.417   .     S
C499   H523    1.111   .     S
C499   H524    1.119   .     S
C500   H525    1.112   .     S
C500   H526    1.109   .     S
C500   C1221   1.519   .     S
C501   H529    1.109   .     S
C501   H528    1.106   .     S
C501   H527    1.108   .     S
C501   C1940   1.519   1_554 S
C502   C504    1.369   .     S
C502   O554    1.286   .     A
C502   O557    1.286   .     A
C503   O556    1.285   .     A
C503   O555    1.287   .     A
C503   C505    1.369   .     S
C504   C1945   1.167   1_554 S
C505   C1224   1.167   .     S
C506   O558    1.385   .     S
C506   C668    1.379   1_455 S
C507   O544    1.385   .     S
C507   C562    1.376   .     S
C508   O545    1.383   .     S
C508   C586    1.379   .     S
H510   C654    1.105   1_455 S
H511   C654    1.109   1_455 S
H513   C655    1.106   1_455 S
H517   C657    1.108   1_455 S
H518   C657    1.111   1_455 S
H521   C658    1.106   1_455 S
H522   C18     1.110   1_565 S
H530   O547    0.989   .     S
H532   O548    0.984   .     S
H533   O549    0.990   .     S
H534   O550    0.983   .     S
N541   Zn559   2.033   .     S
N542   Zn560   2.033   .     S
O543   Zn559   2.016   .     S
O551   Zn560   2.016   .     S
O552   Zn559   2.013   .     S
O553   Zn560   2.013   .     S
O554   Zn559   1.953   .     S
O555   Zn560   1.953   .     S
O556   Zn559   1.951   .     S
O557   Zn560   1.951   .     S
C561   O623    1.292   .     A
C561   C564    1.425   .     S
C561   O633    1.293   .     A
C562   C564    1.401   .     A
C562   O626    1.383   .     S
C563   C588    1.413   .     A
C563   C572    1.440   .     S
C563   C587    1.414   .     A
C564   C586    1.402   .     A
C565   O627    1.380   .     S
C565   N622    1.367   .     A
C566   N621    1.377   .     A
C566   O628    1.370   .     S
C566   C87     1.431   1_565 S
C567   N622    1.365   .     A
C567   O629    1.376   .     S
C568   N621    1.382   .     A
C568   O630    1.374   .     S
C568   C85     1.435   1_565 S
C569   H589    1.110   .     S
C569   H600    1.117   .     S
C569   C570    1.529   .     S
C569   O638    1.418   .     S
C570   H611    1.108   .     S
C570   H615    1.111   .     S
C570   C2011   1.527   1_554 S
C571   H618    1.109   .     S
C571   H617    1.108   .     S
C571   H616    1.110   .     S
C571   C1290   1.527   .     S
C572   O632    1.295   .     A
C572   O631    1.298   .     A
C573   H620    1.115   .     S
C573   C574    1.531   .     S
C573   H619    1.110   .     S
C573   O624    1.421   .     S
C574   C575    1.526   .     S
C574   H670    1.105   .     S
C574   H671    1.109   .     S
C575   H592    1.111   .     S
C575   H673    1.106   .     S
C575   H114    1.110   1_565 S
C576   H595    1.109   .     S
C576   C577    1.536   .     S
C576   H596    1.111   .     S
C576   O625    1.422   .     S
C577   C578    1.522   .     S
C577   H677    1.108   .     S
C577   H678    1.111   .     S
C578   H599    1.111   .     S
C578   H681    1.106   .     S
C579   C580    1.520   .     S
C579   O626    1.417   .     S
C579   H603    1.111   .     S
C579   H604    1.119   .     S
C580   H605    1.112   .     S
C580   H606    1.109   .     S
C580   C1301   1.519   .     S
C581   H609    1.109   .     S
C581   H608    1.106   .     S
C581   H607    1.108   .     S
C581   C2020   1.519   1_554 S
C582   C584    1.369   .     S
C582   O634    1.286   .     A
C582   O637    1.286   .     A
C583   O636    1.285   .     A
C583   O635    1.287   .     A
C583   C585    1.369   .     S
C584   C2025   1.167   1_554 S
C585   C1304   1.167   .     S
C586   O638    1.385   .     S
C587   O624    1.385   .     S
C587   C642    1.376   .     S
C588   O625    1.383   .     S
C588   C666    1.379   .     S
H602   C98     1.110   1_565 S
H610   O627    0.989   .     S
H612   O628    0.984   .     S
H613   O629    0.990   .     S
H614   O630    0.983   .     S
N621   Zn639   2.033   .     S
N622   Zn640   2.033   .     S
O623   Zn639   2.016   .     S
O631   Zn640   2.016   .     S
O632   Zn639   2.013   .     S
O633   Zn640   2.013   .     S
O634   Zn639   1.953   .     S
O635   Zn640   1.953   .     S
O636   Zn639   1.951   .     S
O637   Zn640   1.951   .     S
C641   O703    1.292   .     A
C641   C644    1.425   .     S
C641   O713    1.293   .     A
C642   C644    1.401   .     A
C642   O706    1.383   .     S
C643   C668    1.413   .     A
C643   C652    1.440   .     S
C643   C667    1.414   .     A
C644   C666    1.402   .     A
C645   O707    1.380   .     S
C645   N702    1.367   .     A
C646   N701    1.377   .     A
C646   O708    1.370   .     S
C646   C167    1.431   1_565 S
C647   N702    1.365   .     A
C647   O709    1.376   .     S
C648   N701    1.382   .     A
C648   O710    1.374   .     S
C648   C165    1.435   1_565 S
C649   H669    1.110   .     S
C649   H680    1.117   .     S
C649   C650    1.529   .     S
C649   O718    1.418   .     S
C650   H691    1.108   .     S
C650   H695    1.111   .     S
C650   C2091   1.527   1_554 S
C651   H698    1.109   .     S
C651   H697    1.108   .     S
C651   H696    1.110   .     S
C651   C1370   1.527   .     S
C652   O712    1.295   .     A
C652   O711    1.298   .     A
C653   H700    1.115   .     S
C653   C654    1.531   .     S
C653   H699    1.110   .     S
C653   O704    1.421   .     S
C654   C655    1.526   .     S
C654   H510    1.105   1_655 S
C654   H511    1.109   1_655 S
C655   H672    1.111   .     S
C655   H513    1.106   1_655 S
C655   H194    1.110   1_565 S
C656   H675    1.109   .     S
C656   C657    1.536   .     S
C656   H676    1.111   .     S
C656   O705    1.422   .     S
C657   C658    1.522   .     S
C657   H517    1.108   1_655 S
C657   H518    1.111   1_655 S
C658   H679    1.111   .     S
C658   H521    1.106   1_655 S
C659   C660    1.520   .     S
C659   O706    1.417   .     S
C659   H683    1.111   .     S
C659   H684    1.119   .     S
C660   H685    1.112   .     S
C660   H686    1.109   .     S
C660   C1381   1.519   .     S
C661   H689    1.109   .     S
C661   H688    1.106   .     S
C661   H687    1.108   .     S
C661   C2100   1.519   1_554 S
C662   C664    1.369   .     S
C662   O714    1.286   .     A
C662   O717    1.286   .     A
C663   O716    1.285   .     A
C663   O715    1.287   .     A
C663   C665    1.369   .     S
C664   C2105   1.167   1_554 S
C665   C1384   1.167   .     S
C666   O718    1.385   .     S
C667   O704    1.385   .     S
C667   C482    1.376   1_655 S
C668   O705    1.383   .     S
C668   C506    1.379   1_655 S
H682   C178    1.110   1_565 S
H690   O707    0.989   .     S
H692   O708    0.984   .     S
H693   O709    0.990   .     S
H694   O710    0.983   .     S
N701   Zn719   2.033   .     S
N702   Zn720   2.033   .     S
O703   Zn719   2.016   .     S
O711   Zn720   2.016   .     S
O712   Zn719   2.013   .     S
O713   Zn720   2.013   .     S
O714   Zn719   1.953   .     S
O715   Zn720   1.953   .     S
O716   Zn719   1.951   .     S
O717   Zn720   1.951   .     S
C721   O783    1.292   .     A
C721   C724    1.425   .     S
C721   O793    1.293   .     A
C722   C724    1.401   .     A
C722   O786    1.383   .     S
C722   C907    1.376   1_455 S
C723   C748    1.413   .     A
C723   C732    1.440   .     S
C723   C747    1.414   .     A
C724   C746    1.402   .     A
C725   O787    1.380   .     S
C725   N782    1.367   .     A
C725   C1208   1.435   1_545 S
C726   N781    1.377   .     A
C726   O788    1.370   .     S
C726   C967    1.431   .     S
C727   N782    1.365   .     A
C727   O789    1.376   .     S
C727   C1206   1.431   1_545 S
C728   N781    1.382   .     A
C728   O790    1.374   .     S
C728   C965    1.435   .     S
C729   H749    1.110   .     S
C729   H760    1.117   .     S
C729   C730    1.529   .     S
C729   O798    1.418   .     S
C730   H771    1.108   .     S
C730   H775    1.111   .     S
C731   H778    1.109   .     S
C731   H777    1.108   .     S
C731   H776    1.110   .     S
C731   C1450   1.527   .     S
C732   O792    1.295   .     A
C732   O791    1.298   .     A
C733   H780    1.115   .     S
C733   C734    1.531   .     S
C733   H779    1.110   .     S
C733   O784    1.421   .     S
C734   C735    1.526   .     S
C734   H830    1.105   .     S
C734   H831    1.109   .     S
C735   H752    1.111   .     S
C735   H833    1.106   .     S
C735   H994    1.110   .     S
C736   H755    1.109   .     S
C736   C737    1.536   .     S
C736   H756    1.111   .     S
C736   O785    1.422   .     S
C737   C738    1.522   .     S
C737   H837    1.108   .     S
C737   H838    1.111   .     S
C738   H759    1.111   .     S
C738   H841    1.106   .     S
C738   H1242   1.110   1_545 S
C739   C740    1.520   .     S
C739   O786    1.417   .     S
C739   H763    1.111   .     S
C739   H764    1.119   .     S
C740   H765    1.112   .     S
C740   H766    1.109   .     S
C740   C1461   1.519   .     S
C741   H769    1.109   .     S
C741   H768    1.106   .     S
C741   H767    1.108   .     S
C742   C744    1.369   .     S
C742   O794    1.286   .     A
C742   O797    1.286   .     A
C743   O796    1.285   .     A
C743   O795    1.287   .     A
C743   C745    1.369   .     S
C745   C1464   1.167   .     S
C746   O798    1.385   .     S
C746   C908    1.379   1_455 S
C747   O784    1.385   .     S
C747   C802    1.376   .     S
C748   O785    1.383   .     S
C748   C826    1.379   .     S
H750   C894    1.105   1_455 S
H751   C894    1.109   1_455 S
H753   C895    1.106   1_455 S
H754   C1215   1.110   1_545 S
H757   C897    1.108   1_455 S
H758   C897    1.111   1_455 S
H761   C898    1.106   1_455 S
H762   C978    1.110   .     S
H770   O787    0.989   .     S
H772   O788    0.984   .     S
H773   O789    0.990   .     S
H774   O790    0.983   .     S
N781   Zn799   2.033   .     S
N782   Zn800   2.033   .     S
O783   Zn799   2.016   .     S
O791   Zn800   2.016   .     S
O792   Zn799   2.013   .     S
O793   Zn800   2.013   .     S
O794   Zn799   1.953   .     S
O795   Zn800   1.953   .     S
O796   Zn799   1.951   .     S
O797   Zn800   1.951   .     S
C801   O863    1.292   .     A
C801   C804    1.425   .     S
C801   O873    1.293   .     A
C802   C804    1.401   .     A
C802   O866    1.383   .     S
C803   C828    1.413   .     A
C803   C812    1.440   .     S
C803   C827    1.414   .     A
C804   C826    1.402   .     A
C805   O867    1.380   .     S
C805   N862    1.367   .     A
C805   C1288   1.435   1_545 S
C806   N861    1.377   .     A
C806   O868    1.370   .     S
C806   C1047   1.431   .     S
C807   N862    1.365   .     A
C807   O869    1.376   .     S
C807   C1286   1.431   1_545 S
C808   N861    1.382   .     A
C808   O870    1.374   .     S
C808   C1045   1.435   .     S
C809   H829    1.110   .     S
C809   H840    1.117   .     S
C809   C810    1.529   .     S
C809   O878    1.418   .     S
C810   H851    1.108   .     S
C810   H855    1.111   .     S
C811   H858    1.109   .     S
C811   H857    1.108   .     S
C811   H856    1.110   .     S
C811   C1530   1.527   .     S
C812   O872    1.295   .     A
C812   O871    1.298   .     A
C813   H860    1.115   .     S
C813   C814    1.531   .     S
C813   H859    1.110   .     S
C813   O864    1.421   .     S
C814   C815    1.526   .     S
C814   H910    1.105   .     S
C814   H911    1.109   .     S
C815   H832    1.111   .     S
C815   H913    1.106   .     S
C815   H1074   1.110   .     S
C816   H835    1.109   .     S
C816   C817    1.536   .     S
C816   H836    1.111   .     S
C816   O865    1.422   .     S
C817   C818    1.522   .     S
C817   H917    1.108   .     S
C817   H918    1.111   .     S
C818   H839    1.111   .     S
C818   H921    1.106   .     S
C818   H1322   1.110   1_545 S
C819   C820    1.520   .     S
C819   O866    1.417   .     S
C819   H843    1.111   .     S
C819   H844    1.119   .     S
C820   H845    1.112   .     S
C820   H846    1.109   .     S
C820   C1541   1.519   .     S
C821   H849    1.109   .     S
C821   H848    1.106   .     S
C821   H847    1.108   .     S
C822   C824    1.369   .     S
C822   O874    1.286   .     A
C822   O877    1.286   .     A
C823   O876    1.285   .     A
C823   O875    1.287   .     A
C823   C825    1.369   .     S
C825   C1544   1.167   .     S
C826   O878    1.385   .     S
C827   O864    1.385   .     S
C827   C882    1.376   .     S
C828   O865    1.383   .     S
C828   C906    1.379   .     S
H834   C1295   1.110   1_545 S
H842   C1058   1.110   .     S
H850   O867    0.989   .     S
H852   O868    0.984   .     S
H853   O869    0.990   .     S
H854   O870    0.983   .     S
N861   Zn879   2.033   .     S
N862   Zn880   2.033   .     S
O863   Zn879   2.016   .     S
O871   Zn880   2.016   .     S
O872   Zn879   2.013   .     S
O873   Zn880   2.013   .     S
O874   Zn879   1.953   .     S
O875   Zn880   1.953   .     S
O876   Zn879   1.951   .     S
O877   Zn880   1.951   .     S
C881   O943    1.292   .     A
C881   C884    1.425   .     S
C881   O953    1.293   .     A
C882   C884    1.401   .     A
C882   O946    1.383   .     S
C883   C908    1.413   .     A
C883   C892    1.440   .     S
C883   C907    1.414   .     A
C884   C906    1.402   .     A
C885   O947    1.380   .     S
C885   N942    1.367   .     A
C885   C1368   1.435   1_545 S
C886   N941    1.377   .     A
C886   O948    1.370   .     S
C886   C1127   1.431   .     S
C887   N942    1.365   .     A
C887   O949    1.376   .     S
C887   C1366   1.431   1_545 S
C888   N941    1.382   .     A
C888   O950    1.374   .     S
C888   C1125   1.435   .     S
C889   H909    1.110   .     S
C889   H920    1.117   .     S
C889   C890    1.529   .     S
C889   O958    1.418   .     S
C890   H931    1.108   .     S
C890   H935    1.111   .     S
C891   H938    1.109   .     S
C891   H937    1.108   .     S
C891   H936    1.110   .     S
C891   C1610   1.527   .     S
C892   O952    1.295   .     A
C892   O951    1.298   .     A
C893   H940    1.115   .     S
C893   C894    1.531   .     S
C893   H939    1.110   .     S
C893   O944    1.421   .     S
C894   C895    1.526   .     S
C894   H750    1.105   1_655 S
C894   H751    1.109   1_655 S
C895   H912    1.111   .     S
C895   H753    1.106   1_655 S
C895   H1154   1.110   .     S
C896   H915    1.109   .     S
C896   C897    1.536   .     S
C896   H916    1.111   .     S
C896   O945    1.422   .     S
C897   C898    1.522   .     S
C897   H757    1.108   1_655 S
C897   H758    1.111   1_655 S
C898   H919    1.111   .     S
C898   H761    1.106   1_655 S
C898   H1402   1.110   1_545 S
C899   C900    1.520   .     S
C899   O946    1.417   .     S
C899   H923    1.111   .     S
C899   H924    1.119   .     S
C900   H925    1.112   .     S
C900   H926    1.109   .     S
C900   C1621   1.519   .     S
C901   H929    1.109   .     S
C901   H928    1.106   .     S
C901   H927    1.108   .     S
C902   C904    1.369   .     S
C902   O954    1.286   .     A
C902   O957    1.286   .     A
C903   O956    1.285   .     A
C903   O955    1.287   .     A
C903   C905    1.369   .     S
C905   C1624   1.167   .     S
C906   O958    1.385   .     S
C907   O944    1.385   .     S
C907   C722    1.376   1_655 S
C908   O945    1.383   .     S
C908   C746    1.379   1_655 S
H914   C1375   1.110   1_545 S
H922   C1138   1.110   .     S
H930   O947    0.989   .     S
H932   O948    0.984   .     S
H933   O949    0.990   .     S
H934   O950    0.983   .     S
N941   Zn959   2.033   .     S
N942   Zn960   2.033   .     S
O943   Zn959   2.016   .     S
O951   Zn960   2.016   .     S
O952   Zn959   2.013   .     S
O953   Zn960   2.013   .     S
O954   Zn959   1.953   .     S
O955   Zn960   1.953   .     S
O956   Zn959   1.951   .     S
O957   Zn960   1.951   .     S
C961   O1023   1.292   .     A
C961   C964    1.425   .     S
C961   O1033   1.293   .     A
C962   C964    1.401   .     A
C962   O1026   1.383   .     S
C962   C1147   1.376   1_455 S
C963   C988    1.413   .     A
C963   C972    1.440   .     S
C963   C987    1.414   .     A
C964   C986    1.402   .     A
C965   O1027   1.380   .     S
C965   N1022   1.367   .     A
C966   N1021   1.377   .     A
C966   O1028   1.370   .     S
C966   C1207   1.431   .     S
C967   N1022   1.365   .     A
C967   O1029   1.376   .     S
C968   N1021   1.382   .     A
C968   O1030   1.374   .     S
C968   C1205   1.435   .     S
C969   H989    1.110   .     S
C969   H1000   1.117   .     S
C969   C970    1.529   .     S
C969   O1038   1.418   .     S
C970   H1011   1.108   .     S
C970   H1015   1.111   .     S
C971   H1018   1.109   .     S
C971   H1017   1.108   .     S
C971   H1016   1.110   .     S
C971   C1690   1.527   .     S
C972   O1032   1.295   .     A
C972   O1031   1.298   .     A
C973   H1020   1.115   .     S
C973   C974    1.531   .     S
C973   H1019   1.110   .     S
C973   O1024   1.421   .     S
C974   C975    1.526   .     S
C974   H1070   1.105   .     S
C974   H1071   1.109   .     S
C975   H992    1.111   .     S
C975   H1073   1.106   .     S
C975   H1234   1.110   .     S
C976   H995    1.109   .     S
C976   C977    1.536   .     S
C976   H996    1.111   .     S
C976   O1025   1.422   .     S
C977   C978    1.522   .     S
C977   H1077   1.108   .     S
C977   H1078   1.111   .     S
C978   H999    1.111   .     S
C978   H1081   1.106   .     S
C979   C980    1.520   .     S
C979   O1026   1.417   .     S
C979   H1003   1.111   .     S
C979   H1004   1.119   .     S
C980   H1005   1.112   .     S
C980   H1006   1.109   .     S
C980   C1701   1.519   .     S
C981   H1009   1.109   .     S
C981   H1008   1.106   .     S
C981   H1007   1.108   .     S
C982   C984    1.369   .     S
C982   O1034   1.286   .     A
C982   O1037   1.286   .     A
C983   O1036   1.285   .     A
C983   O1035   1.287   .     A
C983   C985    1.369   .     S
C985   C1704   1.167   .     S
C986   O1038   1.385   .     S
C986   C1148   1.379   1_455 S
C987   O1024   1.385   .     S
C987   C1042   1.376   .     S
C988   O1025   1.383   .     S
C988   C1066   1.379   .     S
H990   C1134   1.105   1_455 S
H991   C1134   1.109   1_455 S
H993   C1135   1.106   1_455 S
H997   C1137   1.108   1_455 S
H998   C1137   1.111   1_455 S
H1001  C1138   1.106   1_455 S
H1002  C1218   1.110   .     S
H1010  O1027   0.989   .     S
H1012  O1028   0.984   .     S
H1013  O1029   0.990   .     S
H1014  O1030   0.983   .     S
N1021  Zn1039  2.033   .     S
N1022  Zn1040  2.033   .     S
O1023  Zn1039  2.016   .     S
O1031  Zn1040  2.016   .     S
O1032  Zn1039  2.013   .     S
O1033  Zn1040  2.013   .     S
O1034  Zn1039  1.953   .     S
O1035  Zn1040  1.953   .     S
O1036  Zn1039  1.951   .     S
O1037  Zn1040  1.951   .     S
C1041  O1103   1.292   .     A
C1041  C1044   1.425   .     S
C1041  O1113   1.293   .     A
C1042  C1044   1.401   .     A
C1042  O1106   1.383   .     S
C1043  C1068   1.413   .     A
C1043  C1052   1.440   .     S
C1043  C1067   1.414   .     A
C1044  C1066   1.402   .     A
C1045  O1107   1.380   .     S
C1045  N1102   1.367   .     A
C1046  N1101   1.377   .     A
C1046  O1108   1.370   .     S
C1046  C1287   1.431   .     S
C1047  N1102   1.365   .     A
C1047  O1109   1.376   .     S
C1048  N1101   1.382   .     A
C1048  O1110   1.374   .     S
C1048  C1285   1.435   .     S
C1049  H1069   1.110   .     S
C1049  H1080   1.117   .     S
C1049  C1050   1.529   .     S
C1049  O1118   1.418   .     S
C1050  H1091   1.108   .     S
C1050  H1095   1.111   .     S
C1051  H1098   1.109   .     S
C1051  H1097   1.108   .     S
C1051  H1096   1.110   .     S
C1051  C1770   1.527   .     S
C1052  O1112   1.295   .     A
C1052  O1111   1.298   .     A
C1053  H1100   1.115   .     S
C1053  C1054   1.531   .     S
C1053  H1099   1.110   .     S
C1053  O1104   1.421   .     S
C1054  C1055   1.526   .     S
C1054  H1150   1.105   .     S
C1054  H1151   1.109   .     S
C1055  H1072   1.111   .     S
C1055  H1153   1.106   .     S
C1055  H1314   1.110   .     S
C1056  H1075   1.109   .     S
C1056  C1057   1.536   .     S
C1056  H1076   1.111   .     S
C1056  O1105   1.422   .     S
C1057  C1058   1.522   .     S
C1057  H1157   1.108   .     S
C1057  H1158   1.111   .     S
C1058  H1079   1.111   .     S
C1058  H1161   1.106   .     S
C1059  C1060   1.520   .     S
C1059  O1106   1.417   .     S
C1059  H1083   1.111   .     S
C1059  H1084   1.119   .     S
C1060  H1085   1.112   .     S
C1060  H1086   1.109   .     S
C1060  C1781   1.519   .     S
C1061  H1089   1.109   .     S
C1061  H1088   1.106   .     S
C1061  H1087   1.108   .     S
C1062  C1064   1.369   .     S
C1062  O1114   1.286   .     A
C1062  O1117   1.286   .     A
C1063  O1116   1.285   .     A
C1063  O1115   1.287   .     A
C1063  C1065   1.369   .     S
C1065  C1784   1.167   .     S
C1066  O1118   1.385   .     S
C1067  O1104   1.385   .     S
C1067  C1122   1.376   .     S
C1068  O1105   1.383   .     S
C1068  C1146   1.379   .     S
H1082  C1298   1.110   .     S
H1090  O1107   0.989   .     S
H1092  O1108   0.984   .     S
H1093  O1109   0.990   .     S
H1094  O1110   0.983   .     S
N1101  Zn1119  2.033   .     S
N1102  Zn1120  2.033   .     S
O1103  Zn1119  2.016   .     S
O1111  Zn1120  2.016   .     S
O1112  Zn1119  2.013   .     S
O1113  Zn1120  2.013   .     S
O1114  Zn1119  1.953   .     S
O1115  Zn1120  1.953   .     S
O1116  Zn1119  1.951   .     S
O1117  Zn1120  1.951   .     S
C1121  O1183   1.292   .     A
C1121  C1124   1.425   .     S
C1121  O1193   1.293   .     A
C1122  C1124   1.401   .     A
C1122  O1186   1.383   .     S
C1123  C1148   1.413   .     A
C1123  C1132   1.440   .     S
C1123  C1147   1.414   .     A
C1124  C1146   1.402   .     A
C1125  O1187   1.380   .     S
C1125  N1182   1.367   .     A
C1126  N1181   1.377   .     A
C1126  O1188   1.370   .     S
C1126  C1367   1.431   .     S
C1127  N1182   1.365   .     A
C1127  O1189   1.376   .     S
C1128  N1181   1.382   .     A
C1128  O1190   1.374   .     S
C1128  C1365   1.435   .     S
C1129  H1149   1.110   .     S
C1129  H1160   1.117   .     S
C1129  C1130   1.529   .     S
C1129  O1198   1.418   .     S
C1130  H1171   1.108   .     S
C1130  H1175   1.111   .     S
C1131  H1178   1.109   .     S
C1131  H1177   1.108   .     S
C1131  H1176   1.110   .     S
C1131  C1850   1.527   .     S
C1132  O1192   1.295   .     A
C1132  O1191   1.298   .     A
C1133  H1180   1.115   .     S
C1133  C1134   1.531   .     S
C1133  H1179   1.110   .     S
C1133  O1184   1.421   .     S
C1134  C1135   1.526   .     S
C1134  H990    1.105   1_655 S
C1134  H991    1.109   1_655 S
C1135  H1152   1.111   .     S
C1135  H993    1.106   1_655 S
C1135  H1394   1.110   .     S
C1136  H1155   1.109   .     S
C1136  C1137   1.536   .     S
C1136  H1156   1.111   .     S
C1136  O1185   1.422   .     S
C1137  C1138   1.522   .     S
C1137  H997    1.108   1_655 S
C1137  H998    1.111   1_655 S
C1138  H1159   1.111   .     S
C1138  H1001   1.106   1_655 S
C1139  C1140   1.520   .     S
C1139  O1186   1.417   .     S
C1139  H1163   1.111   .     S
C1139  H1164   1.119   .     S
C1140  H1165   1.112   .     S
C1140  H1166   1.109   .     S
C1140  C1861   1.519   .     S
C1141  H1169   1.109   .     S
C1141  H1168   1.106   .     S
C1141  H1167   1.108   .     S
C1142  C1144   1.369   .     S
C1142  O1194   1.286   .     A
C1142  O1197   1.286   .     A
C1143  O1196   1.285   .     A
C1143  O1195   1.287   .     A
C1143  C1145   1.369   .     S
C1145  C1864   1.167   .     S
C1146  O1198   1.385   .     S
C1147  O1184   1.385   .     S
C1147  C962    1.376   1_655 S
C1148  O1185   1.383   .     S
C1148  C986    1.379   1_655 S
H1162  C1378   1.110   .     S
H1170  O1187   0.989   .     S
H1172  O1188   0.984   .     S
H1173  O1189   0.990   .     S
H1174  O1190   0.983   .     S
N1181  Zn1199  2.033   .     S
N1182  Zn1200  2.033   .     S
O1183  Zn1199  2.016   .     S
O1191  Zn1200  2.016   .     S
O1192  Zn1199  2.013   .     S
O1193  Zn1200  2.013   .     S
O1194  Zn1199  1.953   .     S
O1195  Zn1200  1.953   .     S
O1196  Zn1199  1.951   .     S
O1197  Zn1200  1.951   .     S
C1201  O1263   1.292   .     A
C1201  C1204   1.425   .     S
C1201  O1273   1.293   .     A
C1202  C1204   1.401   .     A
C1202  O1266   1.383   .     S
C1202  C1387   1.376   1_455 S
C1203  C1228   1.413   .     A
C1203  C1212   1.440   .     S
C1203  C1227   1.414   .     A
C1204  C1226   1.402   .     A
C1205  O1267   1.380   .     S
C1205  N1262   1.367   .     A
C1206  N1261   1.377   .     A
C1206  O1268   1.370   .     S
C1206  C727    1.431   1_565 S
C1207  N1262   1.365   .     A
C1207  O1269   1.376   .     S
C1208  N1261   1.382   .     A
C1208  O1270   1.374   .     S
C1208  C725    1.435   1_565 S
C1209  H1229   1.110   .     S
C1209  H1240   1.117   .     S
C1209  C1210   1.529   .     S
C1209  O1278   1.418   .     S
C1210  H1251   1.108   .     S
C1210  H1255   1.111   .     S
C1211  H1258   1.109   .     S
C1211  H1257   1.108   .     S
C1211  H1256   1.110   .     S
C1211  C1930   1.527   .     S
C1212  O1272   1.295   .     A
C1212  O1271   1.298   .     A
C1213  H1260   1.115   .     S
C1213  C1214   1.531   .     S
C1213  H1259   1.110   .     S
C1213  O1264   1.421   .     S
C1214  C1215   1.526   .     S
C1214  H1310   1.105   .     S
C1214  H1311   1.109   .     S
C1215  H1232   1.111   .     S
C1215  H1313   1.106   .     S
C1215  H754    1.110   1_565 S
C1216  H1235   1.109   .     S
C1216  C1217   1.536   .     S
C1216  H1236   1.111   .     S
C1216  O1265   1.422   .     S
C1217  C1218   1.522   .     S
C1217  H1317   1.108   .     S
C1217  H1318   1.111   .     S
C1218  H1239   1.111   .     S
C1218  H1321   1.106   .     S
C1219  C1220   1.520   .     S
C1219  O1266   1.417   .     S
C1219  H1243   1.111   .     S
C1219  H1244   1.119   .     S
C1220  H1245   1.112   .     S
C1220  H1246   1.109   .     S
C1220  C1941   1.519   .     S
C1221  H1249   1.109   .     S
C1221  H1248   1.106   .     S
C1221  H1247   1.108   .     S
C1222  C1224   1.369   .     S
C1222  O1274   1.286   .     A
C1222  O1277   1.286   .     A
C1223  O1276   1.285   .     A
C1223  O1275   1.287   .     A
C1223  C1225   1.369   .     S
C1225  C1944   1.167   .     S
C1226  O1278   1.385   .     S
C1226  C1388   1.379   1_455 S
C1227  O1264   1.385   .     S
C1227  C1282   1.376   .     S
C1228  O1265   1.383   .     S
C1228  C1306   1.379   .     S
H1230  C1374   1.105   1_455 S
H1231  C1374   1.109   1_455 S
H1233  C1375   1.106   1_455 S
H1237  C1377   1.108   1_455 S
H1238  C1377   1.111   1_455 S
H1241  C1378   1.106   1_455 S
H1242  C738    1.110   1_565 S
H1250  O1267   0.989   .     S
H1252  O1268   0.984   .     S
H1253  O1269   0.990   .     S
H1254  O1270   0.983   .     S
N1261  Zn1279  2.033   .     S
N1262  Zn1280  2.033   .     S
O1263  Zn1279  2.016   .     S
O1271  Zn1280  2.016   .     S
O1272  Zn1279  2.013   .     S
O1273  Zn1280  2.013   .     S
O1274  Zn1279  1.953   .     S
O1275  Zn1280  1.953   .     S
O1276  Zn1279  1.951   .     S
O1277  Zn1280  1.951   .     S
C1281  O1343   1.292   .     A
C1281  C1284   1.425   .     S
C1281  O1353   1.293   .     A
C1282  C1284   1.401   .     A
C1282  O1346   1.383   .     S
C1283  C1308   1.413   .     A
C1283  C1292   1.440   .     S
C1283  C1307   1.414   .     A
C1284  C1306   1.402   .     A
C1285  O1347   1.380   .     S
C1285  N1342   1.367   .     A
C1286  N1341   1.377   .     A
C1286  O1348   1.370   .     S
C1286  C807    1.431   1_565 S
C1287  N1342   1.365   .     A
C1287  O1349   1.376   .     S
C1288  N1341   1.382   .     A
C1288  O1350   1.374   .     S
C1288  C805    1.435   1_565 S
C1289  H1309   1.110   .     S
C1289  H1320   1.117   .     S
C1289  C1290   1.529   .     S
C1289  O1358   1.418   .     S
C1290  H1331   1.108   .     S
C1290  H1335   1.111   .     S
C1291  H1338   1.109   .     S
C1291  H1337   1.108   .     S
C1291  H1336   1.110   .     S
C1291  C2010   1.527   .     S
C1292  O1352   1.295   .     A
C1292  O1351   1.298   .     A
C1293  H1340   1.115   .     S
C1293  C1294   1.531   .     S
C1293  H1339   1.110   .     S
C1293  O1344   1.421   .     S
C1294  C1295   1.526   .     S
C1294  H1390   1.105   .     S
C1294  H1391   1.109   .     S
C1295  H1312   1.111   .     S
C1295  H1393   1.106   .     S
C1295  H834    1.110   1_565 S
C1296  H1315   1.109   .     S
C1296  C1297   1.536   .     S
C1296  H1316   1.111   .     S
C1296  O1345   1.422   .     S
C1297  C1298   1.522   .     S
C1297  H1397   1.108   .     S
C1297  H1398   1.111   .     S
C1298  H1319   1.111   .     S
C1298  H1401   1.106   .     S
C1299  C1300   1.520   .     S
C1299  O1346   1.417   .     S
C1299  H1323   1.111   .     S
C1299  H1324   1.119   .     S
C1300  H1325   1.112   .     S
C1300  H1326   1.109   .     S
C1300  C2021   1.519   .     S
C1301  H1329   1.109   .     S
C1301  H1328   1.106   .     S
C1301  H1327   1.108   .     S
C1302  C1304   1.369   .     S
C1302  O1354   1.286   .     A
C1302  O1357   1.286   .     A
C1303  O1356   1.285   .     A
C1303  O1355   1.287   .     A
C1303  C1305   1.369   .     S
C1305  C2024   1.167   .     S
C1306  O1358   1.385   .     S
C1307  O1344   1.385   .     S
C1307  C1362   1.376   .     S
C1308  O1345   1.383   .     S
C1308  C1386   1.379   .     S
H1322  C818    1.110   1_565 S
H1330  O1347   0.989   .     S
H1332  O1348   0.984   .     S
H1333  O1349   0.990   .     S
H1334  O1350   0.983   .     S
N1341  Zn1359  2.033   .     S
N1342  Zn1360  2.033   .     S
O1343  Zn1359  2.016   .     S
O1351  Zn1360  2.016   .     S
O1352  Zn1359  2.013   .     S
O1353  Zn1360  2.013   .     S
O1354  Zn1359  1.953   .     S
O1355  Zn1360  1.953   .     S
O1356  Zn1359  1.951   .     S
O1357  Zn1360  1.951   .     S
C1361  O1423   1.292   .     A
C1361  C1364   1.425   .     S
C1361  O1433   1.293   .     A
C1362  C1364   1.401   .     A
C1362  O1426   1.383   .     S
C1363  C1388   1.413   .     A
C1363  C1372   1.440   .     S
C1363  C1387   1.414   .     A
C1364  C1386   1.402   .     A
C1365  O1427   1.380   .     S
C1365  N1422   1.367   .     A
C1366  N1421   1.377   .     A
C1366  O1428   1.370   .     S
C1366  C887    1.431   1_565 S
C1367  N1422   1.365   .     A
C1367  O1429   1.376   .     S
C1368  N1421   1.382   .     A
C1368  O1430   1.374   .     S
C1368  C885    1.435   1_565 S
C1369  H1389   1.110   .     S
C1369  H1400   1.117   .     S
C1369  C1370   1.529   .     S
C1369  O1438   1.418   .     S
C1370  H1411   1.108   .     S
C1370  H1415   1.111   .     S
C1371  H1418   1.109   .     S
C1371  H1417   1.108   .     S
C1371  H1416   1.110   .     S
C1371  C2090   1.527   .     S
C1372  O1432   1.295   .     A
C1372  O1431   1.298   .     A
C1373  H1420   1.115   .     S
C1373  C1374   1.531   .     S
C1373  H1419   1.110   .     S
C1373  O1424   1.421   .     S
C1374  C1375   1.526   .     S
C1374  H1230   1.105   1_655 S
C1374  H1231   1.109   1_655 S
C1375  H1392   1.111   .     S
C1375  H1233   1.106   1_655 S
C1375  H914    1.110   1_565 S
C1376  H1395   1.109   .     S
C1376  C1377   1.536   .     S
C1376  H1396   1.111   .     S
C1376  O1425   1.422   .     S
C1377  C1378   1.522   .     S
C1377  H1237   1.108   1_655 S
C1377  H1238   1.111   1_655 S
C1378  H1399   1.111   .     S
C1378  H1241   1.106   1_655 S
C1379  C1380   1.520   .     S
C1379  O1426   1.417   .     S
C1379  H1403   1.111   .     S
C1379  H1404   1.119   .     S
C1380  H1405   1.112   .     S
C1380  H1406   1.109   .     S
C1380  C2101   1.519   .     S
C1381  H1409   1.109   .     S
C1381  H1408   1.106   .     S
C1381  H1407   1.108   .     S
C1382  C1384   1.369   .     S
C1382  O1434   1.286   .     A
C1382  O1437   1.286   .     A
C1383  O1436   1.285   .     A
C1383  O1435   1.287   .     A
C1383  C1385   1.369   .     S
C1385  C2104   1.167   .     S
C1386  O1438   1.385   .     S
C1387  O1424   1.385   .     S
C1387  C1202   1.376   1_655 S
C1388  O1425   1.383   .     S
C1388  C1226   1.379   1_655 S
H1402  C898    1.110   1_565 S
H1410  O1427   0.989   .     S
H1412  O1428   0.984   .     S
H1413  O1429   0.990   .     S
H1414  O1430   0.983   .     S
N1421  Zn1439  2.033   .     S
N1422  Zn1440  2.033   .     S
O1423  Zn1439  2.016   .     S
O1431  Zn1440  2.016   .     S
O1432  Zn1439  2.013   .     S
O1433  Zn1440  2.013   .     S
O1434  Zn1439  1.953   .     S
O1435  Zn1440  1.953   .     S
O1436  Zn1439  1.951   .     S
O1437  Zn1440  1.951   .     S
C1441  O1503   1.292   .     A
C1441  C1444   1.425   .     S
C1441  O1513   1.293   .     A
C1442  C1444   1.401   .     A
C1442  O1506   1.383   .     S
C1442  C1627   1.376   1_455 S
C1443  C1468   1.413   .     A
C1443  C1452   1.440   .     S
C1443  C1467   1.414   .     A
C1444  C1466   1.402   .     A
C1445  O1507   1.380   .     S
C1445  N1502   1.367   .     A
C1445  C1928   1.435   1_545 S
C1446  N1501   1.377   .     A
C1446  O1508   1.370   .     S
C1446  C1687   1.431   .     S
C1447  N1502   1.365   .     A
C1447  O1509   1.376   .     S
C1447  C1926   1.431   1_545 S
C1448  N1501   1.382   .     A
C1448  O1510   1.374   .     S
C1448  C1685   1.435   .     S
C1449  H1469   1.110   .     S
C1449  H1480   1.117   .     S
C1449  C1450   1.529   .     S
C1449  O1518   1.418   .     S
C1450  H1491   1.108   .     S
C1450  H1495   1.111   .     S
C1451  H1498   1.109   .     S
C1451  H1497   1.108   .     S
C1451  H1496   1.110   .     S
C1451  C10     1.527   1_556 S
C1452  O1512   1.295   .     A
C1452  O1511   1.298   .     A
C1453  H1500   1.115   .     S
C1453  C1454   1.531   .     S
C1453  H1499   1.110   .     S
C1453  O1504   1.421   .     S
C1454  C1455   1.526   .     S
C1454  H1550   1.105   .     S
C1454  H1551   1.109   .     S
C1455  H1472   1.111   .     S
C1455  H1553   1.106   .     S
C1455  H1714   1.110   .     S
C1456  H1475   1.109   .     S
C1456  C1457   1.536   .     S
C1456  H1476   1.111   .     S
C1456  O1505   1.422   .     S
C1457  C1458   1.522   .     S
C1457  H1557   1.108   .     S
C1457  H1558   1.111   .     S
C1458  H1479   1.111   .     S
C1458  H1561   1.106   .     S
C1458  H1962   1.110   1_545 S
C1459  C1460   1.520   .     S
C1459  O1506   1.417   .     S
C1459  H1483   1.111   .     S
C1459  H1484   1.119   .     S
C1460  H1485   1.112   .     S
C1460  H1486   1.109   .     S
C1460  C21     1.519   1_556 S
C1461  H1489   1.109   .     S
C1461  H1488   1.106   .     S
C1461  H1487   1.108   .     S
C1462  C1464   1.369   .     S
C1462  O1514   1.286   .     A
C1462  O1517   1.286   .     A
C1463  O1516   1.285   .     A
C1463  O1515   1.287   .     A
C1463  C1465   1.369   .     S
C1465  C24     1.167   1_556 S
C1466  O1518   1.385   .     S
C1466  C1628   1.379   1_455 S
C1467  O1504   1.385   .     S
C1467  C1522   1.376   .     S
C1468  O1505   1.383   .     S
C1468  C1546   1.379   .     S
H1470  C1614   1.105   1_455 S
H1471  C1614   1.109   1_455 S
H1473  C1615   1.106   1_455 S
H1474  C1935   1.110   1_545 S
H1477  C1617   1.108   1_455 S
H1478  C1617   1.111   1_455 S
H1481  C1618   1.106   1_455 S
H1482  C1698   1.110   .     S
H1490  O1507   0.989   .     S
H1492  O1508   0.984   .     S
H1493  O1509   0.990   .     S
H1494  O1510   0.983   .     S
N1501  Zn1519  2.033   .     S
N1502  Zn1520  2.033   .     S
O1503  Zn1519  2.016   .     S
O1511  Zn1520  2.016   .     S
O1512  Zn1519  2.013   .     S
O1513  Zn1520  2.013   .     S
O1514  Zn1519  1.953   .     S
O1515  Zn1520  1.953   .     S
O1516  Zn1519  1.951   .     S
O1517  Zn1520  1.951   .     S
C1521  O1583   1.292   .     A
C1521  C1524   1.425   .     S
C1521  O1593   1.293   .     A
C1522  C1524   1.401   .     A
C1522  O1586   1.383   .     S
C1523  C1548   1.413   .     A
C1523  C1532   1.440   .     S
C1523  C1547   1.414   .     A
C1524  C1546   1.402   .     A
C1525  O1587   1.380   .     S
C1525  N1582   1.367   .     A
C1525  C2008   1.435   1_545 S
C1526  N1581   1.377   .     A
C1526  O1588   1.370   .     S
C1526  C1767   1.431   .     S
C1527  N1582   1.365   .     A
C1527  O1589   1.376   .     S
C1527  C2006   1.431   1_545 S
C1528  N1581   1.382   .     A
C1528  O1590   1.374   .     S
C1528  C1765   1.435   .     S
C1529  H1549   1.110   .     S
C1529  H1560   1.117   .     S
C1529  C1530   1.529   .     S
C1529  O1598   1.418   .     S
C1530  H1571   1.108   .     S
C1530  H1575   1.111   .     S
C1531  H1578   1.109   .     S
C1531  H1577   1.108   .     S
C1531  H1576   1.110   .     S
C1531  C90     1.527   1_556 S
C1532  O1592   1.295   .     A
C1532  O1591   1.298   .     A
C1533  H1580   1.115   .     S
C1533  C1534   1.531   .     S
C1533  H1579   1.110   .     S
C1533  O1584   1.421   .     S
C1534  C1535   1.526   .     S
C1534  H1630   1.105   .     S
C1534  H1631   1.109   .     S
C1535  H1552   1.111   .     S
C1535  H1633   1.106   .     S
C1535  H1794   1.110   .     S
C1536  H1555   1.109   .     S
C1536  C1537   1.536   .     S
C1536  H1556   1.111   .     S
C1536  O1585   1.422   .     S
C1537  C1538   1.522   .     S
C1537  H1637   1.108   .     S
C1537  H1638   1.111   .     S
C1538  H1559   1.111   .     S
C1538  H1641   1.106   .     S
C1538  H2042   1.110   1_545 S
C1539  C1540   1.520   .     S
C1539  O1586   1.417   .     S
C1539  H1563   1.111   .     S
C1539  H1564   1.119   .     S
C1540  H1565   1.112   .     S
C1540  H1566   1.109   .     S
C1540  C101    1.519   1_556 S
C1541  H1569   1.109   .     S
C1541  H1568   1.106   .     S
C1541  H1567   1.108   .     S
C1542  C1544   1.369   .     S
C1542  O1594   1.286   .     A
C1542  O1597   1.286   .     A
C1543  O1596   1.285   .     A
C1543  O1595   1.287   .     A
C1543  C1545   1.369   .     S
C1545  C104    1.167   1_556 S
C1546  O1598   1.385   .     S
C1547  O1584   1.385   .     S
C1547  C1602   1.376   .     S
C1548  O1585   1.383   .     S
C1548  C1626   1.379   .     S
H1554  C2015   1.110   1_545 S
H1562  C1778   1.110   .     S
H1570  O1587   0.989   .     S
H1572  O1588   0.984   .     S
H1573  O1589   0.990   .     S
H1574  O1590   0.983   .     S
N1581  Zn1599  2.033   .     S
N1582  Zn1600  2.033   .     S
O1583  Zn1599  2.016   .     S
O1591  Zn1600  2.016   .     S
O1592  Zn1599  2.013   .     S
O1593  Zn1600  2.013   .     S
O1594  Zn1599  1.953   .     S
O1595  Zn1600  1.953   .     S
O1596  Zn1599  1.951   .     S
O1597  Zn1600  1.951   .     S
C1601  O1663   1.292   .     A
C1601  C1604   1.425   .     S
C1601  O1673   1.293   .     A
C1602  C1604   1.401   .     A
C1602  O1666   1.383   .     S
C1603  C1628   1.413   .     A
C1603  C1612   1.440   .     S
C1603  C1627   1.414   .     A
C1604  C1626   1.402   .     A
C1605  O1667   1.380   .     S
C1605  N1662   1.367   .     A
C1605  C2088   1.435   1_545 S
C1606  N1661   1.377   .     A
C1606  O1668   1.370   .     S
C1606  C1847   1.431   .     S
C1607  N1662   1.365   .     A
C1607  O1669   1.376   .     S
C1607  C2086   1.431   1_545 S
C1608  N1661   1.382   .     A
C1608  O1670   1.374   .     S
C1608  C1845   1.435   .     S
C1609  H1629   1.110   .     S
C1609  H1640   1.117   .     S
C1609  C1610   1.529   .     S
C1609  O1678   1.418   .     S
C1610  H1651   1.108   .     S
C1610  H1655   1.111   .     S
C1611  H1658   1.109   .     S
C1611  H1657   1.108   .     S
C1611  H1656   1.110   .     S
C1611  C170    1.527   1_556 S
C1612  O1672   1.295   .     A
C1612  O1671   1.298   .     A
C1613  H1660   1.115   .     S
C1613  C1614   1.531   .     S
C1613  H1659   1.110   .     S
C1613  O1664   1.421   .     S
C1614  C1615   1.526   .     S
C1614  H1470   1.105   1_655 S
C1614  H1471   1.109   1_655 S
C1615  H1632   1.111   .     S
C1615  H1473   1.106   1_655 S
C1615  H1874   1.110   .     S
C1616  H1635   1.109   .     S
C1616  C1617   1.536   .     S
C1616  H1636   1.111   .     S
C1616  O1665   1.422   .     S
C1617  C1618   1.522   .     S
C1617  H1477   1.108   1_655 S
C1617  H1478   1.111   1_655 S
C1618  H1639   1.111   .     S
C1618  H1481   1.106   1_655 S
C1618  H2122   1.110   1_545 S
C1619  C1620   1.520   .     S
C1619  O1666   1.417   .     S
C1619  H1643   1.111   .     S
C1619  H1644   1.119   .     S
C1620  H1645   1.112   .     S
C1620  H1646   1.109   .     S
C1620  C181    1.519   1_556 S
C1621  H1649   1.109   .     S
C1621  H1648   1.106   .     S
C1621  H1647   1.108   .     S
C1622  C1624   1.369   .     S
C1622  O1674   1.286   .     A
C1622  O1677   1.286   .     A
C1623  O1676   1.285   .     A
C1623  O1675   1.287   .     A
C1623  C1625   1.369   .     S
C1625  C184    1.167   1_556 S
C1626  O1678   1.385   .     S
C1627  O1664   1.385   .     S
C1627  C1442   1.376   1_655 S
C1628  O1665   1.383   .     S
C1628  C1466   1.379   1_655 S
H1634  C2095   1.110   1_545 S
H1642  C1858   1.110   .     S
H1650  O1667   0.989   .     S
H1652  O1668   0.984   .     S
H1653  O1669   0.990   .     S
H1654  O1670   0.983   .     S
N1661  Zn1679  2.033   .     S
N1662  Zn1680  2.033   .     S
O1663  Zn1679  2.016   .     S
O1671  Zn1680  2.016   .     S
O1672  Zn1679  2.013   .     S
O1673  Zn1680  2.013   .     S
O1674  Zn1679  1.953   .     S
O1675  Zn1680  1.953   .     S
O1676  Zn1679  1.951   .     S
O1677  Zn1680  1.951   .     S
C1681  O1743   1.292   .     A
C1681  C1684   1.425   .     S
C1681  O1753   1.293   .     A
C1682  C1684   1.401   .     A
C1682  O1746   1.383   .     S
C1682  C1867   1.376   1_455 S
C1683  C1708   1.413   .     A
C1683  C1692   1.440   .     S
C1683  C1707   1.414   .     A
C1684  C1706   1.402   .     A
C1685  O1747   1.380   .     S
C1685  N1742   1.367   .     A
C1686  N1741   1.377   .     A
C1686  O1748   1.370   .     S
C1686  C1927   1.431   .     S
C1687  N1742   1.365   .     A
C1687  O1749   1.376   .     S
C1688  N1741   1.382   .     A
C1688  O1750   1.374   .     S
C1688  C1925   1.435   .     S
C1689  H1709   1.110   .     S
C1689  H1720   1.117   .     S
C1689  C1690   1.529   .     S
C1689  O1758   1.418   .     S
C1690  H1731   1.108   .     S
C1690  H1735   1.111   .     S
C1691  H1738   1.109   .     S
C1691  H1737   1.108   .     S
C1691  H1736   1.110   .     S
C1691  C250    1.527   1_556 S
C1692  O1752   1.295   .     A
C1692  O1751   1.298   .     A
C1693  H1740   1.115   .     S
C1693  C1694   1.531   .     S
C1693  H1739   1.110   .     S
C1693  O1744   1.421   .     S
C1694  C1695   1.526   .     S
C1694  H1790   1.105   .     S
C1694  H1791   1.109   .     S
C1695  H1712   1.111   .     S
C1695  H1793   1.106   .     S
C1695  H1954   1.110   .     S
C1696  H1715   1.109   .     S
C1696  C1697   1.536   .     S
C1696  H1716   1.111   .     S
C1696  O1745   1.422   .     S
C1697  C1698   1.522   .     S
C1697  H1797   1.108   .     S
C1697  H1798   1.111   .     S
C1698  H1719   1.111   .     S
C1698  H1801   1.106   .     S
C1699  C1700   1.520   .     S
C1699  O1746   1.417   .     S
C1699  H1723   1.111   .     S
C1699  H1724   1.119   .     S
C1700  H1725   1.112   .     S
C1700  H1726   1.109   .     S
C1700  C261    1.519   1_556 S
C1701  H1729   1.109   .     S
C1701  H1728   1.106   .     S
C1701  H1727   1.108   .     S
C1702  C1704   1.369   .     S
C1702  O1754   1.286   .     A
C1702  O1757   1.286   .     A
C1703  O1756   1.285   .     A
C1703  O1755   1.287   .     A
C1703  C1705   1.369   .     S
C1705  C264    1.167   1_556 S
C1706  O1758   1.385   .     S
C1706  C1868   1.379   1_455 S
C1707  O1744   1.385   .     S
C1707  C1762   1.376   .     S
C1708  O1745   1.383   .     S
C1708  C1786   1.379   .     S
H1710  C1854   1.105   1_455 S
H1711  C1854   1.109   1_455 S
H1713  C1855   1.106   1_455 S
H1717  C1857   1.108   1_455 S
H1718  C1857   1.111   1_455 S
H1721  C1858   1.106   1_455 S
H1722  C1938   1.110   .     S
H1730  O1747   0.989   .     S
H1732  O1748   0.984   .     S
H1733  O1749   0.990   .     S
H1734  O1750   0.983   .     S
N1741  Zn1759  2.033   .     S
N1742  Zn1760  2.033   .     S
O1743  Zn1759  2.016   .     S
O1751  Zn1760  2.016   .     S
O1752  Zn1759  2.013   .     S
O1753  Zn1760  2.013   .     S
O1754  Zn1759  1.953   .     S
O1755  Zn1760  1.953   .     S
O1756  Zn1759  1.951   .     S
O1757  Zn1760  1.951   .     S
C1761  O1823   1.292   .     A
C1761  C1764   1.425   .     S
C1761  O1833   1.293   .     A
C1762  C1764   1.401   .     A
C1762  O1826   1.383   .     S
C1763  C1788   1.413   .     A
C1763  C1772   1.440   .     S
C1763  C1787   1.414   .     A
C1764  C1786   1.402   .     A
C1765  O1827   1.380   .     S
C1765  N1822   1.367   .     A
C1766  N1821   1.377   .     A
C1766  O1828   1.370   .     S
C1766  C2007   1.431   .     S
C1767  N1822   1.365   .     A
C1767  O1829   1.376   .     S
C1768  N1821   1.382   .     A
C1768  O1830   1.374   .     S
C1768  C2005   1.435   .     S
C1769  H1789   1.110   .     S
C1769  H1800   1.117   .     S
C1769  C1770   1.529   .     S
C1769  O1838   1.418   .     S
C1770  H1811   1.108   .     S
C1770  H1815   1.111   .     S
C1771  H1818   1.109   .     S
C1771  H1817   1.108   .     S
C1771  H1816   1.110   .     S
C1771  C330    1.527   1_556 S
C1772  O1832   1.295   .     A
C1772  O1831   1.298   .     A
C1773  H1820   1.115   .     S
C1773  C1774   1.531   .     S
C1773  H1819   1.110   .     S
C1773  O1824   1.421   .     S
C1774  C1775   1.526   .     S
C1774  H1870   1.105   .     S
C1774  H1871   1.109   .     S
C1775  H1792   1.111   .     S
C1775  H1873   1.106   .     S
C1775  H2034   1.110   .     S
C1776  H1795   1.109   .     S
C1776  C1777   1.536   .     S
C1776  H1796   1.111   .     S
C1776  O1825   1.422   .     S
C1777  C1778   1.522   .     S
C1777  H1877   1.108   .     S
C1777  H1878   1.111   .     S
C1778  H1799   1.111   .     S
C1778  H1881   1.106   .     S
C1779  C1780   1.520   .     S
C1779  O1826   1.417   .     S
C1779  H1803   1.111   .     S
C1779  H1804   1.119   .     S
C1780  H1805   1.112   .     S
C1780  H1806   1.109   .     S
C1780  C341    1.519   1_556 S
C1781  H1809   1.109   .     S
C1781  H1808   1.106   .     S
C1781  H1807   1.108   .     S
C1782  C1784   1.369   .     S
C1782  O1834   1.286   .     A
C1782  O1837   1.286   .     A
C1783  O1836   1.285   .     A
C1783  O1835   1.287   .     A
C1783  C1785   1.369   .     S
C1785  C344    1.167   1_556 S
C1786  O1838   1.385   .     S
C1787  O1824   1.385   .     S
C1787  C1842   1.376   .     S
C1788  O1825   1.383   .     S
C1788  C1866   1.379   .     S
H1802  C2018   1.110   .     S
H1810  O1827   0.989   .     S
H1812  O1828   0.984   .     S
H1813  O1829   0.990   .     S
H1814  O1830   0.983   .     S
N1821  Zn1839  2.033   .     S
N1822  Zn1840  2.033   .     S
O1823  Zn1839  2.016   .     S
O1831  Zn1840  2.016   .     S
O1832  Zn1839  2.013   .     S
O1833  Zn1840  2.013   .     S
O1834  Zn1839  1.953   .     S
O1835  Zn1840  1.953   .     S
O1836  Zn1839  1.951   .     S
O1837  Zn1840  1.951   .     S
C1841  O1903   1.292   .     A
C1841  C1844   1.425   .     S
C1841  O1913   1.293   .     A
C1842  C1844   1.401   .     A
C1842  O1906   1.383   .     S
C1843  C1868   1.413   .     A
C1843  C1852   1.440   .     S
C1843  C1867   1.414   .     A
C1844  C1866   1.402   .     A
C1845  O1907   1.380   .     S
C1845  N1902   1.367   .     A
C1846  N1901   1.377   .     A
C1846  O1908   1.370   .     S
C1846  C2087   1.431   .     S
C1847  N1902   1.365   .     A
C1847  O1909   1.376   .     S
C1848  N1901   1.382   .     A
C1848  O1910   1.374   .     S
C1848  C2085   1.435   .     S
C1849  H1869   1.110   .     S
C1849  H1880   1.117   .     S
C1849  C1850   1.529   .     S
C1849  O1918   1.418   .     S
C1850  H1891   1.108   .     S
C1850  H1895   1.111   .     S
C1851  H1898   1.109   .     S
C1851  H1897   1.108   .     S
C1851  H1896   1.110   .     S
C1851  C410    1.527   1_556 S
C1852  O1912   1.295   .     A
C1852  O1911   1.298   .     A
C1853  H1900   1.115   .     S
C1853  C1854   1.531   .     S
C1853  H1899   1.110   .     S
C1853  O1904   1.421   .     S
C1854  C1855   1.526   .     S
C1854  H1710   1.105   1_655 S
C1854  H1711   1.109   1_655 S
C1855  H1872   1.111   .     S
C1855  H1713   1.106   1_655 S
C1855  H2114   1.110   .     S
C1856  H1875   1.109   .     S
C1856  C1857   1.536   .     S
C1856  H1876   1.111   .     S
C1856  O1905   1.422   .     S
C1857  C1858   1.522   .     S
C1857  H1717   1.108   1_655 S
C1857  H1718   1.111   1_655 S
C1858  H1879   1.111   .     S
C1858  H1721   1.106   1_655 S
C1859  C1860   1.520   .     S
C1859  O1906   1.417   .     S
C1859  H1883   1.111   .     S
C1859  H1884   1.119   .     S
C1860  H1885   1.112   .     S
C1860  H1886   1.109   .     S
C1860  C421    1.519   1_556 S
C1861  H1889   1.109   .     S
C1861  H1888   1.106   .     S
C1861  H1887   1.108   .     S
C1862  C1864   1.369   .     S
C1862  O1914   1.286   .     A
C1862  O1917   1.286   .     A
C1863  O1916   1.285   .     A
C1863  O1915   1.287   .     A
C1863  C1865   1.369   .     S
C1865  C424    1.167   1_556 S
C1866  O1918   1.385   .     S
C1867  O1904   1.385   .     S
C1867  C1682   1.376   1_655 S
C1868  O1905   1.383   .     S
C1868  C1706   1.379   1_655 S
H1882  C2098   1.110   .     S
H1890  O1907   0.989   .     S
H1892  O1908   0.984   .     S
H1893  O1909   0.990   .     S
H1894  O1910   0.983   .     S
N1901  Zn1919  2.033   .     S
N1902  Zn1920  2.033   .     S
O1903  Zn1919  2.016   .     S
O1911  Zn1920  2.016   .     S
O1912  Zn1919  2.013   .     S
O1913  Zn1920  2.013   .     S
O1914  Zn1919  1.953   .     S
O1915  Zn1920  1.953   .     S
O1916  Zn1919  1.951   .     S
O1917  Zn1920  1.951   .     S
C1921  O1983   1.292   .     A
C1921  C1924   1.425   .     S
C1921  O1993   1.293   .     A
C1922  C1924   1.401   .     A
C1922  O1986   1.383   .     S
C1922  C2107   1.376   1_455 S
C1923  C1948   1.413   .     A
C1923  C1932   1.440   .     S
C1923  C1947   1.414   .     A
C1924  C1946   1.402   .     A
C1925  O1987   1.380   .     S
C1925  N1982   1.367   .     A
C1926  N1981   1.377   .     A
C1926  O1988   1.370   .     S
C1926  C1447   1.431   1_565 S
C1927  N1982   1.365   .     A
C1927  O1989   1.376   .     S
C1928  N1981   1.382   .     A
C1928  O1990   1.374   .     S
C1928  C1445   1.435   1_565 S
C1929  H1949   1.110   .     S
C1929  H1960   1.117   .     S
C1929  C1930   1.529   .     S
C1929  O1998   1.418   .     S
C1930  H1971   1.108   .     S
C1930  H1975   1.111   .     S
C1931  H1978   1.109   .     S
C1931  H1977   1.108   .     S
C1931  H1976   1.110   .     S
C1931  C490    1.527   1_556 S
C1932  O1992   1.295   .     A
C1932  O1991   1.298   .     A
C1933  H1980   1.115   .     S
C1933  C1934   1.531   .     S
C1933  H1979   1.110   .     S
C1933  O1984   1.421   .     S
C1934  C1935   1.526   .     S
C1934  H2030   1.105   .     S
C1934  H2031   1.109   .     S
C1935  H1952   1.111   .     S
C1935  H2033   1.106   .     S
C1935  H1474   1.110   1_565 S
C1936  H1955   1.109   .     S
C1936  C1937   1.536   .     S
C1936  H1956   1.111   .     S
C1936  O1985   1.422   .     S
C1937  C1938   1.522   .     S
C1937  H2037   1.108   .     S
C1937  H2038   1.111   .     S
C1938  H1959   1.111   .     S
C1938  H2041   1.106   .     S
C1939  C1940   1.520   .     S
C1939  O1986   1.417   .     S
C1939  H1963   1.111   .     S
C1939  H1964   1.119   .     S
C1940  H1965   1.112   .     S
C1940  H1966   1.109   .     S
C1940  C501    1.519   1_556 S
C1941  H1969   1.109   .     S
C1941  H1968   1.106   .     S
C1941  H1967   1.108   .     S
C1942  C1944   1.369   .     S
C1942  O1994   1.286   .     A
C1942  O1997   1.286   .     A
C1943  O1996   1.285   .     A
C1943  O1995   1.287   .     A
C1943  C1945   1.369   .     S
C1945  C504    1.167   1_556 S
C1946  O1998   1.385   .     S
C1946  C2108   1.379   1_455 S
C1947  O1984   1.385   .     S
C1947  C2002   1.376   .     S
C1948  O1985   1.383   .     S
C1948  C2026   1.379   .     S
H1950  C2094   1.105   1_455 S
H1951  C2094   1.109   1_455 S
H1953  C2095   1.106   1_455 S
H1957  C2097   1.108   1_455 S
H1958  C2097   1.111   1_455 S
H1961  C2098   1.106   1_455 S
H1962  C1458   1.110   1_565 S
H1970  O1987   0.989   .     S
H1972  O1988   0.984   .     S
H1973  O1989   0.990   .     S
H1974  O1990   0.983   .     S
N1981  Zn1999  2.033   .     S
N1982  Zn2000  2.033   .     S
O1983  Zn1999  2.016   .     S
O1991  Zn2000  2.016   .     S
O1992  Zn1999  2.013   .     S
O1993  Zn2000  2.013   .     S
O1994  Zn1999  1.953   .     S
O1995  Zn2000  1.953   .     S
O1996  Zn1999  1.951   .     S
O1997  Zn2000  1.951   .     S
C2001  O2063   1.292   .     A
C2001  C2004   1.425   .     S
C2001  O2073   1.293   .     A
C2002  C2004   1.401   .     A
C2002  O2066   1.383   .     S
C2003  C2028   1.413   .     A
C2003  C2012   1.440   .     S
C2003  C2027   1.414   .     A
C2004  C2026   1.402   .     A
C2005  O2067   1.380   .     S
C2005  N2062   1.367   .     A
C2006  N2061   1.377   .     A
C2006  O2068   1.370   .     S
C2006  C1527   1.431   1_565 S
C2007  N2062   1.365   .     A
C2007  O2069   1.376   .     S
C2008  N2061   1.382   .     A
C2008  O2070   1.374   .     S
C2008  C1525   1.435   1_565 S
C2009  H2029   1.110   .     S
C2009  H2040   1.117   .     S
C2009  C2010   1.529   .     S
C2009  O2078   1.418   .     S
C2010  H2051   1.108   .     S
C2010  H2055   1.111   .     S
C2011  H2058   1.109   .     S
C2011  H2057   1.108   .     S
C2011  H2056   1.110   .     S
C2011  C570    1.527   1_556 S
C2012  O2072   1.295   .     A
C2012  O2071   1.298   .     A
C2013  H2060   1.115   .     S
C2013  C2014   1.531   .     S
C2013  H2059   1.110   .     S
C2013  O2064   1.421   .     S
C2014  C2015   1.526   .     S
C2014  H2110   1.105   .     S
C2014  H2111   1.109   .     S
C2015  H2032   1.111   .     S
C2015  H2113   1.106   .     S
C2015  H1554   1.110   1_565 S
C2016  H2035   1.109   .     S
C2016  C2017   1.536   .     S
C2016  H2036   1.111   .     S
C2016  O2065   1.422   .     S
C2017  C2018   1.522   .     S
C2017  H2117   1.108   .     S
C2017  H2118   1.111   .     S
C2018  H2039   1.111   .     S
C2018  H2121   1.106   .     S
C2019  C2020   1.520   .     S
C2019  O2066   1.417   .     S
C2019  H2043   1.111   .     S
C2019  H2044   1.119   .     S
C2020  H2045   1.112   .     S
C2020  H2046   1.109   .     S
C2020  C581    1.519   1_556 S
C2021  H2049   1.109   .     S
C2021  H2048   1.106   .     S
C2021  H2047   1.108   .     S
C2022  C2024   1.369   .     S
C2022  O2074   1.286   .     A
C2022  O2077   1.286   .     A
C2023  O2076   1.285   .     A
C2023  O2075   1.287   .     A
C2023  C2025   1.369   .     S
C2025  C584    1.167   1_556 S
C2026  O2078   1.385   .     S
C2027  O2064   1.385   .     S
C2027  C2082   1.376   .     S
C2028  O2065   1.383   .     S
C2028  C2106   1.379   .     S
H2042  C1538   1.110   1_565 S
H2050  O2067   0.989   .     S
H2052  O2068   0.984   .     S
H2053  O2069   0.990   .     S
H2054  O2070   0.983   .     S
N2061  Zn2079  2.033   .     S
N2062  Zn2080  2.033   .     S
O2063  Zn2079  2.016   .     S
O2071  Zn2080  2.016   .     S
O2072  Zn2079  2.013   .     S
O2073  Zn2080  2.013   .     S
O2074  Zn2079  1.953   .     S
O2075  Zn2080  1.953   .     S
O2076  Zn2079  1.951   .     S
O2077  Zn2080  1.951   .     S
C2081  O2143   1.292   .     A
C2081  C2084   1.425   .     S
C2081  O2153   1.293   .     A
C2082  C2084   1.401   .     A
C2082  O2146   1.383   .     S
C2083  C2108   1.413   .     A
C2083  C2092   1.440   .     S
C2083  C2107   1.414   .     A
C2084  C2106   1.402   .     A
C2085  O2147   1.380   .     S
C2085  N2142   1.367   .     A
C2086  N2141   1.377   .     A
C2086  O2148   1.370   .     S
C2086  C1607   1.431   1_565 S
C2087  N2142   1.365   .     A
C2087  O2149   1.376   .     S
C2088  N2141   1.382   .     A
C2088  O2150   1.374   .     S
C2088  C1605   1.435   1_565 S
C2089  H2109   1.110   .     S
C2089  H2120   1.117   .     S
C2089  C2090   1.529   .     S
C2089  O2158   1.418   .     S
C2090  H2131   1.108   .     S
C2090  H2135   1.111   .     S
C2091  H2138   1.109   .     S
C2091  H2137   1.108   .     S
C2091  H2136   1.110   .     S
C2091  C650    1.527   1_556 S
C2092  O2152   1.295   .     A
C2092  O2151   1.298   .     A
C2093  H2140   1.115   .     S
C2093  C2094   1.531   .     S
C2093  H2139   1.110   .     S
C2093  O2144   1.421   .     S
C2094  C2095   1.526   .     S
C2094  H1950   1.105   1_655 S
C2094  H1951   1.109   1_655 S
C2095  H2112   1.111   .     S
C2095  H1953   1.106   1_655 S
C2095  H1634   1.110   1_565 S
C2096  H2115   1.109   .     S
C2096  C2097   1.536   .     S
C2096  H2116   1.111   .     S
C2096  O2145   1.422   .     S
C2097  C2098   1.522   .     S
C2097  H1957   1.108   1_655 S
C2097  H1958   1.111   1_655 S
C2098  H2119   1.111   .     S
C2098  H1961   1.106   1_655 S
C2099  C2100   1.520   .     S
C2099  O2146   1.417   .     S
C2099  H2123   1.111   .     S
C2099  H2124   1.119   .     S
C2100  H2125   1.112   .     S
C2100  H2126   1.109   .     S
C2100  C661    1.519   1_556 S
C2101  H2129   1.109   .     S
C2101  H2128   1.106   .     S
C2101  H2127   1.108   .     S
C2102  C2104   1.369   .     S
C2102  O2154   1.286   .     A
C2102  O2157   1.286   .     A
C2103  O2156   1.285   .     A
C2103  O2155   1.287   .     A
C2103  C2105   1.369   .     S
C2105  C664    1.167   1_556 S
C2106  O2158   1.385   .     S
C2107  O2144   1.385   .     S
C2107  C1922   1.376   1_655 S
C2108  O2145   1.383   .     S
C2108  C1946   1.379   1_655 S
H2122  C1618   1.110   1_565 S
H2130  O2147   0.989   .     S
H2132  O2148   0.984   .     S
H2133  O2149   0.990   .     S
H2134  O2150   0.983   .     S
N2141  Zn2159  2.033   .     S
N2142  Zn2160  2.033   .     S
O2143  Zn2159  2.016   .     S
O2151  Zn2160  2.016   .     S
O2152  Zn2159  2.013   .     S
O2153  Zn2160  2.013   .     S
O2154  Zn2159  1.953   .     S
O2155  Zn2160  1.953   .     S
O2156  Zn2159  1.951   .     S
O2157  Zn2160  1.951   .     S
