data_str_m1_o1_o5_pcu_sym.11
_audit_creation_date              2020-01-03
_audit_creation_method            'Materials Studio'
_symmetry_space_group_name_H-M    'P1'
_symmetry_Int_Tables_number       1
_symmetry_cell_setting            triclinic
loop_
_symmetry_equiv_pos_as_xyz
  x,y,z
_cell_length_a                    36.6277
_cell_length_b                    36.6277
_cell_length_c                    22.4051
_cell_angle_alpha                 90.0002
_cell_angle_beta                  90.0000
_cell_angle_gamma                 90.0004
loop_
_atom_site_label
_atom_site_type_symbol
_atom_site_fract_x
_atom_site_fract_y
_atom_site_fract_z
_atom_site_U_iso_or_equiv
_atom_site_adp_type
_atom_site_occupancy
C1     C    -0.00000   0.25000   0.02667   0.00000  Uiso   1.00
C2     C     0.00000   0.25000   0.58991   0.00000  Uiso   1.00
C3     C     0.41192   0.35247   0.39861   0.00000  Uiso   1.00
C4     C     0.15552   0.41612   0.60506   0.00000  Uiso   1.00
C5     C     0.35240   0.08815   0.39863   0.00000  Uiso   1.00
C6     C     0.41615   0.34452   0.60506   0.00000  Uiso   1.00
C7     C     0.08815   0.14760   0.39863   0.00000  Uiso   1.00
C8     C     0.29852   0.36739   0.35525   0.00000  Uiso   1.00
C9     C     0.15033   0.08881   0.59981   0.00000  Uiso   1.00
C10    C     0.13267   0.29846   0.35513   0.00000  Uiso   1.00
C11    C     0.41114   0.15038   0.59980   0.00000  Uiso   1.00
C12    C     0.20153   0.13266   0.35515   0.00000  Uiso   1.00
C13    C     0.25000  -0.00000   0.41010   0.00000  Uiso   1.00
C14    C     0.34966   0.41119   0.59981   0.00000  Uiso   1.00
C15    C     0.36734   0.20153   0.35515   0.00000  Uiso   1.00
C16    C     0.08883   0.34964   0.59981   0.00000  Uiso   1.00
C17    C     0.25000   0.00000   0.58991   0.00000  Uiso   1.00
C18    C     0.25000   0.00000   0.91010   0.00000  Uiso   1.00
C19    C     0.25000  -0.00000   0.08991   0.00000  Uiso   1.00
C20    C     0.00000   0.25000   0.91010   0.00000  Uiso   1.00
C21    C    -0.00000   0.25000   0.08991   0.00000  Uiso   1.00
C22    C     0.07002   0.18001   0.25012   0.00000  Uiso   1.00
C23    C     0.43000   0.32004   0.74991   0.00000  Uiso   1.00
C24    C     0.18001   0.42998   0.25012   0.00000  Uiso   1.00
C25    C     0.00000   0.25000   0.97333   0.00000  Uiso   1.00
C26    C     0.32004   0.07000   0.74991   0.00000  Uiso   1.00
C27    C     0.42998   0.31999   0.25012   0.00000  Uiso   1.00
C28    C     0.07000   0.17996   0.74991   0.00000  Uiso   1.00
C29    C     0.31999   0.07002   0.25012   0.00000  Uiso   1.00
C30    C     0.17996   0.43000   0.74991   0.00000  Uiso   1.00
C31    C     0.06999   0.32002   0.75012   0.00000  Uiso   1.00
C32    C     0.42996   0.18000   0.24991   0.00000  Uiso   1.00
C33    C     0.17998   0.06999   0.75012   0.00000  Uiso   1.00
C34    C     0.32000   0.42996   0.24991   0.00000  Uiso   1.00
C35    C     0.43001   0.17998   0.75012   0.00000  Uiso   1.00
C36    C     0.25000  -0.00000   0.02667   0.00000  Uiso   1.00
C37    C     0.07004   0.32000   0.24991   0.00000  Uiso   1.00
C38    C     0.32002   0.43001   0.75012   0.00000  Uiso   1.00
C39    C     0.18000   0.07004   0.24991   0.00000  Uiso   1.00
C40    C     0.10512   0.36781   0.19730   0.00000  Uiso   1.00
C41    C     0.39515   0.13209   0.80248   0.00000  Uiso   1.00
C42    C     0.36777   0.39484   0.19728   0.00000  Uiso   1.00
C43    C     0.13211   0.10487   0.80249   0.00000  Uiso   1.00
C44    C     0.39487   0.13220   0.19729   0.00000  Uiso   1.00
C45    C     0.10486   0.36790   0.80249   0.00000  Uiso   1.00
C46    C     0.13220   0.10513   0.19729   0.00000  Uiso   1.00
C47    C     0.25000   0.00000   0.97333   0.00000  Uiso   1.00
C48    C     0.36789   0.39513   0.80249   0.00000  Uiso   1.00
C49    C     0.10428   0.13112   0.80219   0.00000  Uiso   1.00
C50    C     0.39506   0.36798   0.19732   0.00000  Uiso   1.00
C51    C     0.36889   0.10426   0.80218   0.00000  Uiso   1.00
C52    C     0.13199   0.39509   0.19734   0.00000  Uiso   1.00
C53    C     0.39572   0.36888   0.80219   0.00000  Uiso   1.00
C54    C     0.10492   0.13200   0.19733   0.00000  Uiso   1.00
C55    C     0.13111   0.39573   0.80218   0.00000  Uiso   1.00
C56    C     0.36800   0.10492   0.19734   0.00000  Uiso   1.00
C57    C     0.35513   0.11780   0.69729   0.00000  Uiso   1.00
C58    C     0.25000  -0.00000   0.52667   0.00000  Uiso   1.00
C59    C     0.14516   0.38208   0.30248   0.00000  Uiso   1.00
C60    C     0.11778   0.14485   0.69728   0.00000  Uiso   1.00
C61    C     0.38212   0.35488   0.30250   0.00000  Uiso   1.00
C62    C     0.14486   0.38221   0.69729   0.00000  Uiso   1.00
C63    C     0.35485   0.11791   0.30248   0.00000  Uiso   1.00
C64    C     0.38222   0.35515   0.69728   0.00000  Uiso   1.00
C65    C     0.11791   0.14515   0.30248   0.00000  Uiso   1.00
C66    C     0.35429   0.38113   0.30219   0.00000  Uiso   1.00
C67    C     0.14506   0.11798   0.69732   0.00000  Uiso   1.00
C68    C     0.11890   0.35425   0.30217   0.00000  Uiso   1.00
C69    C     0.25000  -0.00000   0.47333   0.00000  Uiso   1.00
C70    C     0.38200   0.14508   0.69733   0.00000  Uiso   1.00
C71    C     0.14574   0.11890   0.30217   0.00000  Uiso   1.00
C72    C     0.35494   0.38202   0.69732   0.00000  Uiso   1.00
C73    C     0.38110   0.14574   0.30217   0.00000  Uiso   1.00
C74    C     0.11799   0.35493   0.69733   0.00000  Uiso   1.00
C75    C     0.15176   0.40214   0.25004   0.00000  Uiso   1.00
C76    C     0.34842   0.09776   0.74988   0.00000  Uiso   1.00
C77    C     0.40214   0.34824   0.25003   0.00000  Uiso   1.00
C78    C     0.09776   0.15158   0.74988   0.00000  Uiso   1.00
C79    C     0.34824   0.09786   0.25004   0.00000  Uiso   1.00
C80    C    -0.00000   0.25000   0.52667   0.00000  Uiso   1.00
C81    C     0.15158   0.40224   0.74988   0.00000  Uiso   1.00
C82    C     0.09786   0.15176   0.25003   0.00000  Uiso   1.00
C83    C     0.40224   0.34842   0.74988   0.00000  Uiso   1.00
C84    C     0.15214   0.09824   0.75003   0.00000  Uiso   1.00
C85    C     0.34776   0.40158   0.24988   0.00000  Uiso   1.00
C86    C     0.40176   0.15214   0.75003   0.00000  Uiso   1.00
C87    C     0.09842   0.34776   0.24988   0.00000  Uiso   1.00
C88    C     0.34786   0.40176   0.75003   0.00000  Uiso   1.00
C89    C     0.15224   0.09842   0.24988   0.00000  Uiso   1.00
C90    C     0.09824   0.34786   0.75003   0.00000  Uiso   1.00
C91    C    -0.00000   0.25000   0.47333   0.00000  Uiso   1.00
C92    C     0.40158   0.15224   0.24988   0.00000  Uiso   1.00
C93    C     0.09442   0.33392   0.10505   0.00000  Uiso   1.00
C94    C     0.39759   0.16186   0.89862   0.00000  Uiso   1.00
C95    C     0.33384   0.40547   0.10506   0.00000  Uiso   1.00
C96    C     0.16191   0.10246   0.89861   0.00000  Uiso   1.00
C97    C     0.40556   0.16610   0.10506   0.00000  Uiso   1.00
C98    C     0.10243   0.33812   0.89862   0.00000  Uiso   1.00
C99    C     0.16610   0.09445   0.10506   0.00000  Uiso   1.00
C100   C     0.33810   0.39756   0.89862   0.00000  Uiso   1.00
C101   C     0.04851   0.11738   0.85524   0.00000  Uiso   1.00
C102   C     0.00000   0.25000   0.41010   0.00000  Uiso   1.00
C103   C     0.40032   0.33879   0.09981   0.00000  Uiso   1.00
C104   C     0.38265   0.04848   0.85516   0.00000  Uiso   1.00
C105   C     0.16112   0.40041   0.09980   0.00000  Uiso   1.00
C106   C     0.45149   0.38261   0.85524   0.00000  Uiso   1.00
C107   C     0.09961   0.16113   0.09980   0.00000  Uiso   1.00
C108   C     0.11736   0.45151   0.85519   0.00000  Uiso   1.00
C109   C     0.33887   0.09961   0.09980   0.00000  Uiso   1.00
C110   C     0.34446   0.08389   0.60506   0.00000  Uiso   1.00
C111   C     0.14762   0.41184   0.39863   0.00000  Uiso   1.00
C112   C     0.08385   0.15549   0.60506   0.00000  Uiso   1.00
H113   H     0.07448   0.38595   0.12462   0.00000  Uiso   1.00
H114   H     0.31637   0.42925   0.09382   0.00000  Uiso   1.00
H115   H     0.27992   0.37881   0.32081   0.00000  Uiso   1.00
H116   H     0.19389   0.10776   0.65166   0.00000  Uiso   1.00
H117   H     0.16487   0.06220   0.59849   0.00000  Uiso   1.00
H118   H     0.15305   0.10209   0.55553   0.00000  Uiso   1.00
H119   H     0.12090   0.08353   0.60846   0.00000  Uiso   1.00
H120   H     0.08678   0.33079   0.36831   0.00000  Uiso   1.00
H121   H     0.12955   0.28537   0.39953   0.00000  Uiso   1.00
H122   H     0.16225   0.30264   0.34654   0.00000  Uiso   1.00
H123   H     0.12124   0.27988   0.32067   0.00000  Uiso   1.00
H124   H     0.39221   0.19392   0.65171   0.00000  Uiso   1.00
H125   H     0.31635   0.38376   0.12477   0.00000  Uiso   1.00
H126   H     0.43775   0.16491   0.59848   0.00000  Uiso   1.00
H127   H     0.39785   0.15312   0.55553   0.00000  Uiso   1.00
H128   H     0.41642   0.12094   0.60842   0.00000  Uiso   1.00
H129   H     0.16919   0.08677   0.36832   0.00000  Uiso   1.00
H130   H     0.21461   0.12953   0.39956   0.00000  Uiso   1.00
H131   H     0.19735   0.16224   0.34657   0.00000  Uiso   1.00
H132   H     0.22011   0.12123   0.32070   0.00000  Uiso   1.00
H133   H     0.30611   0.39223   0.65166   0.00000  Uiso   1.00
H134   H     0.33511   0.43779   0.59848   0.00000  Uiso   1.00
H135   H     0.34696   0.39790   0.55553   0.00000  Uiso   1.00
H136   H     0.34608   0.39490   0.06312   0.00000  Uiso   1.00
H137   H     0.37909   0.41649   0.60848   0.00000  Uiso   1.00
H138   H     0.41323   0.16920   0.36832   0.00000  Uiso   1.00
H139   H     0.37047   0.21461   0.39956   0.00000  Uiso   1.00
H140   H     0.33776   0.19735   0.34657   0.00000  Uiso   1.00
H141   H     0.37876   0.22011   0.32069   0.00000  Uiso   1.00
H142   H     0.10778   0.30609   0.65169   0.00000  Uiso   1.00
H143   H     0.06223   0.33510   0.59849   0.00000  Uiso   1.00
H144   H     0.10212   0.34691   0.55553   0.00000  Uiso   1.00
H145   H     0.08356   0.37908   0.60844   0.00000  Uiso   1.00
H146   H     0.11632   0.07272   0.87387   0.00000  Uiso   1.00
H147   H     0.16894   0.08314   0.93505   0.00000  Uiso   1.00
H148   H     0.14707   0.12607   0.91814   0.00000  Uiso   1.00
H149   H     0.18767   0.11222   0.87792   0.00000  Uiso   1.00
H150   H     0.42551   0.11406   0.12460   0.00000  Uiso   1.00
H151   H     0.42934   0.18356   0.09384   0.00000  Uiso   1.00
H152   H     0.38383   0.18359   0.12472   0.00000  Uiso   1.00
H153   H     0.07064   0.31646   0.09384   0.00000  Uiso   1.00
H154   H     0.39501   0.15385   0.06311   0.00000  Uiso   1.00
H155   H     0.07270   0.38370   0.87384   0.00000  Uiso   1.00
H156   H     0.08311   0.33109   0.93504   0.00000  Uiso   1.00
H157   H     0.12603   0.35296   0.91816   0.00000  Uiso   1.00
H158   H     0.11219   0.31235   0.87794   0.00000  Uiso   1.00
H159   H     0.11406   0.07450   0.12460   0.00000  Uiso   1.00
H160   H     0.18356   0.07067   0.09383   0.00000  Uiso   1.00
H161   H     0.18359   0.11617   0.12472   0.00000  Uiso   1.00
H162   H     0.15385   0.10500   0.06311   0.00000  Uiso   1.00
H163   H     0.38369   0.42729   0.87385   0.00000  Uiso   1.00
H164   H     0.11615   0.31642   0.12471   0.00000  Uiso   1.00
H165   H     0.33108   0.41688   0.93505   0.00000  Uiso   1.00
H166   H     0.35294   0.37395   0.91816   0.00000  Uiso   1.00
H167   H     0.31234   0.38780   0.87794   0.00000  Uiso   1.00
H168   H     0.08086   0.16327   0.86834   0.00000  Uiso   1.00
H169   H     0.03545   0.12053   0.89966   0.00000  Uiso   1.00
H170   H     0.05268   0.08780   0.84667   0.00000  Uiso   1.00
H171   H     0.02992   0.12880   0.82079   0.00000  Uiso   1.00
H172   H     0.44388   0.35776   0.15165   0.00000  Uiso   1.00
H173   H     0.41486   0.31219   0.09850   0.00000  Uiso   1.00
H174   H     0.40303   0.35208   0.05552   0.00000  Uiso   1.00
H175   H     0.10497   0.34617   0.06311   0.00000  Uiso   1.00
H176   H     0.37089   0.33351   0.10848   0.00000  Uiso   1.00
H177   H     0.33676   0.08081   0.86832   0.00000  Uiso   1.00
H178   H     0.37952   0.03540   0.89958   0.00000  Uiso   1.00
H179   H     0.41223   0.05265   0.84659   0.00000  Uiso   1.00
H180   H     0.37123   0.02989   0.82071   0.00000  Uiso   1.00
H181   H     0.14219   0.44394   0.15173   0.00000  Uiso   1.00
H182   H     0.18772   0.41494   0.09848   0.00000  Uiso   1.00
H183   H     0.14781   0.40316   0.05553   0.00000  Uiso   1.00
H184   H     0.16639   0.37097   0.10839   0.00000  Uiso   1.00
H185   H     0.41913   0.33672   0.86834   0.00000  Uiso   1.00
H186   H     0.42732   0.11628   0.87381   0.00000  Uiso   1.00
H187   H     0.46455   0.37946   0.89967   0.00000  Uiso   1.00
H188   H     0.44732   0.41219   0.84668   0.00000  Uiso   1.00
H189   H     0.47008   0.37118   0.82080   0.00000  Uiso   1.00
H190   H     0.05607   0.14220   0.15171   0.00000  Uiso   1.00
H191   H     0.08508   0.18774   0.09848   0.00000  Uiso   1.00
H192   H     0.09687   0.14784   0.05553   0.00000  Uiso   1.00
H193   H     0.12905   0.16641   0.10841   0.00000  Uiso   1.00
H194   H     0.16325   0.41917   0.86833   0.00000  Uiso   1.00
H195   H     0.12050   0.46458   0.89961   0.00000  Uiso   1.00
H196   H     0.08778   0.44733   0.84662   0.00000  Uiso   1.00
H197   H     0.41692   0.16888   0.93504   0.00000  Uiso   1.00
H198   H     0.12878   0.47010   0.82074   0.00000  Uiso   1.00
H199   H     0.35780   0.05607   0.15172   0.00000  Uiso   1.00
H200   H     0.31226   0.08508   0.09848   0.00000  Uiso   1.00
H201   H     0.35217   0.09686   0.05553   0.00000  Uiso   1.00
H202   H     0.33359   0.12905   0.10841   0.00000  Uiso   1.00
H203   H     0.32450   0.13593   0.62459   0.00000  Uiso   1.00
H204   H     0.32068   0.06643   0.59383   0.00000  Uiso   1.00
H205   H     0.36618   0.06640   0.62473   0.00000  Uiso   1.00
H206   H     0.35501   0.09614   0.56311   0.00000  Uiso   1.00
H207   H     0.17734   0.36626   0.37379   0.00000  Uiso   1.00
H208   H     0.37399   0.14702   0.91816   0.00000  Uiso   1.00
H209   H     0.16696   0.41885   0.43504   0.00000  Uiso   1.00
H210   H     0.12402   0.39699   0.41817   0.00000  Uiso   1.00
H211   H     0.13786   0.43761   0.37798   0.00000  Uiso   1.00
H212   H     0.13589   0.17546   0.62454   0.00000  Uiso   1.00
H213   H     0.06639   0.17926   0.59382   0.00000  Uiso   1.00
H214   H     0.06636   0.13378   0.62476   0.00000  Uiso   1.00
H215   H     0.09609   0.14492   0.56312   0.00000  Uiso   1.00
H216   H     0.36633   0.32273   0.37388   0.00000  Uiso   1.00
H217   H     0.41896   0.33316   0.43504   0.00000  Uiso   1.00
H218   H     0.39708   0.37608   0.41814   0.00000  Uiso   1.00
H219   H     0.38783   0.18763   0.87796   0.00000  Uiso   1.00
H220   H     0.43768   0.36224   0.37791   0.00000  Uiso   1.00
H221   H     0.17548   0.36409   0.62457   0.00000  Uiso   1.00
H222   H     0.17930   0.43359   0.59383   0.00000  Uiso   1.00
H223   H     0.13380   0.43361   0.62474   0.00000  Uiso   1.00
H224   H     0.14496   0.40388   0.56311   0.00000  Uiso   1.00
H225   H     0.32267   0.13373   0.37380   0.00000  Uiso   1.00
H226   H     0.33307   0.08113   0.43504   0.00000  Uiso   1.00
H227   H     0.37600   0.10299   0.41817   0.00000  Uiso   1.00
H228   H     0.36216   0.06238   0.37796   0.00000  Uiso   1.00
H229   H     0.36412   0.32454   0.62454   0.00000  Uiso   1.00
H230   H     0.38587   0.42545   0.12453   0.00000  Uiso   1.00
H231   H     0.43362   0.32075   0.59382   0.00000  Uiso   1.00
H232   H     0.43363   0.36623   0.62476   0.00000  Uiso   1.00
H233   H     0.40391   0.35508   0.56312   0.00000  Uiso   1.00
H234   H     0.13373   0.17732   0.37381   0.00000  Uiso   1.00
H235   H     0.08113   0.16693   0.43505   0.00000  Uiso   1.00
H236   H     0.10299   0.12400   0.41816   0.00000  Uiso   1.00
H237   H     0.06237   0.13784   0.37797   0.00000  Uiso   1.00
H238   H     0.33087   0.41328   0.36834   0.00000  Uiso   1.00
H239   H     0.28546   0.37054   0.39968   0.00000  Uiso   1.00
H240   H     0.30269   0.33781   0.34670   0.00000  Uiso   1.00
N241   N     0.08283   0.36239   0.14581   0.00000  Uiso   1.00
N242   N     0.41638   0.36218   0.14488   0.00000  Uiso   1.00
N243   N     0.36354   0.08304   0.85479   0.00000  Uiso   1.00
N244   N     0.13776   0.41645   0.14493   0.00000  Uiso   1.00
N245   N     0.41692   0.36351   0.85482   0.00000  Uiso   1.00
N246   N     0.08357   0.13777   0.14492   0.00000  Uiso   1.00
N247   N     0.13647   0.41695   0.85480   0.00000  Uiso   1.00
N248   N     0.36223   0.08357   0.14492   0.00000  Uiso   1.00
N249   N     0.33285   0.11237   0.64580   0.00000  Uiso   1.00
N250   N     0.16600   0.38929   0.35492   0.00000  Uiso   1.00
N251   N     0.11233   0.16711   0.64577   0.00000  Uiso   1.00
N252   N     0.41598   0.13931   0.85493   0.00000  Uiso   1.00
N253   N     0.38935   0.33407   0.35496   0.00000  Uiso   1.00
N254   N     0.16713   0.38765   0.64579   0.00000  Uiso   1.00
N255   N     0.33402   0.11070   0.35493   0.00000  Uiso   1.00
N256   N     0.38767   0.33289   0.64577   0.00000  Uiso   1.00
N257   N     0.11070   0.16598   0.35493   0.00000  Uiso   1.00
N258   N     0.33308   0.38650   0.35482   0.00000  Uiso   1.00
N259   N     0.16639   0.11219   0.64489   0.00000  Uiso   1.00
N260   N     0.11356   0.33302   0.35477   0.00000  Uiso   1.00
N261   N     0.38778   0.16643   0.64491   0.00000  Uiso   1.00
N262   N     0.16697   0.11355   0.35478   0.00000  Uiso   1.00
N263   N     0.36232   0.41710   0.14577   0.00000  Uiso   1.00
N264   N     0.33361   0.38781   0.64489   0.00000  Uiso   1.00
N265   N     0.38645   0.16697   0.35478   0.00000  Uiso   1.00
N266   N     0.11221   0.33359   0.64490   0.00000  Uiso   1.00
N267   N     0.13934   0.08406   0.85496   0.00000  Uiso   1.00
N268   N     0.41715   0.13762   0.14581   0.00000  Uiso   1.00
N269   N     0.08404   0.36068   0.85494   0.00000  Uiso   1.00
N270   N     0.13763   0.08285   0.14580   0.00000  Uiso   1.00
N271   N     0.36067   0.41595   0.85495   0.00000  Uiso   1.00
N272   N     0.08307   0.13649   0.85481   0.00000  Uiso   1.00
O273   O    -0.00000   0.25000   0.25000   0.00000  Uiso   1.00
O274   O    -0.00000   0.28035   0.61781   0.00000  Uiso   1.00
O275   O     0.21964   0.00000   0.38219   0.00000  Uiso   1.00
O276   O     0.28035   0.00000   0.61781   0.00000  Uiso   1.00
O277   O     0.25000   0.03036   0.88219   0.00000  Uiso   1.00
O278   O     0.25000   0.46964   0.11781   0.00000  Uiso   1.00
O279   O     0.03035   0.25000   0.88219   0.00000  Uiso   1.00
O280   O     0.46964   0.25000   0.11781   0.00000  Uiso   1.00
O281   O     0.25000   0.46964   0.88219   0.00000  Uiso   1.00
O282   O     0.25000   0.03036   0.11781   0.00000  Uiso   1.00
O283   O     0.46964   0.25000   0.88219   0.00000  Uiso   1.00
O284   O     0.00000   0.25000   0.75000   0.00000  Uiso   1.00
O285   O     0.03035   0.25000   0.11781   0.00000  Uiso   1.00
O286   O     0.04267   0.17692   0.28474   0.00000  Uiso   1.00
O287   O     0.45732   0.32307   0.71526   0.00000  Uiso   1.00
O288   O     0.17692   0.45732   0.28474   0.00000  Uiso   1.00
O289   O     0.32307   0.04268   0.71526   0.00000  Uiso   1.00
O290   O     0.45732   0.32307   0.28474   0.00000  Uiso   1.00
O291   O     0.04267   0.17692   0.71526   0.00000  Uiso   1.00
O292   O     0.32307   0.04268   0.28474   0.00000  Uiso   1.00
O293   O     0.17692   0.45732   0.71526   0.00000  Uiso   1.00
O294   O     0.04267   0.32307   0.71526   0.00000  Uiso   1.00
O295   O     0.25000   0.00000   0.25000   0.00000  Uiso   1.00
O296   O     0.45732   0.17692   0.28474   0.00000  Uiso   1.00
O297   O     0.17692   0.04268   0.71526   0.00000  Uiso   1.00
O298   O     0.32307   0.45732   0.28474   0.00000  Uiso   1.00
O299   O     0.45732   0.17692   0.71526   0.00000  Uiso   1.00
O300   O     0.04267   0.32307   0.28474   0.00000  Uiso   1.00
O301   O     0.32307   0.45732   0.71526   0.00000  Uiso   1.00
O302   O     0.17692   0.04268   0.28474   0.00000  Uiso   1.00
O303   O     0.29267   0.42692   0.78474   0.00000  Uiso   1.00
O304   O     0.20732   0.07308   0.21526   0.00000  Uiso   1.00
O305   O     0.42692   0.20732   0.78474   0.00000  Uiso   1.00
O306   O     0.25000   0.00000   0.75000   0.00000  Uiso   1.00
O307   O     0.07307   0.29267   0.21526   0.00000  Uiso   1.00
O308   O     0.20732   0.07308   0.78474   0.00000  Uiso   1.00
O309   O     0.29267   0.42692   0.21526   0.00000  Uiso   1.00
O310   O     0.07307   0.29267   0.78474   0.00000  Uiso   1.00
O311   O     0.42692   0.20732   0.21526   0.00000  Uiso   1.00
O312   O     0.29267   0.07308   0.21526   0.00000  Uiso   1.00
O313   O     0.20732   0.42692   0.78474   0.00000  Uiso   1.00
O314   O     0.42692   0.29267   0.21526   0.00000  Uiso   1.00
O315   O     0.07307   0.20732   0.78474   0.00000  Uiso   1.00
O316   O     0.20732   0.42692   0.21526   0.00000  Uiso   1.00
O317   O    -0.00000   0.28035   0.38219   0.00000  Uiso   1.00
O318   O     0.29267   0.07308   0.78474   0.00000  Uiso   1.00
O319   O     0.07307   0.20732   0.21526   0.00000  Uiso   1.00
O320   O     0.42692   0.29267   0.78474   0.00000  Uiso   1.00
O321   O     0.00000   0.21964   0.61781   0.00000  Uiso   1.00
O322   O     0.28035   0.00000   0.38219   0.00000  Uiso   1.00
O323   O     0.21964   0.00000   0.61781   0.00000  Uiso   1.00
O324   O    -0.00000   0.21964   0.38219   0.00000  Uiso   1.00
Zn325  Zn    0.04333   0.25000   0.20067   0.00000  Uiso   1.00
Zn326  Zn    0.20667   0.00000   0.29933   0.00000  Uiso   1.00
Zn327  Zn   -0.00000   0.20667   0.70067   0.00000  Uiso   1.00
Zn328  Zn   -0.00000   0.29333   0.29933   0.00000  Uiso   1.00
Zn329  Zn    0.20667   0.00000   0.70067   0.00000  Uiso   1.00
Zn330  Zn    0.29333   0.00000   0.29933   0.00000  Uiso   1.00
Zn331  Zn    0.00000   0.29333   0.70067   0.00000  Uiso   1.00
Zn332  Zn   -0.00000   0.20667   0.29933   0.00000  Uiso   1.00
Zn333  Zn    0.45667   0.25000   0.79933   0.00000  Uiso   1.00
Zn334  Zn    0.25000   0.45667   0.20067   0.00000  Uiso   1.00
Zn335  Zn    0.25000   0.04333   0.79933   0.00000  Uiso   1.00
Zn336  Zn    0.45667   0.25000   0.20067   0.00000  Uiso   1.00
Zn337  Zn    0.04333   0.25000   0.79933   0.00000  Uiso   1.00
Zn338  Zn    0.25000   0.04333   0.20067   0.00000  Uiso   1.00
Zn339  Zn    0.25000   0.45667   0.79933   0.00000  Uiso   1.00
Zn340  Zn    0.29333   0.00000   0.70067   0.00000  Uiso   1.00
C341   C     0.50000   0.25000   0.02667   0.00000  Uiso   1.00
C342   C     0.50000   0.25000   0.58991   0.00000  Uiso   1.00
C343   C     0.91192   0.35247   0.39861   0.00000  Uiso   1.00
C344   C     0.65552   0.41612   0.60506   0.00000  Uiso   1.00
C345   C     0.85240   0.08815   0.39863   0.00000  Uiso   1.00
C346   C     0.91615   0.34452   0.60506   0.00000  Uiso   1.00
C347   C     0.58815   0.14760   0.39863   0.00000  Uiso   1.00
C348   C     0.79852   0.36739   0.35525   0.00000  Uiso   1.00
C349   C     0.65033   0.08881   0.59981   0.00000  Uiso   1.00
C350   C     0.63267   0.29846   0.35513   0.00000  Uiso   1.00
C351   C     0.91114   0.15038   0.59980   0.00000  Uiso   1.00
C352   C     0.70153   0.13266   0.35515   0.00000  Uiso   1.00
C353   C     0.75000  -0.00000   0.41010   0.00000  Uiso   1.00
C354   C     0.84966   0.41119   0.59981   0.00000  Uiso   1.00
C355   C     0.86734   0.20153   0.35515   0.00000  Uiso   1.00
C356   C     0.58883   0.34964   0.59981   0.00000  Uiso   1.00
C357   C     0.75000   0.00000   0.58991   0.00000  Uiso   1.00
C358   C     0.75000   0.00000   0.91010   0.00000  Uiso   1.00
C359   C     0.75000  -0.00000   0.08991   0.00000  Uiso   1.00
C360   C     0.50000   0.25000   0.91010   0.00000  Uiso   1.00
C361   C     0.50000   0.25000   0.08991   0.00000  Uiso   1.00
C362   C     0.57002   0.18001   0.25012   0.00000  Uiso   1.00
C363   C     0.93000   0.32004   0.74991   0.00000  Uiso   1.00
C364   C     0.68001   0.42998   0.25012   0.00000  Uiso   1.00
C365   C     0.50000   0.25000   0.97333   0.00000  Uiso   1.00
C366   C     0.82004   0.07000   0.74991   0.00000  Uiso   1.00
C367   C     0.92998   0.31999   0.25012   0.00000  Uiso   1.00
C368   C     0.57000   0.17996   0.74991   0.00000  Uiso   1.00
C369   C     0.81999   0.07002   0.25012   0.00000  Uiso   1.00
C370   C     0.67996   0.43000   0.74991   0.00000  Uiso   1.00
C371   C     0.56999   0.32002   0.75012   0.00000  Uiso   1.00
C372   C     0.92996   0.18000   0.24991   0.00000  Uiso   1.00
C373   C     0.67998   0.06999   0.75012   0.00000  Uiso   1.00
C374   C     0.82000   0.42996   0.24991   0.00000  Uiso   1.00
C375   C     0.93001   0.17998   0.75012   0.00000  Uiso   1.00
C376   C     0.75000  -0.00000   0.02667   0.00000  Uiso   1.00
C377   C     0.57004   0.32000   0.24991   0.00000  Uiso   1.00
C378   C     0.82002   0.43001   0.75012   0.00000  Uiso   1.00
C379   C     0.68000   0.07004   0.24991   0.00000  Uiso   1.00
C380   C     0.60512   0.36781   0.19730   0.00000  Uiso   1.00
C381   C     0.89515   0.13209   0.80248   0.00000  Uiso   1.00
C382   C     0.86777   0.39484   0.19728   0.00000  Uiso   1.00
C383   C     0.63211   0.10487   0.80249   0.00000  Uiso   1.00
C384   C     0.89487   0.13220   0.19729   0.00000  Uiso   1.00
C385   C     0.60486   0.36790   0.80249   0.00000  Uiso   1.00
C386   C     0.63220   0.10513   0.19729   0.00000  Uiso   1.00
C387   C     0.75000   0.00000   0.97333   0.00000  Uiso   1.00
C388   C     0.86789   0.39513   0.80249   0.00000  Uiso   1.00
C389   C     0.60428   0.13112   0.80219   0.00000  Uiso   1.00
C390   C     0.89506   0.36798   0.19732   0.00000  Uiso   1.00
C391   C     0.86889   0.10426   0.80218   0.00000  Uiso   1.00
C392   C     0.63199   0.39509   0.19734   0.00000  Uiso   1.00
C393   C     0.89572   0.36888   0.80219   0.00000  Uiso   1.00
C394   C     0.60492   0.13200   0.19733   0.00000  Uiso   1.00
C395   C     0.63111   0.39573   0.80218   0.00000  Uiso   1.00
C396   C     0.86800   0.10492   0.19734   0.00000  Uiso   1.00
C397   C     0.85513   0.11780   0.69729   0.00000  Uiso   1.00
C398   C     0.75000  -0.00000   0.52667   0.00000  Uiso   1.00
C399   C     0.64516   0.38208   0.30248   0.00000  Uiso   1.00
C400   C     0.61778   0.14485   0.69728   0.00000  Uiso   1.00
C401   C     0.88212   0.35488   0.30250   0.00000  Uiso   1.00
C402   C     0.64486   0.38221   0.69729   0.00000  Uiso   1.00
C403   C     0.85485   0.11791   0.30248   0.00000  Uiso   1.00
C404   C     0.88222   0.35515   0.69728   0.00000  Uiso   1.00
C405   C     0.61791   0.14515   0.30248   0.00000  Uiso   1.00
C406   C     0.85429   0.38113   0.30219   0.00000  Uiso   1.00
C407   C     0.64506   0.11798   0.69732   0.00000  Uiso   1.00
C408   C     0.61890   0.35425   0.30217   0.00000  Uiso   1.00
C409   C     0.75000  -0.00000   0.47333   0.00000  Uiso   1.00
C410   C     0.88200   0.14508   0.69733   0.00000  Uiso   1.00
C411   C     0.64574   0.11890   0.30217   0.00000  Uiso   1.00
C412   C     0.85494   0.38202   0.69732   0.00000  Uiso   1.00
C413   C     0.88110   0.14574   0.30217   0.00000  Uiso   1.00
C414   C     0.61799   0.35493   0.69733   0.00000  Uiso   1.00
C415   C     0.65176   0.40214   0.25004   0.00000  Uiso   1.00
C416   C     0.84842   0.09776   0.74988   0.00000  Uiso   1.00
C417   C     0.90214   0.34824   0.25003   0.00000  Uiso   1.00
C418   C     0.59776   0.15158   0.74988   0.00000  Uiso   1.00
C419   C     0.84824   0.09786   0.25004   0.00000  Uiso   1.00
C420   C     0.50000   0.25000   0.52667   0.00000  Uiso   1.00
C421   C     0.65158   0.40224   0.74988   0.00000  Uiso   1.00
C422   C     0.59786   0.15176   0.25003   0.00000  Uiso   1.00
C423   C     0.90224   0.34842   0.74988   0.00000  Uiso   1.00
C424   C     0.65214   0.09824   0.75003   0.00000  Uiso   1.00
C425   C     0.84776   0.40158   0.24988   0.00000  Uiso   1.00
C426   C     0.90176   0.15214   0.75003   0.00000  Uiso   1.00
C427   C     0.59842   0.34776   0.24988   0.00000  Uiso   1.00
C428   C     0.84786   0.40176   0.75003   0.00000  Uiso   1.00
C429   C     0.65224   0.09842   0.24988   0.00000  Uiso   1.00
C430   C     0.59824   0.34786   0.75003   0.00000  Uiso   1.00
C431   C     0.50000   0.25000   0.47333   0.00000  Uiso   1.00
C432   C     0.90158   0.15224   0.24988   0.00000  Uiso   1.00
C433   C     0.59442   0.33392   0.10505   0.00000  Uiso   1.00
C434   C     0.89759   0.16186   0.89862   0.00000  Uiso   1.00
C435   C     0.83384   0.40547   0.10506   0.00000  Uiso   1.00
C436   C     0.66191   0.10246   0.89861   0.00000  Uiso   1.00
C437   C     0.90556   0.16610   0.10506   0.00000  Uiso   1.00
C438   C     0.60243   0.33812   0.89862   0.00000  Uiso   1.00
C439   C     0.66610   0.09445   0.10506   0.00000  Uiso   1.00
C440   C     0.83810   0.39756   0.89862   0.00000  Uiso   1.00
C441   C     0.54851   0.11738   0.85524   0.00000  Uiso   1.00
C442   C     0.50000   0.25000   0.41010   0.00000  Uiso   1.00
C443   C     0.90032   0.33879   0.09981   0.00000  Uiso   1.00
C444   C     0.88265   0.04848   0.85516   0.00000  Uiso   1.00
C445   C     0.66112   0.40041   0.09980   0.00000  Uiso   1.00
C446   C     0.95149   0.38261   0.85524   0.00000  Uiso   1.00
C447   C     0.59961   0.16113   0.09980   0.00000  Uiso   1.00
C448   C     0.61736   0.45151   0.85519   0.00000  Uiso   1.00
C449   C     0.83887   0.09961   0.09980   0.00000  Uiso   1.00
C450   C     0.84446   0.08389   0.60506   0.00000  Uiso   1.00
C451   C     0.64762   0.41184   0.39863   0.00000  Uiso   1.00
C452   C     0.58385   0.15549   0.60506   0.00000  Uiso   1.00
H453   H     0.57448   0.38595   0.12462   0.00000  Uiso   1.00
H454   H     0.81637   0.42925   0.09382   0.00000  Uiso   1.00
H455   H     0.77992   0.37881   0.32081   0.00000  Uiso   1.00
H456   H     0.69389   0.10776   0.65166   0.00000  Uiso   1.00
H457   H     0.66487   0.06220   0.59849   0.00000  Uiso   1.00
H458   H     0.65305   0.10209   0.55553   0.00000  Uiso   1.00
H459   H     0.62090   0.08353   0.60846   0.00000  Uiso   1.00
H460   H     0.58678   0.33079   0.36831   0.00000  Uiso   1.00
H461   H     0.62955   0.28537   0.39953   0.00000  Uiso   1.00
H462   H     0.66225   0.30264   0.34654   0.00000  Uiso   1.00
H463   H     0.62124   0.27988   0.32067   0.00000  Uiso   1.00
H464   H     0.89221   0.19392   0.65171   0.00000  Uiso   1.00
H465   H     0.81635   0.38376   0.12477   0.00000  Uiso   1.00
H466   H     0.93775   0.16491   0.59848   0.00000  Uiso   1.00
H467   H     0.89785   0.15312   0.55553   0.00000  Uiso   1.00
H468   H     0.91642   0.12094   0.60842   0.00000  Uiso   1.00
H469   H     0.66919   0.08677   0.36832   0.00000  Uiso   1.00
H470   H     0.71461   0.12953   0.39956   0.00000  Uiso   1.00
H471   H     0.69735   0.16224   0.34657   0.00000  Uiso   1.00
H472   H     0.72011   0.12123   0.32070   0.00000  Uiso   1.00
H473   H     0.80611   0.39223   0.65166   0.00000  Uiso   1.00
H474   H     0.83511   0.43779   0.59848   0.00000  Uiso   1.00
H475   H     0.84696   0.39790   0.55553   0.00000  Uiso   1.00
H476   H     0.84608   0.39490   0.06312   0.00000  Uiso   1.00
H477   H     0.87909   0.41649   0.60848   0.00000  Uiso   1.00
H478   H     0.91323   0.16920   0.36832   0.00000  Uiso   1.00
H479   H     0.87047   0.21461   0.39956   0.00000  Uiso   1.00
H480   H     0.83776   0.19735   0.34657   0.00000  Uiso   1.00
H481   H     0.87876   0.22011   0.32069   0.00000  Uiso   1.00
H482   H     0.60778   0.30609   0.65169   0.00000  Uiso   1.00
H483   H     0.56223   0.33510   0.59849   0.00000  Uiso   1.00
H484   H     0.60212   0.34691   0.55553   0.00000  Uiso   1.00
H485   H     0.58356   0.37908   0.60844   0.00000  Uiso   1.00
H486   H     0.61632   0.07272   0.87387   0.00000  Uiso   1.00
H487   H     0.66894   0.08314   0.93505   0.00000  Uiso   1.00
H488   H     0.64707   0.12607   0.91814   0.00000  Uiso   1.00
H489   H     0.68767   0.11222   0.87792   0.00000  Uiso   1.00
H490   H     0.92551   0.11406   0.12460   0.00000  Uiso   1.00
H491   H     0.92934   0.18356   0.09384   0.00000  Uiso   1.00
H492   H     0.88383   0.18359   0.12472   0.00000  Uiso   1.00
H493   H     0.57064   0.31646   0.09384   0.00000  Uiso   1.00
H494   H     0.89501   0.15385   0.06311   0.00000  Uiso   1.00
H495   H     0.57270   0.38370   0.87384   0.00000  Uiso   1.00
H496   H     0.58311   0.33109   0.93504   0.00000  Uiso   1.00
H497   H     0.62603   0.35296   0.91816   0.00000  Uiso   1.00
H498   H     0.61219   0.31235   0.87794   0.00000  Uiso   1.00
H499   H     0.61406   0.07450   0.12460   0.00000  Uiso   1.00
H500   H     0.68356   0.07067   0.09383   0.00000  Uiso   1.00
H501   H     0.68359   0.11617   0.12472   0.00000  Uiso   1.00
H502   H     0.65385   0.10500   0.06311   0.00000  Uiso   1.00
H503   H     0.88369   0.42729   0.87385   0.00000  Uiso   1.00
H504   H     0.61615   0.31642   0.12471   0.00000  Uiso   1.00
H505   H     0.83108   0.41688   0.93505   0.00000  Uiso   1.00
H506   H     0.85294   0.37395   0.91816   0.00000  Uiso   1.00
H507   H     0.81234   0.38780   0.87794   0.00000  Uiso   1.00
H508   H     0.58086   0.16327   0.86834   0.00000  Uiso   1.00
H509   H     0.53545   0.12053   0.89966   0.00000  Uiso   1.00
H510   H     0.55268   0.08780   0.84667   0.00000  Uiso   1.00
H511   H     0.52992   0.12880   0.82079   0.00000  Uiso   1.00
H512   H     0.94388   0.35776   0.15165   0.00000  Uiso   1.00
H513   H     0.91486   0.31219   0.09850   0.00000  Uiso   1.00
H514   H     0.90303   0.35208   0.05552   0.00000  Uiso   1.00
H515   H     0.60497   0.34617   0.06311   0.00000  Uiso   1.00
H516   H     0.87089   0.33351   0.10848   0.00000  Uiso   1.00
H517   H     0.83676   0.08081   0.86832   0.00000  Uiso   1.00
H518   H     0.87952   0.03540   0.89958   0.00000  Uiso   1.00
H519   H     0.91223   0.05265   0.84659   0.00000  Uiso   1.00
H520   H     0.87123   0.02989   0.82071   0.00000  Uiso   1.00
H521   H     0.64219   0.44394   0.15173   0.00000  Uiso   1.00
H522   H     0.68772   0.41494   0.09848   0.00000  Uiso   1.00
H523   H     0.64781   0.40316   0.05553   0.00000  Uiso   1.00
H524   H     0.66639   0.37097   0.10839   0.00000  Uiso   1.00
H525   H     0.91913   0.33672   0.86834   0.00000  Uiso   1.00
H526   H     0.92732   0.11628   0.87381   0.00000  Uiso   1.00
H527   H     0.96455   0.37946   0.89967   0.00000  Uiso   1.00
H528   H     0.94732   0.41219   0.84668   0.00000  Uiso   1.00
H529   H     0.97008   0.37118   0.82080   0.00000  Uiso   1.00
H530   H     0.55607   0.14220   0.15171   0.00000  Uiso   1.00
H531   H     0.58508   0.18774   0.09848   0.00000  Uiso   1.00
H532   H     0.59687   0.14784   0.05553   0.00000  Uiso   1.00
H533   H     0.62905   0.16641   0.10841   0.00000  Uiso   1.00
H534   H     0.66325   0.41917   0.86833   0.00000  Uiso   1.00
H535   H     0.62050   0.46458   0.89961   0.00000  Uiso   1.00
H536   H     0.58778   0.44733   0.84662   0.00000  Uiso   1.00
H537   H     0.91692   0.16888   0.93504   0.00000  Uiso   1.00
H538   H     0.62878   0.47010   0.82074   0.00000  Uiso   1.00
H539   H     0.85780   0.05607   0.15172   0.00000  Uiso   1.00
H540   H     0.81226   0.08508   0.09848   0.00000  Uiso   1.00
H541   H     0.85217   0.09686   0.05553   0.00000  Uiso   1.00
H542   H     0.83359   0.12905   0.10841   0.00000  Uiso   1.00
H543   H     0.82450   0.13593   0.62459   0.00000  Uiso   1.00
H544   H     0.82068   0.06643   0.59383   0.00000  Uiso   1.00
H545   H     0.86618   0.06640   0.62473   0.00000  Uiso   1.00
H546   H     0.85501   0.09614   0.56311   0.00000  Uiso   1.00
H547   H     0.67734   0.36626   0.37379   0.00000  Uiso   1.00
H548   H     0.87399   0.14702   0.91816   0.00000  Uiso   1.00
H549   H     0.66696   0.41885   0.43504   0.00000  Uiso   1.00
H550   H     0.62402   0.39699   0.41817   0.00000  Uiso   1.00
H551   H     0.63786   0.43761   0.37798   0.00000  Uiso   1.00
H552   H     0.63589   0.17546   0.62454   0.00000  Uiso   1.00
H553   H     0.56639   0.17926   0.59382   0.00000  Uiso   1.00
H554   H     0.56636   0.13378   0.62476   0.00000  Uiso   1.00
H555   H     0.59609   0.14492   0.56312   0.00000  Uiso   1.00
H556   H     0.86633   0.32273   0.37388   0.00000  Uiso   1.00
H557   H     0.91896   0.33316   0.43504   0.00000  Uiso   1.00
H558   H     0.89708   0.37608   0.41814   0.00000  Uiso   1.00
H559   H     0.88783   0.18763   0.87796   0.00000  Uiso   1.00
H560   H     0.93768   0.36224   0.37791   0.00000  Uiso   1.00
H561   H     0.67548   0.36409   0.62457   0.00000  Uiso   1.00
H562   H     0.67930   0.43359   0.59383   0.00000  Uiso   1.00
H563   H     0.63380   0.43361   0.62474   0.00000  Uiso   1.00
H564   H     0.64496   0.40388   0.56311   0.00000  Uiso   1.00
H565   H     0.82267   0.13373   0.37380   0.00000  Uiso   1.00
H566   H     0.83307   0.08113   0.43504   0.00000  Uiso   1.00
H567   H     0.87600   0.10299   0.41817   0.00000  Uiso   1.00
H568   H     0.86216   0.06238   0.37796   0.00000  Uiso   1.00
H569   H     0.86412   0.32454   0.62454   0.00000  Uiso   1.00
H570   H     0.88587   0.42545   0.12453   0.00000  Uiso   1.00
H571   H     0.93362   0.32075   0.59382   0.00000  Uiso   1.00
H572   H     0.93363   0.36623   0.62476   0.00000  Uiso   1.00
H573   H     0.90391   0.35508   0.56312   0.00000  Uiso   1.00
H574   H     0.63373   0.17732   0.37381   0.00000  Uiso   1.00
H575   H     0.58113   0.16693   0.43505   0.00000  Uiso   1.00
H576   H     0.60299   0.12400   0.41816   0.00000  Uiso   1.00
H577   H     0.56237   0.13784   0.37797   0.00000  Uiso   1.00
H578   H     0.83087   0.41328   0.36834   0.00000  Uiso   1.00
H579   H     0.78546   0.37054   0.39968   0.00000  Uiso   1.00
H580   H     0.80269   0.33781   0.34670   0.00000  Uiso   1.00
N581   N     0.58283   0.36239   0.14581   0.00000  Uiso   1.00
N582   N     0.91638   0.36218   0.14488   0.00000  Uiso   1.00
N583   N     0.86354   0.08304   0.85479   0.00000  Uiso   1.00
N584   N     0.63776   0.41645   0.14493   0.00000  Uiso   1.00
N585   N     0.91692   0.36351   0.85482   0.00000  Uiso   1.00
N586   N     0.58357   0.13777   0.14492   0.00000  Uiso   1.00
N587   N     0.63647   0.41695   0.85480   0.00000  Uiso   1.00
N588   N     0.86223   0.08357   0.14492   0.00000  Uiso   1.00
N589   N     0.83285   0.11237   0.64580   0.00000  Uiso   1.00
N590   N     0.66600   0.38929   0.35492   0.00000  Uiso   1.00
N591   N     0.61233   0.16711   0.64577   0.00000  Uiso   1.00
N592   N     0.91598   0.13931   0.85493   0.00000  Uiso   1.00
N593   N     0.88935   0.33407   0.35496   0.00000  Uiso   1.00
N594   N     0.66713   0.38765   0.64579   0.00000  Uiso   1.00
N595   N     0.83402   0.11070   0.35493   0.00000  Uiso   1.00
N596   N     0.88767   0.33289   0.64577   0.00000  Uiso   1.00
N597   N     0.61070   0.16598   0.35493   0.00000  Uiso   1.00
N598   N     0.83308   0.38650   0.35482   0.00000  Uiso   1.00
N599   N     0.66639   0.11219   0.64489   0.00000  Uiso   1.00
N600   N     0.61356   0.33302   0.35477   0.00000  Uiso   1.00
N601   N     0.88778   0.16643   0.64491   0.00000  Uiso   1.00
N602   N     0.66697   0.11355   0.35478   0.00000  Uiso   1.00
N603   N     0.86232   0.41710   0.14577   0.00000  Uiso   1.00
N604   N     0.83361   0.38781   0.64489   0.00000  Uiso   1.00
N605   N     0.88645   0.16697   0.35478   0.00000  Uiso   1.00
N606   N     0.61221   0.33359   0.64490   0.00000  Uiso   1.00
N607   N     0.63934   0.08406   0.85496   0.00000  Uiso   1.00
N608   N     0.91715   0.13762   0.14581   0.00000  Uiso   1.00
N609   N     0.58404   0.36068   0.85494   0.00000  Uiso   1.00
N610   N     0.63763   0.08285   0.14580   0.00000  Uiso   1.00
N611   N     0.86067   0.41595   0.85495   0.00000  Uiso   1.00
N612   N     0.58307   0.13649   0.85481   0.00000  Uiso   1.00
O613   O     0.50000   0.25000   0.25000   0.00000  Uiso   1.00
O614   O     0.50000   0.28035   0.61781   0.00000  Uiso   1.00
O615   O     0.71964   0.00000   0.38219   0.00000  Uiso   1.00
O616   O     0.78035   0.00000   0.61781   0.00000  Uiso   1.00
O617   O     0.75000   0.03036   0.88219   0.00000  Uiso   1.00
O618   O     0.75000   0.46964   0.11781   0.00000  Uiso   1.00
O619   O     0.53035   0.25000   0.88219   0.00000  Uiso   1.00
O620   O     0.96964   0.25000   0.11781   0.00000  Uiso   1.00
O621   O     0.75000   0.46964   0.88219   0.00000  Uiso   1.00
O622   O     0.75000   0.03036   0.11781   0.00000  Uiso   1.00
O623   O     0.96964   0.25000   0.88219   0.00000  Uiso   1.00
O624   O     0.50000   0.25000   0.75000   0.00000  Uiso   1.00
O625   O     0.53035   0.25000   0.11781   0.00000  Uiso   1.00
O626   O     0.54267   0.17692   0.28474   0.00000  Uiso   1.00
O627   O     0.95732   0.32307   0.71526   0.00000  Uiso   1.00
O628   O     0.67692   0.45732   0.28474   0.00000  Uiso   1.00
O629   O     0.82307   0.04268   0.71526   0.00000  Uiso   1.00
O630   O     0.95732   0.32307   0.28474   0.00000  Uiso   1.00
O631   O     0.54267   0.17692   0.71526   0.00000  Uiso   1.00
O632   O     0.82307   0.04268   0.28474   0.00000  Uiso   1.00
O633   O     0.67692   0.45732   0.71526   0.00000  Uiso   1.00
O634   O     0.54267   0.32307   0.71526   0.00000  Uiso   1.00
O635   O     0.75000   0.00000   0.25000   0.00000  Uiso   1.00
O636   O     0.95732   0.17692   0.28474   0.00000  Uiso   1.00
O637   O     0.67692   0.04268   0.71526   0.00000  Uiso   1.00
O638   O     0.82307   0.45732   0.28474   0.00000  Uiso   1.00
O639   O     0.95732   0.17692   0.71526   0.00000  Uiso   1.00
O640   O     0.54267   0.32307   0.28474   0.00000  Uiso   1.00
O641   O     0.82307   0.45732   0.71526   0.00000  Uiso   1.00
O642   O     0.67692   0.04268   0.28474   0.00000  Uiso   1.00
O643   O     0.79267   0.42692   0.78474   0.00000  Uiso   1.00
O644   O     0.70732   0.07308   0.21526   0.00000  Uiso   1.00
O645   O     0.92692   0.20732   0.78474   0.00000  Uiso   1.00
O646   O     0.75000   0.00000   0.75000   0.00000  Uiso   1.00
O647   O     0.57307   0.29267   0.21526   0.00000  Uiso   1.00
O648   O     0.70732   0.07308   0.78474   0.00000  Uiso   1.00
O649   O     0.79267   0.42692   0.21526   0.00000  Uiso   1.00
O650   O     0.57307   0.29267   0.78474   0.00000  Uiso   1.00
O651   O     0.92692   0.20732   0.21526   0.00000  Uiso   1.00
O652   O     0.79267   0.07308   0.21526   0.00000  Uiso   1.00
O653   O     0.70732   0.42692   0.78474   0.00000  Uiso   1.00
O654   O     0.92692   0.29267   0.21526   0.00000  Uiso   1.00
O655   O     0.57307   0.20732   0.78474   0.00000  Uiso   1.00
O656   O     0.70732   0.42692   0.21526   0.00000  Uiso   1.00
O657   O     0.50000   0.28035   0.38219   0.00000  Uiso   1.00
O658   O     0.79267   0.07308   0.78474   0.00000  Uiso   1.00
O659   O     0.57307   0.20732   0.21526   0.00000  Uiso   1.00
O660   O     0.92692   0.29267   0.78474   0.00000  Uiso   1.00
O661   O     0.50000   0.21964   0.61781   0.00000  Uiso   1.00
O662   O     0.78035   0.00000   0.38219   0.00000  Uiso   1.00
O663   O     0.71964   0.00000   0.61781   0.00000  Uiso   1.00
O664   O     0.50000   0.21964   0.38219   0.00000  Uiso   1.00
Zn665  Zn    0.54333   0.25000   0.20067   0.00000  Uiso   1.00
Zn666  Zn    0.70667   0.00000   0.29933   0.00000  Uiso   1.00
Zn667  Zn    0.50000   0.20667   0.70067   0.00000  Uiso   1.00
Zn668  Zn    0.50000   0.29333   0.29933   0.00000  Uiso   1.00
Zn669  Zn    0.70667   0.00000   0.70067   0.00000  Uiso   1.00
Zn670  Zn    0.79333   0.00000   0.29933   0.00000  Uiso   1.00
Zn671  Zn    0.50000   0.29333   0.70067   0.00000  Uiso   1.00
Zn672  Zn    0.50000   0.20667   0.29933   0.00000  Uiso   1.00
Zn673  Zn    0.95667   0.25000   0.79933   0.00000  Uiso   1.00
Zn674  Zn    0.75000   0.45667   0.20067   0.00000  Uiso   1.00
Zn675  Zn    0.75000   0.04333   0.79933   0.00000  Uiso   1.00
Zn676  Zn    0.95667   0.25000   0.20067   0.00000  Uiso   1.00
Zn677  Zn    0.54333   0.25000   0.79933   0.00000  Uiso   1.00
Zn678  Zn    0.75000   0.04333   0.20067   0.00000  Uiso   1.00
Zn679  Zn    0.75000   0.45667   0.79933   0.00000  Uiso   1.00
Zn680  Zn    0.79333   0.00000   0.70067   0.00000  Uiso   1.00
C681   C    -0.00000   0.75000   0.02667   0.00000  Uiso   1.00
C682   C     0.00000   0.75000   0.58991   0.00000  Uiso   1.00
C683   C     0.41192   0.85247   0.39861   0.00000  Uiso   1.00
C684   C     0.15552   0.91612   0.60506   0.00000  Uiso   1.00
C685   C     0.35240   0.58815   0.39863   0.00000  Uiso   1.00
C686   C     0.41615   0.84452   0.60506   0.00000  Uiso   1.00
C687   C     0.08815   0.64760   0.39863   0.00000  Uiso   1.00
C688   C     0.29852   0.86739   0.35525   0.00000  Uiso   1.00
C689   C     0.15033   0.58881   0.59981   0.00000  Uiso   1.00
C690   C     0.13267   0.79846   0.35513   0.00000  Uiso   1.00
C691   C     0.41114   0.65038   0.59980   0.00000  Uiso   1.00
C692   C     0.20153   0.63266   0.35515   0.00000  Uiso   1.00
C693   C     0.25000   0.50000   0.41010   0.00000  Uiso   1.00
C694   C     0.34966   0.91119   0.59981   0.00000  Uiso   1.00
C695   C     0.36734   0.70153   0.35515   0.00000  Uiso   1.00
C696   C     0.08883   0.84964   0.59981   0.00000  Uiso   1.00
C697   C     0.25000   0.50000   0.58991   0.00000  Uiso   1.00
C698   C     0.25000   0.50000   0.91010   0.00000  Uiso   1.00
C699   C     0.25000   0.50000   0.08991   0.00000  Uiso   1.00
C700   C     0.00000   0.75000   0.91010   0.00000  Uiso   1.00
C701   C    -0.00000   0.75000   0.08991   0.00000  Uiso   1.00
C702   C     0.07002   0.68001   0.25012   0.00000  Uiso   1.00
C703   C     0.43000   0.82004   0.74991   0.00000  Uiso   1.00
C704   C     0.18001   0.92998   0.25012   0.00000  Uiso   1.00
C705   C     0.00000   0.75000   0.97333   0.00000  Uiso   1.00
C706   C     0.32004   0.57000   0.74991   0.00000  Uiso   1.00
C707   C     0.42998   0.81999   0.25012   0.00000  Uiso   1.00
C708   C     0.07000   0.67996   0.74991   0.00000  Uiso   1.00
C709   C     0.31999   0.57002   0.25012   0.00000  Uiso   1.00
C710   C     0.17996   0.93000   0.74991   0.00000  Uiso   1.00
C711   C     0.06999   0.82002   0.75012   0.00000  Uiso   1.00
C712   C     0.42996   0.68000   0.24991   0.00000  Uiso   1.00
C713   C     0.17998   0.56999   0.75012   0.00000  Uiso   1.00
C714   C     0.32000   0.92996   0.24991   0.00000  Uiso   1.00
C715   C     0.43001   0.67998   0.75012   0.00000  Uiso   1.00
C716   C     0.25000   0.50000   0.02667   0.00000  Uiso   1.00
C717   C     0.07004   0.82000   0.24991   0.00000  Uiso   1.00
C718   C     0.32002   0.93001   0.75012   0.00000  Uiso   1.00
C719   C     0.18000   0.57004   0.24991   0.00000  Uiso   1.00
C720   C     0.10512   0.86781   0.19730   0.00000  Uiso   1.00
C721   C     0.39515   0.63209   0.80248   0.00000  Uiso   1.00
C722   C     0.36777   0.89484   0.19728   0.00000  Uiso   1.00
C723   C     0.13211   0.60487   0.80249   0.00000  Uiso   1.00
C724   C     0.39487   0.63220   0.19729   0.00000  Uiso   1.00
C725   C     0.10486   0.86790   0.80249   0.00000  Uiso   1.00
C726   C     0.13220   0.60513   0.19729   0.00000  Uiso   1.00
C727   C     0.25000   0.50000   0.97333   0.00000  Uiso   1.00
C728   C     0.36789   0.89513   0.80249   0.00000  Uiso   1.00
C729   C     0.10428   0.63112   0.80219   0.00000  Uiso   1.00
C730   C     0.39506   0.86798   0.19732   0.00000  Uiso   1.00
C731   C     0.36889   0.60426   0.80218   0.00000  Uiso   1.00
C732   C     0.13199   0.89509   0.19734   0.00000  Uiso   1.00
C733   C     0.39572   0.86888   0.80219   0.00000  Uiso   1.00
C734   C     0.10492   0.63200   0.19733   0.00000  Uiso   1.00
C735   C     0.13111   0.89573   0.80218   0.00000  Uiso   1.00
C736   C     0.36800   0.60492   0.19734   0.00000  Uiso   1.00
C737   C     0.35513   0.61780   0.69729   0.00000  Uiso   1.00
C738   C     0.25000   0.50000   0.52667   0.00000  Uiso   1.00
C739   C     0.14516   0.88208   0.30248   0.00000  Uiso   1.00
C740   C     0.11778   0.64485   0.69728   0.00000  Uiso   1.00
C741   C     0.38212   0.85488   0.30250   0.00000  Uiso   1.00
C742   C     0.14486   0.88221   0.69729   0.00000  Uiso   1.00
C743   C     0.35485   0.61791   0.30248   0.00000  Uiso   1.00
C744   C     0.38222   0.85515   0.69728   0.00000  Uiso   1.00
C745   C     0.11791   0.64515   0.30248   0.00000  Uiso   1.00
C746   C     0.35429   0.88113   0.30219   0.00000  Uiso   1.00
C747   C     0.14506   0.61798   0.69732   0.00000  Uiso   1.00
C748   C     0.11890   0.85425   0.30217   0.00000  Uiso   1.00
C749   C     0.25000   0.50000   0.47333   0.00000  Uiso   1.00
C750   C     0.38200   0.64508   0.69733   0.00000  Uiso   1.00
C751   C     0.14574   0.61890   0.30217   0.00000  Uiso   1.00
C752   C     0.35494   0.88202   0.69732   0.00000  Uiso   1.00
C753   C     0.38110   0.64574   0.30217   0.00000  Uiso   1.00
C754   C     0.11799   0.85493   0.69733   0.00000  Uiso   1.00
C755   C     0.15176   0.90214   0.25004   0.00000  Uiso   1.00
C756   C     0.34842   0.59776   0.74988   0.00000  Uiso   1.00
C757   C     0.40214   0.84824   0.25003   0.00000  Uiso   1.00
C758   C     0.09776   0.65158   0.74988   0.00000  Uiso   1.00
C759   C     0.34824   0.59786   0.25004   0.00000  Uiso   1.00
C760   C    -0.00000   0.75000   0.52667   0.00000  Uiso   1.00
C761   C     0.15158   0.90224   0.74988   0.00000  Uiso   1.00
C762   C     0.09786   0.65176   0.25003   0.00000  Uiso   1.00
C763   C     0.40224   0.84842   0.74988   0.00000  Uiso   1.00
C764   C     0.15214   0.59824   0.75003   0.00000  Uiso   1.00
C765   C     0.34776   0.90158   0.24988   0.00000  Uiso   1.00
C766   C     0.40176   0.65214   0.75003   0.00000  Uiso   1.00
C767   C     0.09842   0.84776   0.24988   0.00000  Uiso   1.00
C768   C     0.34786   0.90176   0.75003   0.00000  Uiso   1.00
C769   C     0.15224   0.59842   0.24988   0.00000  Uiso   1.00
C770   C     0.09824   0.84786   0.75003   0.00000  Uiso   1.00
C771   C    -0.00000   0.75000   0.47333   0.00000  Uiso   1.00
C772   C     0.40158   0.65224   0.24988   0.00000  Uiso   1.00
C773   C     0.09442   0.83392   0.10505   0.00000  Uiso   1.00
C774   C     0.39759   0.66186   0.89862   0.00000  Uiso   1.00
C775   C     0.33384   0.90547   0.10506   0.00000  Uiso   1.00
C776   C     0.16191   0.60246   0.89861   0.00000  Uiso   1.00
C777   C     0.40556   0.66610   0.10506   0.00000  Uiso   1.00
C778   C     0.10243   0.83812   0.89862   0.00000  Uiso   1.00
C779   C     0.16610   0.59445   0.10506   0.00000  Uiso   1.00
C780   C     0.33810   0.89756   0.89862   0.00000  Uiso   1.00
C781   C     0.04851   0.61738   0.85524   0.00000  Uiso   1.00
C782   C     0.00000   0.75000   0.41010   0.00000  Uiso   1.00
C783   C     0.40032   0.83879   0.09981   0.00000  Uiso   1.00
C784   C     0.38265   0.54848   0.85516   0.00000  Uiso   1.00
C785   C     0.16112   0.90041   0.09980   0.00000  Uiso   1.00
C786   C     0.45149   0.88261   0.85524   0.00000  Uiso   1.00
C787   C     0.09961   0.66113   0.09980   0.00000  Uiso   1.00
C788   C     0.11736   0.95151   0.85519   0.00000  Uiso   1.00
C789   C     0.33887   0.59961   0.09980   0.00000  Uiso   1.00
C790   C     0.34446   0.58389   0.60506   0.00000  Uiso   1.00
C791   C     0.14762   0.91184   0.39863   0.00000  Uiso   1.00
C792   C     0.08385   0.65549   0.60506   0.00000  Uiso   1.00
H793   H     0.07448   0.88595   0.12462   0.00000  Uiso   1.00
H794   H     0.31637   0.92925   0.09382   0.00000  Uiso   1.00
H795   H     0.27992   0.87881   0.32081   0.00000  Uiso   1.00
H796   H     0.19389   0.60776   0.65166   0.00000  Uiso   1.00
H797   H     0.16487   0.56220   0.59849   0.00000  Uiso   1.00
H798   H     0.15305   0.60209   0.55553   0.00000  Uiso   1.00
H799   H     0.12090   0.58353   0.60846   0.00000  Uiso   1.00
H800   H     0.08678   0.83079   0.36831   0.00000  Uiso   1.00
H801   H     0.12955   0.78537   0.39953   0.00000  Uiso   1.00
H802   H     0.16225   0.80264   0.34654   0.00000  Uiso   1.00
H803   H     0.12124   0.77988   0.32067   0.00000  Uiso   1.00
H804   H     0.39221   0.69392   0.65171   0.00000  Uiso   1.00
H805   H     0.31635   0.88376   0.12477   0.00000  Uiso   1.00
H806   H     0.43775   0.66491   0.59848   0.00000  Uiso   1.00
H807   H     0.39785   0.65312   0.55553   0.00000  Uiso   1.00
H808   H     0.41642   0.62094   0.60842   0.00000  Uiso   1.00
H809   H     0.16919   0.58677   0.36832   0.00000  Uiso   1.00
H810   H     0.21461   0.62953   0.39956   0.00000  Uiso   1.00
H811   H     0.19735   0.66224   0.34657   0.00000  Uiso   1.00
H812   H     0.22011   0.62123   0.32070   0.00000  Uiso   1.00
H813   H     0.30611   0.89223   0.65166   0.00000  Uiso   1.00
H814   H     0.33511   0.93779   0.59848   0.00000  Uiso   1.00
H815   H     0.34696   0.89790   0.55553   0.00000  Uiso   1.00
H816   H     0.34608   0.89490   0.06312   0.00000  Uiso   1.00
H817   H     0.37909   0.91649   0.60848   0.00000  Uiso   1.00
H818   H     0.41323   0.66920   0.36832   0.00000  Uiso   1.00
H819   H     0.37047   0.71461   0.39956   0.00000  Uiso   1.00
H820   H     0.33776   0.69735   0.34657   0.00000  Uiso   1.00
H821   H     0.37876   0.72011   0.32069   0.00000  Uiso   1.00
H822   H     0.10778   0.80609   0.65169   0.00000  Uiso   1.00
H823   H     0.06223   0.83510   0.59849   0.00000  Uiso   1.00
H824   H     0.10212   0.84691   0.55553   0.00000  Uiso   1.00
H825   H     0.08356   0.87908   0.60844   0.00000  Uiso   1.00
H826   H     0.11632   0.57272   0.87387   0.00000  Uiso   1.00
H827   H     0.16894   0.58314   0.93505   0.00000  Uiso   1.00
H828   H     0.14707   0.62607   0.91814   0.00000  Uiso   1.00
H829   H     0.18767   0.61222   0.87792   0.00000  Uiso   1.00
H830   H     0.42551   0.61406   0.12460   0.00000  Uiso   1.00
H831   H     0.42934   0.68356   0.09384   0.00000  Uiso   1.00
H832   H     0.38383   0.68359   0.12472   0.00000  Uiso   1.00
H833   H     0.07064   0.81646   0.09384   0.00000  Uiso   1.00
H834   H     0.39501   0.65385   0.06311   0.00000  Uiso   1.00
H835   H     0.07270   0.88370   0.87384   0.00000  Uiso   1.00
H836   H     0.08311   0.83109   0.93504   0.00000  Uiso   1.00
H837   H     0.12603   0.85296   0.91816   0.00000  Uiso   1.00
H838   H     0.11219   0.81235   0.87794   0.00000  Uiso   1.00
H839   H     0.11406   0.57450   0.12460   0.00000  Uiso   1.00
H840   H     0.18356   0.57067   0.09383   0.00000  Uiso   1.00
H841   H     0.18359   0.61617   0.12472   0.00000  Uiso   1.00
H842   H     0.15385   0.60500   0.06311   0.00000  Uiso   1.00
H843   H     0.38369   0.92729   0.87385   0.00000  Uiso   1.00
H844   H     0.11615   0.81642   0.12471   0.00000  Uiso   1.00
H845   H     0.33108   0.91688   0.93505   0.00000  Uiso   1.00
H846   H     0.35294   0.87395   0.91816   0.00000  Uiso   1.00
H847   H     0.31234   0.88780   0.87794   0.00000  Uiso   1.00
H848   H     0.08086   0.66327   0.86834   0.00000  Uiso   1.00
H849   H     0.03545   0.62053   0.89966   0.00000  Uiso   1.00
H850   H     0.05268   0.58780   0.84667   0.00000  Uiso   1.00
H851   H     0.02992   0.62880   0.82079   0.00000  Uiso   1.00
H852   H     0.44388   0.85776   0.15165   0.00000  Uiso   1.00
H853   H     0.41486   0.81219   0.09850   0.00000  Uiso   1.00
H854   H     0.40303   0.85208   0.05552   0.00000  Uiso   1.00
H855   H     0.10497   0.84617   0.06311   0.00000  Uiso   1.00
H856   H     0.37089   0.83351   0.10848   0.00000  Uiso   1.00
H857   H     0.33676   0.58081   0.86832   0.00000  Uiso   1.00
H858   H     0.37952   0.53540   0.89958   0.00000  Uiso   1.00
H859   H     0.41223   0.55265   0.84659   0.00000  Uiso   1.00
H860   H     0.37123   0.52989   0.82071   0.00000  Uiso   1.00
H861   H     0.14219   0.94394   0.15173   0.00000  Uiso   1.00
H862   H     0.18772   0.91494   0.09848   0.00000  Uiso   1.00
H863   H     0.14781   0.90316   0.05553   0.00000  Uiso   1.00
H864   H     0.16639   0.87097   0.10839   0.00000  Uiso   1.00
H865   H     0.41913   0.83672   0.86834   0.00000  Uiso   1.00
H866   H     0.42732   0.61628   0.87381   0.00000  Uiso   1.00
H867   H     0.46455   0.87946   0.89967   0.00000  Uiso   1.00
H868   H     0.44732   0.91219   0.84668   0.00000  Uiso   1.00
H869   H     0.47008   0.87118   0.82080   0.00000  Uiso   1.00
H870   H     0.05607   0.64220   0.15171   0.00000  Uiso   1.00
H871   H     0.08508   0.68774   0.09848   0.00000  Uiso   1.00
H872   H     0.09687   0.64784   0.05553   0.00000  Uiso   1.00
H873   H     0.12905   0.66641   0.10841   0.00000  Uiso   1.00
H874   H     0.16325   0.91917   0.86833   0.00000  Uiso   1.00
H875   H     0.12050   0.96458   0.89961   0.00000  Uiso   1.00
H876   H     0.08778   0.94733   0.84662   0.00000  Uiso   1.00
H877   H     0.41692   0.66888   0.93504   0.00000  Uiso   1.00
H878   H     0.12878   0.97010   0.82074   0.00000  Uiso   1.00
H879   H     0.35780   0.55607   0.15172   0.00000  Uiso   1.00
H880   H     0.31226   0.58508   0.09848   0.00000  Uiso   1.00
H881   H     0.35217   0.59686   0.05553   0.00000  Uiso   1.00
H882   H     0.33359   0.62905   0.10841   0.00000  Uiso   1.00
H883   H     0.32450   0.63593   0.62459   0.00000  Uiso   1.00
H884   H     0.32068   0.56643   0.59383   0.00000  Uiso   1.00
H885   H     0.36618   0.56640   0.62473   0.00000  Uiso   1.00
H886   H     0.35501   0.59614   0.56311   0.00000  Uiso   1.00
H887   H     0.17734   0.86626   0.37379   0.00000  Uiso   1.00
H888   H     0.37399   0.64702   0.91816   0.00000  Uiso   1.00
H889   H     0.16696   0.91885   0.43504   0.00000  Uiso   1.00
H890   H     0.12402   0.89699   0.41817   0.00000  Uiso   1.00
H891   H     0.13786   0.93761   0.37798   0.00000  Uiso   1.00
H892   H     0.13589   0.67546   0.62454   0.00000  Uiso   1.00
H893   H     0.06639   0.67926   0.59382   0.00000  Uiso   1.00
H894   H     0.06636   0.63378   0.62476   0.00000  Uiso   1.00
H895   H     0.09609   0.64492   0.56312   0.00000  Uiso   1.00
H896   H     0.36633   0.82273   0.37388   0.00000  Uiso   1.00
H897   H     0.41896   0.83316   0.43504   0.00000  Uiso   1.00
H898   H     0.39708   0.87608   0.41814   0.00000  Uiso   1.00
H899   H     0.38783   0.68763   0.87796   0.00000  Uiso   1.00
H900   H     0.43768   0.86224   0.37791   0.00000  Uiso   1.00
H901   H     0.17548   0.86409   0.62457   0.00000  Uiso   1.00
H902   H     0.17930   0.93359   0.59383   0.00000  Uiso   1.00
H903   H     0.13380   0.93361   0.62474   0.00000  Uiso   1.00
H904   H     0.14496   0.90388   0.56311   0.00000  Uiso   1.00
H905   H     0.32267   0.63373   0.37380   0.00000  Uiso   1.00
H906   H     0.33307   0.58113   0.43504   0.00000  Uiso   1.00
H907   H     0.37600   0.60299   0.41817   0.00000  Uiso   1.00
H908   H     0.36216   0.56238   0.37796   0.00000  Uiso   1.00
H909   H     0.36412   0.82454   0.62454   0.00000  Uiso   1.00
H910   H     0.38587   0.92545   0.12453   0.00000  Uiso   1.00
H911   H     0.43362   0.82075   0.59382   0.00000  Uiso   1.00
H912   H     0.43363   0.86623   0.62476   0.00000  Uiso   1.00
H913   H     0.40391   0.85508   0.56312   0.00000  Uiso   1.00
H914   H     0.13373   0.67732   0.37381   0.00000  Uiso   1.00
H915   H     0.08113   0.66693   0.43505   0.00000  Uiso   1.00
H916   H     0.10299   0.62400   0.41816   0.00000  Uiso   1.00
H917   H     0.06237   0.63784   0.37797   0.00000  Uiso   1.00
H918   H     0.33087   0.91328   0.36834   0.00000  Uiso   1.00
H919   H     0.28546   0.87054   0.39968   0.00000  Uiso   1.00
H920   H     0.30269   0.83781   0.34670   0.00000  Uiso   1.00
N921   N     0.08283   0.86239   0.14581   0.00000  Uiso   1.00
N922   N     0.41638   0.86218   0.14488   0.00000  Uiso   1.00
N923   N     0.36354   0.58304   0.85479   0.00000  Uiso   1.00
N924   N     0.13776   0.91645   0.14493   0.00000  Uiso   1.00
N925   N     0.41692   0.86351   0.85482   0.00000  Uiso   1.00
N926   N     0.08357   0.63777   0.14492   0.00000  Uiso   1.00
N927   N     0.13647   0.91695   0.85480   0.00000  Uiso   1.00
N928   N     0.36223   0.58357   0.14492   0.00000  Uiso   1.00
N929   N     0.33285   0.61237   0.64580   0.00000  Uiso   1.00
N930   N     0.16600   0.88929   0.35492   0.00000  Uiso   1.00
N931   N     0.11233   0.66711   0.64577   0.00000  Uiso   1.00
N932   N     0.41598   0.63931   0.85493   0.00000  Uiso   1.00
N933   N     0.38935   0.83407   0.35496   0.00000  Uiso   1.00
N934   N     0.16713   0.88765   0.64579   0.00000  Uiso   1.00
N935   N     0.33402   0.61070   0.35493   0.00000  Uiso   1.00
N936   N     0.38767   0.83289   0.64577   0.00000  Uiso   1.00
N937   N     0.11070   0.66598   0.35493   0.00000  Uiso   1.00
N938   N     0.33308   0.88650   0.35482   0.00000  Uiso   1.00
N939   N     0.16639   0.61219   0.64489   0.00000  Uiso   1.00
N940   N     0.11356   0.83302   0.35477   0.00000  Uiso   1.00
N941   N     0.38778   0.66643   0.64491   0.00000  Uiso   1.00
N942   N     0.16697   0.61355   0.35478   0.00000  Uiso   1.00
N943   N     0.36232   0.91710   0.14577   0.00000  Uiso   1.00
N944   N     0.33361   0.88781   0.64489   0.00000  Uiso   1.00
N945   N     0.38645   0.66697   0.35478   0.00000  Uiso   1.00
N946   N     0.11221   0.83359   0.64490   0.00000  Uiso   1.00
N947   N     0.13934   0.58406   0.85496   0.00000  Uiso   1.00
N948   N     0.41715   0.63762   0.14581   0.00000  Uiso   1.00
N949   N     0.08404   0.86068   0.85494   0.00000  Uiso   1.00
N950   N     0.13763   0.58285   0.14580   0.00000  Uiso   1.00
N951   N     0.36067   0.91595   0.85495   0.00000  Uiso   1.00
N952   N     0.08307   0.63649   0.85481   0.00000  Uiso   1.00
O953   O    -0.00000   0.75000   0.25000   0.00000  Uiso   1.00
O954   O    -0.00000   0.78035   0.61781   0.00000  Uiso   1.00
O955   O     0.21964   0.50000   0.38219   0.00000  Uiso   1.00
O956   O     0.28035   0.50000   0.61781   0.00000  Uiso   1.00
O957   O     0.25000   0.53036   0.88219   0.00000  Uiso   1.00
O958   O     0.25000   0.96964   0.11781   0.00000  Uiso   1.00
O959   O     0.03035   0.75000   0.88219   0.00000  Uiso   1.00
O960   O     0.46964   0.75000   0.11781   0.00000  Uiso   1.00
O961   O     0.25000   0.96964   0.88219   0.00000  Uiso   1.00
O962   O     0.25000   0.53036   0.11781   0.00000  Uiso   1.00
O963   O     0.46964   0.75000   0.88219   0.00000  Uiso   1.00
O964   O     0.00000   0.75000   0.75000   0.00000  Uiso   1.00
O965   O     0.03035   0.75000   0.11781   0.00000  Uiso   1.00
O966   O     0.04267   0.67692   0.28474   0.00000  Uiso   1.00
O967   O     0.45732   0.82307   0.71526   0.00000  Uiso   1.00
O968   O     0.17692   0.95732   0.28474   0.00000  Uiso   1.00
O969   O     0.32307   0.54268   0.71526   0.00000  Uiso   1.00
O970   O     0.45732   0.82307   0.28474   0.00000  Uiso   1.00
O971   O     0.04267   0.67692   0.71526   0.00000  Uiso   1.00
O972   O     0.32307   0.54268   0.28474   0.00000  Uiso   1.00
O973   O     0.17692   0.95732   0.71526   0.00000  Uiso   1.00
O974   O     0.04267   0.82307   0.71526   0.00000  Uiso   1.00
O975   O     0.25000   0.50000   0.25000   0.00000  Uiso   1.00
O976   O     0.45732   0.67692   0.28474   0.00000  Uiso   1.00
O977   O     0.17692   0.54268   0.71526   0.00000  Uiso   1.00
O978   O     0.32307   0.95732   0.28474   0.00000  Uiso   1.00
O979   O     0.45732   0.67692   0.71526   0.00000  Uiso   1.00
O980   O     0.04267   0.82307   0.28474   0.00000  Uiso   1.00
O981   O     0.32307   0.95732   0.71526   0.00000  Uiso   1.00
O982   O     0.17692   0.54268   0.28474   0.00000  Uiso   1.00
O983   O     0.29267   0.92692   0.78474   0.00000  Uiso   1.00
O984   O     0.20732   0.57308   0.21526   0.00000  Uiso   1.00
O985   O     0.42692   0.70732   0.78474   0.00000  Uiso   1.00
O986   O     0.25000   0.50000   0.75000   0.00000  Uiso   1.00
O987   O     0.07307   0.79267   0.21526   0.00000  Uiso   1.00
O988   O     0.20732   0.57308   0.78474   0.00000  Uiso   1.00
O989   O     0.29267   0.92692   0.21526   0.00000  Uiso   1.00
O990   O     0.07307   0.79267   0.78474   0.00000  Uiso   1.00
O991   O     0.42692   0.70732   0.21526   0.00000  Uiso   1.00
O992   O     0.29267   0.57308   0.21526   0.00000  Uiso   1.00
O993   O     0.20732   0.92692   0.78474   0.00000  Uiso   1.00
O994   O     0.42692   0.79267   0.21526   0.00000  Uiso   1.00
O995   O     0.07307   0.70732   0.78474   0.00000  Uiso   1.00
O996   O     0.20732   0.92692   0.21526   0.00000  Uiso   1.00
O997   O    -0.00000   0.78035   0.38219   0.00000  Uiso   1.00
O998   O     0.29267   0.57308   0.78474   0.00000  Uiso   1.00
O999   O     0.07307   0.70732   0.21526   0.00000  Uiso   1.00
O1000  O     0.42692   0.79267   0.78474   0.00000  Uiso   1.00
O1001  O     0.00000   0.71964   0.61781   0.00000  Uiso   1.00
O1002  O     0.28035   0.50000   0.38219   0.00000  Uiso   1.00
O1003  O     0.21964   0.50000   0.61781   0.00000  Uiso   1.00
O1004  O    -0.00000   0.71964   0.38219   0.00000  Uiso   1.00
Zn1005 Zn    0.04333   0.75000   0.20067   0.00000  Uiso   1.00
Zn1006 Zn    0.20667   0.50000   0.29933   0.00000  Uiso   1.00
Zn1007 Zn   -0.00000   0.70667   0.70067   0.00000  Uiso   1.00
Zn1008 Zn   -0.00000   0.79333   0.29933   0.00000  Uiso   1.00
Zn1009 Zn    0.20667   0.50000   0.70067   0.00000  Uiso   1.00
Zn1010 Zn    0.29333   0.50000   0.29933   0.00000  Uiso   1.00
Zn1011 Zn    0.00000   0.79333   0.70067   0.00000  Uiso   1.00
Zn1012 Zn   -0.00000   0.70667   0.29933   0.00000  Uiso   1.00
Zn1013 Zn    0.45667   0.75000   0.79933   0.00000  Uiso   1.00
Zn1014 Zn    0.25000   0.95667   0.20067   0.00000  Uiso   1.00
Zn1015 Zn    0.25000   0.54333   0.79933   0.00000  Uiso   1.00
Zn1016 Zn    0.45667   0.75000   0.20067   0.00000  Uiso   1.00
Zn1017 Zn    0.04333   0.75000   0.79933   0.00000  Uiso   1.00
Zn1018 Zn    0.25000   0.54333   0.20067   0.00000  Uiso   1.00
Zn1019 Zn    0.25000   0.95667   0.79933   0.00000  Uiso   1.00
Zn1020 Zn    0.29333   0.50000   0.70067   0.00000  Uiso   1.00
C1021  C     0.50000   0.75000   0.02667   0.00000  Uiso   1.00
C1022  C     0.50000   0.75000   0.58991   0.00000  Uiso   1.00
C1023  C     0.91192   0.85247   0.39861   0.00000  Uiso   1.00
C1024  C     0.65552   0.91612   0.60506   0.00000  Uiso   1.00
C1025  C     0.85240   0.58815   0.39863   0.00000  Uiso   1.00
C1026  C     0.91615   0.84452   0.60506   0.00000  Uiso   1.00
C1027  C     0.58815   0.64760   0.39863   0.00000  Uiso   1.00
C1028  C     0.79852   0.86739   0.35525   0.00000  Uiso   1.00
C1029  C     0.65033   0.58881   0.59981   0.00000  Uiso   1.00
C1030  C     0.63267   0.79846   0.35513   0.00000  Uiso   1.00
C1031  C     0.91114   0.65038   0.59980   0.00000  Uiso   1.00
C1032  C     0.70153   0.63266   0.35515   0.00000  Uiso   1.00
C1033  C     0.75000   0.50000   0.41010   0.00000  Uiso   1.00
C1034  C     0.84966   0.91119   0.59981   0.00000  Uiso   1.00
C1035  C     0.86734   0.70153   0.35515   0.00000  Uiso   1.00
C1036  C     0.58883   0.84964   0.59981   0.00000  Uiso   1.00
C1037  C     0.75000   0.50000   0.58991   0.00000  Uiso   1.00
C1038  C     0.75000   0.50000   0.91010   0.00000  Uiso   1.00
C1039  C     0.75000   0.50000   0.08991   0.00000  Uiso   1.00
C1040  C     0.50000   0.75000   0.91010   0.00000  Uiso   1.00
C1041  C     0.50000   0.75000   0.08991   0.00000  Uiso   1.00
C1042  C     0.57002   0.68001   0.25012   0.00000  Uiso   1.00
C1043  C     0.93000   0.82004   0.74991   0.00000  Uiso   1.00
C1044  C     0.68001   0.92998   0.25012   0.00000  Uiso   1.00
C1045  C     0.50000   0.75000   0.97333   0.00000  Uiso   1.00
C1046  C     0.82004   0.57000   0.74991   0.00000  Uiso   1.00
C1047  C     0.92998   0.81999   0.25012   0.00000  Uiso   1.00
C1048  C     0.57000   0.67996   0.74991   0.00000  Uiso   1.00
C1049  C     0.81999   0.57002   0.25012   0.00000  Uiso   1.00
C1050  C     0.67996   0.93000   0.74991   0.00000  Uiso   1.00
C1051  C     0.56999   0.82002   0.75012   0.00000  Uiso   1.00
C1052  C     0.92996   0.68000   0.24991   0.00000  Uiso   1.00
C1053  C     0.67998   0.56999   0.75012   0.00000  Uiso   1.00
C1054  C     0.82000   0.92996   0.24991   0.00000  Uiso   1.00
C1055  C     0.93001   0.67998   0.75012   0.00000  Uiso   1.00
C1056  C     0.75000   0.50000   0.02667   0.00000  Uiso   1.00
C1057  C     0.57004   0.82000   0.24991   0.00000  Uiso   1.00
C1058  C     0.82002   0.93001   0.75012   0.00000  Uiso   1.00
C1059  C     0.68000   0.57004   0.24991   0.00000  Uiso   1.00
C1060  C     0.60512   0.86781   0.19730   0.00000  Uiso   1.00
C1061  C     0.89515   0.63209   0.80248   0.00000  Uiso   1.00
C1062  C     0.86777   0.89484   0.19728   0.00000  Uiso   1.00
C1063  C     0.63211   0.60487   0.80249   0.00000  Uiso   1.00
C1064  C     0.89487   0.63220   0.19729   0.00000  Uiso   1.00
C1065  C     0.60486   0.86790   0.80249   0.00000  Uiso   1.00
C1066  C     0.63220   0.60513   0.19729   0.00000  Uiso   1.00
C1067  C     0.75000   0.50000   0.97333   0.00000  Uiso   1.00
C1068  C     0.86789   0.89513   0.80249   0.00000  Uiso   1.00
C1069  C     0.60428   0.63112   0.80219   0.00000  Uiso   1.00
C1070  C     0.89506   0.86798   0.19732   0.00000  Uiso   1.00
C1071  C     0.86889   0.60426   0.80218   0.00000  Uiso   1.00
C1072  C     0.63199   0.89509   0.19734   0.00000  Uiso   1.00
C1073  C     0.89572   0.86888   0.80219   0.00000  Uiso   1.00
C1074  C     0.60492   0.63200   0.19733   0.00000  Uiso   1.00
C1075  C     0.63111   0.89573   0.80218   0.00000  Uiso   1.00
C1076  C     0.86800   0.60492   0.19734   0.00000  Uiso   1.00
C1077  C     0.85513   0.61780   0.69729   0.00000  Uiso   1.00
C1078  C     0.75000   0.50000   0.52667   0.00000  Uiso   1.00
C1079  C     0.64516   0.88208   0.30248   0.00000  Uiso   1.00
C1080  C     0.61778   0.64485   0.69728   0.00000  Uiso   1.00
C1081  C     0.88212   0.85488   0.30250   0.00000  Uiso   1.00
C1082  C     0.64486   0.88221   0.69729   0.00000  Uiso   1.00
C1083  C     0.85485   0.61791   0.30248   0.00000  Uiso   1.00
C1084  C     0.88222   0.85515   0.69728   0.00000  Uiso   1.00
C1085  C     0.61791   0.64515   0.30248   0.00000  Uiso   1.00
C1086  C     0.85429   0.88113   0.30219   0.00000  Uiso   1.00
C1087  C     0.64506   0.61798   0.69732   0.00000  Uiso   1.00
C1088  C     0.61890   0.85425   0.30217   0.00000  Uiso   1.00
C1089  C     0.75000   0.50000   0.47333   0.00000  Uiso   1.00
C1090  C     0.88200   0.64508   0.69733   0.00000  Uiso   1.00
C1091  C     0.64574   0.61890   0.30217   0.00000  Uiso   1.00
C1092  C     0.85494   0.88202   0.69732   0.00000  Uiso   1.00
C1093  C     0.88110   0.64574   0.30217   0.00000  Uiso   1.00
C1094  C     0.61799   0.85493   0.69733   0.00000  Uiso   1.00
C1095  C     0.65176   0.90214   0.25004   0.00000  Uiso   1.00
C1096  C     0.84842   0.59776   0.74988   0.00000  Uiso   1.00
C1097  C     0.90214   0.84824   0.25003   0.00000  Uiso   1.00
C1098  C     0.59776   0.65158   0.74988   0.00000  Uiso   1.00
C1099  C     0.84824   0.59786   0.25004   0.00000  Uiso   1.00
C1100  C     0.50000   0.75000   0.52667   0.00000  Uiso   1.00
C1101  C     0.65158   0.90224   0.74988   0.00000  Uiso   1.00
C1102  C     0.59786   0.65176   0.25003   0.00000  Uiso   1.00
C1103  C     0.90224   0.84842   0.74988   0.00000  Uiso   1.00
C1104  C     0.65214   0.59824   0.75003   0.00000  Uiso   1.00
C1105  C     0.84776   0.90158   0.24988   0.00000  Uiso   1.00
C1106  C     0.90176   0.65214   0.75003   0.00000  Uiso   1.00
C1107  C     0.59842   0.84776   0.24988   0.00000  Uiso   1.00
C1108  C     0.84786   0.90176   0.75003   0.00000  Uiso   1.00
C1109  C     0.65224   0.59842   0.24988   0.00000  Uiso   1.00
C1110  C     0.59824   0.84786   0.75003   0.00000  Uiso   1.00
C1111  C     0.50000   0.75000   0.47333   0.00000  Uiso   1.00
C1112  C     0.90158   0.65224   0.24988   0.00000  Uiso   1.00
C1113  C     0.59442   0.83392   0.10505   0.00000  Uiso   1.00
C1114  C     0.89759   0.66186   0.89862   0.00000  Uiso   1.00
C1115  C     0.83384   0.90547   0.10506   0.00000  Uiso   1.00
C1116  C     0.66191   0.60246   0.89861   0.00000  Uiso   1.00
C1117  C     0.90556   0.66610   0.10506   0.00000  Uiso   1.00
C1118  C     0.60243   0.83812   0.89862   0.00000  Uiso   1.00
C1119  C     0.66610   0.59445   0.10506   0.00000  Uiso   1.00
C1120  C     0.83810   0.89756   0.89862   0.00000  Uiso   1.00
C1121  C     0.54851   0.61738   0.85524   0.00000  Uiso   1.00
C1122  C     0.50000   0.75000   0.41010   0.00000  Uiso   1.00
C1123  C     0.90032   0.83879   0.09981   0.00000  Uiso   1.00
C1124  C     0.88265   0.54848   0.85516   0.00000  Uiso   1.00
C1125  C     0.66112   0.90041   0.09980   0.00000  Uiso   1.00
C1126  C     0.95149   0.88261   0.85524   0.00000  Uiso   1.00
C1127  C     0.59961   0.66113   0.09980   0.00000  Uiso   1.00
C1128  C     0.61736   0.95151   0.85519   0.00000  Uiso   1.00
C1129  C     0.83887   0.59961   0.09980   0.00000  Uiso   1.00
C1130  C     0.84446   0.58389   0.60506   0.00000  Uiso   1.00
C1131  C     0.64762   0.91184   0.39863   0.00000  Uiso   1.00
C1132  C     0.58385   0.65549   0.60506   0.00000  Uiso   1.00
H1133  H     0.57448   0.88595   0.12462   0.00000  Uiso   1.00
H1134  H     0.81637   0.92925   0.09382   0.00000  Uiso   1.00
H1135  H     0.77992   0.87881   0.32081   0.00000  Uiso   1.00
H1136  H     0.69389   0.60776   0.65166   0.00000  Uiso   1.00
H1137  H     0.66487   0.56220   0.59849   0.00000  Uiso   1.00
H1138  H     0.65305   0.60209   0.55553   0.00000  Uiso   1.00
H1139  H     0.62090   0.58353   0.60846   0.00000  Uiso   1.00
H1140  H     0.58678   0.83079   0.36831   0.00000  Uiso   1.00
H1141  H     0.62955   0.78537   0.39953   0.00000  Uiso   1.00
H1142  H     0.66225   0.80264   0.34654   0.00000  Uiso   1.00
H1143  H     0.62124   0.77988   0.32067   0.00000  Uiso   1.00
H1144  H     0.89221   0.69392   0.65171   0.00000  Uiso   1.00
H1145  H     0.81635   0.88376   0.12477   0.00000  Uiso   1.00
H1146  H     0.93775   0.66491   0.59848   0.00000  Uiso   1.00
H1147  H     0.89785   0.65312   0.55553   0.00000  Uiso   1.00
H1148  H     0.91642   0.62094   0.60842   0.00000  Uiso   1.00
H1149  H     0.66919   0.58677   0.36832   0.00000  Uiso   1.00
H1150  H     0.71461   0.62953   0.39956   0.00000  Uiso   1.00
H1151  H     0.69735   0.66224   0.34657   0.00000  Uiso   1.00
H1152  H     0.72011   0.62123   0.32070   0.00000  Uiso   1.00
H1153  H     0.80611   0.89223   0.65166   0.00000  Uiso   1.00
H1154  H     0.83511   0.93779   0.59848   0.00000  Uiso   1.00
H1155  H     0.84696   0.89790   0.55553   0.00000  Uiso   1.00
H1156  H     0.84608   0.89490   0.06312   0.00000  Uiso   1.00
H1157  H     0.87909   0.91649   0.60848   0.00000  Uiso   1.00
H1158  H     0.91323   0.66920   0.36832   0.00000  Uiso   1.00
H1159  H     0.87047   0.71461   0.39956   0.00000  Uiso   1.00
H1160  H     0.83776   0.69735   0.34657   0.00000  Uiso   1.00
H1161  H     0.87876   0.72011   0.32069   0.00000  Uiso   1.00
H1162  H     0.60778   0.80609   0.65169   0.00000  Uiso   1.00
H1163  H     0.56223   0.83510   0.59849   0.00000  Uiso   1.00
H1164  H     0.60212   0.84691   0.55553   0.00000  Uiso   1.00
H1165  H     0.58356   0.87908   0.60844   0.00000  Uiso   1.00
H1166  H     0.61632   0.57272   0.87387   0.00000  Uiso   1.00
H1167  H     0.66894   0.58314   0.93505   0.00000  Uiso   1.00
H1168  H     0.64707   0.62607   0.91814   0.00000  Uiso   1.00
H1169  H     0.68767   0.61222   0.87792   0.00000  Uiso   1.00
H1170  H     0.92551   0.61406   0.12460   0.00000  Uiso   1.00
H1171  H     0.92934   0.68356   0.09384   0.00000  Uiso   1.00
H1172  H     0.88383   0.68359   0.12472   0.00000  Uiso   1.00
H1173  H     0.57064   0.81646   0.09384   0.00000  Uiso   1.00
H1174  H     0.89501   0.65385   0.06311   0.00000  Uiso   1.00
H1175  H     0.57270   0.88370   0.87384   0.00000  Uiso   1.00
H1176  H     0.58311   0.83109   0.93504   0.00000  Uiso   1.00
H1177  H     0.62603   0.85296   0.91816   0.00000  Uiso   1.00
H1178  H     0.61219   0.81235   0.87794   0.00000  Uiso   1.00
H1179  H     0.61406   0.57450   0.12460   0.00000  Uiso   1.00
H1180  H     0.68356   0.57067   0.09383   0.00000  Uiso   1.00
H1181  H     0.68359   0.61617   0.12472   0.00000  Uiso   1.00
H1182  H     0.65385   0.60500   0.06311   0.00000  Uiso   1.00
H1183  H     0.88369   0.92729   0.87385   0.00000  Uiso   1.00
H1184  H     0.61615   0.81642   0.12471   0.00000  Uiso   1.00
H1185  H     0.83108   0.91688   0.93505   0.00000  Uiso   1.00
H1186  H     0.85294   0.87395   0.91816   0.00000  Uiso   1.00
H1187  H     0.81234   0.88780   0.87794   0.00000  Uiso   1.00
H1188  H     0.58086   0.66327   0.86834   0.00000  Uiso   1.00
H1189  H     0.53545   0.62053   0.89966   0.00000  Uiso   1.00
H1190  H     0.55268   0.58780   0.84667   0.00000  Uiso   1.00
H1191  H     0.52992   0.62880   0.82079   0.00000  Uiso   1.00
H1192  H     0.94388   0.85776   0.15165   0.00000  Uiso   1.00
H1193  H     0.91486   0.81219   0.09850   0.00000  Uiso   1.00
H1194  H     0.90303   0.85208   0.05552   0.00000  Uiso   1.00
H1195  H     0.60497   0.84617   0.06311   0.00000  Uiso   1.00
H1196  H     0.87089   0.83351   0.10848   0.00000  Uiso   1.00
H1197  H     0.83676   0.58081   0.86832   0.00000  Uiso   1.00
H1198  H     0.87952   0.53540   0.89958   0.00000  Uiso   1.00
H1199  H     0.91223   0.55265   0.84659   0.00000  Uiso   1.00
H1200  H     0.87123   0.52989   0.82071   0.00000  Uiso   1.00
H1201  H     0.64219   0.94394   0.15173   0.00000  Uiso   1.00
H1202  H     0.68772   0.91494   0.09848   0.00000  Uiso   1.00
H1203  H     0.64781   0.90316   0.05553   0.00000  Uiso   1.00
H1204  H     0.66639   0.87097   0.10839   0.00000  Uiso   1.00
H1205  H     0.91913   0.83672   0.86834   0.00000  Uiso   1.00
H1206  H     0.92732   0.61628   0.87381   0.00000  Uiso   1.00
H1207  H     0.96455   0.87946   0.89967   0.00000  Uiso   1.00
H1208  H     0.94732   0.91219   0.84668   0.00000  Uiso   1.00
H1209  H     0.97008   0.87118   0.82080   0.00000  Uiso   1.00
H1210  H     0.55607   0.64220   0.15171   0.00000  Uiso   1.00
H1211  H     0.58508   0.68774   0.09848   0.00000  Uiso   1.00
H1212  H     0.59687   0.64784   0.05553   0.00000  Uiso   1.00
H1213  H     0.62905   0.66641   0.10841   0.00000  Uiso   1.00
H1214  H     0.66325   0.91917   0.86833   0.00000  Uiso   1.00
H1215  H     0.62050   0.96458   0.89961   0.00000  Uiso   1.00
H1216  H     0.58778   0.94733   0.84662   0.00000  Uiso   1.00
H1217  H     0.91692   0.66888   0.93504   0.00000  Uiso   1.00
H1218  H     0.62878   0.97010   0.82074   0.00000  Uiso   1.00
H1219  H     0.85780   0.55607   0.15172   0.00000  Uiso   1.00
H1220  H     0.81226   0.58508   0.09848   0.00000  Uiso   1.00
H1221  H     0.85217   0.59686   0.05553   0.00000  Uiso   1.00
H1222  H     0.83359   0.62905   0.10841   0.00000  Uiso   1.00
H1223  H     0.82450   0.63593   0.62459   0.00000  Uiso   1.00
H1224  H     0.82068   0.56643   0.59383   0.00000  Uiso   1.00
H1225  H     0.86618   0.56640   0.62473   0.00000  Uiso   1.00
H1226  H     0.85501   0.59614   0.56311   0.00000  Uiso   1.00
H1227  H     0.67734   0.86626   0.37379   0.00000  Uiso   1.00
H1228  H     0.87399   0.64702   0.91816   0.00000  Uiso   1.00
H1229  H     0.66696   0.91885   0.43504   0.00000  Uiso   1.00
H1230  H     0.62402   0.89699   0.41817   0.00000  Uiso   1.00
H1231  H     0.63786   0.93761   0.37798   0.00000  Uiso   1.00
H1232  H     0.63589   0.67546   0.62454   0.00000  Uiso   1.00
H1233  H     0.56639   0.67926   0.59382   0.00000  Uiso   1.00
H1234  H     0.56636   0.63378   0.62476   0.00000  Uiso   1.00
H1235  H     0.59609   0.64492   0.56312   0.00000  Uiso   1.00
H1236  H     0.86633   0.82273   0.37388   0.00000  Uiso   1.00
H1237  H     0.91896   0.83316   0.43504   0.00000  Uiso   1.00
H1238  H     0.89708   0.87608   0.41814   0.00000  Uiso   1.00
H1239  H     0.88783   0.68763   0.87796   0.00000  Uiso   1.00
H1240  H     0.93768   0.86224   0.37791   0.00000  Uiso   1.00
H1241  H     0.67548   0.86409   0.62457   0.00000  Uiso   1.00
H1242  H     0.67930   0.93359   0.59383   0.00000  Uiso   1.00
H1243  H     0.63380   0.93361   0.62474   0.00000  Uiso   1.00
H1244  H     0.64496   0.90388   0.56311   0.00000  Uiso   1.00
H1245  H     0.82267   0.63373   0.37380   0.00000  Uiso   1.00
H1246  H     0.83307   0.58113   0.43504   0.00000  Uiso   1.00
H1247  H     0.87600   0.60299   0.41817   0.00000  Uiso   1.00
H1248  H     0.86216   0.56238   0.37796   0.00000  Uiso   1.00
H1249  H     0.86412   0.82454   0.62454   0.00000  Uiso   1.00
H1250  H     0.88587   0.92545   0.12453   0.00000  Uiso   1.00
H1251  H     0.93362   0.82075   0.59382   0.00000  Uiso   1.00
H1252  H     0.93363   0.86623   0.62476   0.00000  Uiso   1.00
H1253  H     0.90391   0.85508   0.56312   0.00000  Uiso   1.00
H1254  H     0.63373   0.67732   0.37381   0.00000  Uiso   1.00
H1255  H     0.58113   0.66693   0.43505   0.00000  Uiso   1.00
H1256  H     0.60299   0.62400   0.41816   0.00000  Uiso   1.00
H1257  H     0.56237   0.63784   0.37797   0.00000  Uiso   1.00
H1258  H     0.83087   0.91328   0.36834   0.00000  Uiso   1.00
H1259  H     0.78546   0.87054   0.39968   0.00000  Uiso   1.00
H1260  H     0.80269   0.83781   0.34670   0.00000  Uiso   1.00
N1261  N     0.58283   0.86239   0.14581   0.00000  Uiso   1.00
N1262  N     0.91638   0.86218   0.14488   0.00000  Uiso   1.00
N1263  N     0.86354   0.58304   0.85479   0.00000  Uiso   1.00
N1264  N     0.63776   0.91645   0.14493   0.00000  Uiso   1.00
N1265  N     0.91692   0.86351   0.85482   0.00000  Uiso   1.00
N1266  N     0.58357   0.63777   0.14492   0.00000  Uiso   1.00
N1267  N     0.63647   0.91695   0.85480   0.00000  Uiso   1.00
N1268  N     0.86223   0.58357   0.14492   0.00000  Uiso   1.00
N1269  N     0.83285   0.61237   0.64580   0.00000  Uiso   1.00
N1270  N     0.66600   0.88929   0.35492   0.00000  Uiso   1.00
N1271  N     0.61233   0.66711   0.64577   0.00000  Uiso   1.00
N1272  N     0.91598   0.63931   0.85493   0.00000  Uiso   1.00
N1273  N     0.88935   0.83407   0.35496   0.00000  Uiso   1.00
N1274  N     0.66713   0.88765   0.64579   0.00000  Uiso   1.00
N1275  N     0.83402   0.61070   0.35493   0.00000  Uiso   1.00
N1276  N     0.88767   0.83289   0.64577   0.00000  Uiso   1.00
N1277  N     0.61070   0.66598   0.35493   0.00000  Uiso   1.00
N1278  N     0.83308   0.88650   0.35482   0.00000  Uiso   1.00
N1279  N     0.66639   0.61219   0.64489   0.00000  Uiso   1.00
N1280  N     0.61356   0.83302   0.35477   0.00000  Uiso   1.00
N1281  N     0.88778   0.66643   0.64491   0.00000  Uiso   1.00
N1282  N     0.66697   0.61355   0.35478   0.00000  Uiso   1.00
N1283  N     0.86232   0.91710   0.14577   0.00000  Uiso   1.00
N1284  N     0.83361   0.88781   0.64489   0.00000  Uiso   1.00
N1285  N     0.88645   0.66697   0.35478   0.00000  Uiso   1.00
N1286  N     0.61221   0.83359   0.64490   0.00000  Uiso   1.00
N1287  N     0.63934   0.58406   0.85496   0.00000  Uiso   1.00
N1288  N     0.91715   0.63762   0.14581   0.00000  Uiso   1.00
N1289  N     0.58404   0.86068   0.85494   0.00000  Uiso   1.00
N1290  N     0.63763   0.58285   0.14580   0.00000  Uiso   1.00
N1291  N     0.86067   0.91595   0.85495   0.00000  Uiso   1.00
N1292  N     0.58307   0.63649   0.85481   0.00000  Uiso   1.00
O1293  O     0.50000   0.75000   0.25000   0.00000  Uiso   1.00
O1294  O     0.50000   0.78035   0.61781   0.00000  Uiso   1.00
O1295  O     0.71964   0.50000   0.38219   0.00000  Uiso   1.00
O1296  O     0.78035   0.50000   0.61781   0.00000  Uiso   1.00
O1297  O     0.75000   0.53036   0.88219   0.00000  Uiso   1.00
O1298  O     0.75000   0.96964   0.11781   0.00000  Uiso   1.00
O1299  O     0.53035   0.75000   0.88219   0.00000  Uiso   1.00
O1300  O     0.96964   0.75000   0.11781   0.00000  Uiso   1.00
O1301  O     0.75000   0.96964   0.88219   0.00000  Uiso   1.00
O1302  O     0.75000   0.53036   0.11781   0.00000  Uiso   1.00
O1303  O     0.96964   0.75000   0.88219   0.00000  Uiso   1.00
O1304  O     0.50000   0.75000   0.75000   0.00000  Uiso   1.00
O1305  O     0.53035   0.75000   0.11781   0.00000  Uiso   1.00
O1306  O     0.54267   0.67692   0.28474   0.00000  Uiso   1.00
O1307  O     0.95732   0.82307   0.71526   0.00000  Uiso   1.00
O1308  O     0.67692   0.95732   0.28474   0.00000  Uiso   1.00
O1309  O     0.82307   0.54268   0.71526   0.00000  Uiso   1.00
O1310  O     0.95732   0.82307   0.28474   0.00000  Uiso   1.00
O1311  O     0.54267   0.67692   0.71526   0.00000  Uiso   1.00
O1312  O     0.82307   0.54268   0.28474   0.00000  Uiso   1.00
O1313  O     0.67692   0.95732   0.71526   0.00000  Uiso   1.00
O1314  O     0.54267   0.82307   0.71526   0.00000  Uiso   1.00
O1315  O     0.75000   0.50000   0.25000   0.00000  Uiso   1.00
O1316  O     0.95732   0.67692   0.28474   0.00000  Uiso   1.00
O1317  O     0.67692   0.54268   0.71526   0.00000  Uiso   1.00
O1318  O     0.82307   0.95732   0.28474   0.00000  Uiso   1.00
O1319  O     0.95732   0.67692   0.71526   0.00000  Uiso   1.00
O1320  O     0.54267   0.82307   0.28474   0.00000  Uiso   1.00
O1321  O     0.82307   0.95732   0.71526   0.00000  Uiso   1.00
O1322  O     0.67692   0.54268   0.28474   0.00000  Uiso   1.00
O1323  O     0.79267   0.92692   0.78474   0.00000  Uiso   1.00
O1324  O     0.70732   0.57308   0.21526   0.00000  Uiso   1.00
O1325  O     0.92692   0.70732   0.78474   0.00000  Uiso   1.00
O1326  O     0.75000   0.50000   0.75000   0.00000  Uiso   1.00
O1327  O     0.57307   0.79267   0.21526   0.00000  Uiso   1.00
O1328  O     0.70732   0.57308   0.78474   0.00000  Uiso   1.00
O1329  O     0.79267   0.92692   0.21526   0.00000  Uiso   1.00
O1330  O     0.57307   0.79267   0.78474   0.00000  Uiso   1.00
O1331  O     0.92692   0.70732   0.21526   0.00000  Uiso   1.00
O1332  O     0.79267   0.57308   0.21526   0.00000  Uiso   1.00
O1333  O     0.70732   0.92692   0.78474   0.00000  Uiso   1.00
O1334  O     0.92692   0.79267   0.21526   0.00000  Uiso   1.00
O1335  O     0.57307   0.70732   0.78474   0.00000  Uiso   1.00
O1336  O     0.70732   0.92692   0.21526   0.00000  Uiso   1.00
O1337  O     0.50000   0.78035   0.38219   0.00000  Uiso   1.00
O1338  O     0.79267   0.57308   0.78474   0.00000  Uiso   1.00
O1339  O     0.57307   0.70732   0.21526   0.00000  Uiso   1.00
O1340  O     0.92692   0.79267   0.78474   0.00000  Uiso   1.00
O1341  O     0.50000   0.71964   0.61781   0.00000  Uiso   1.00
O1342  O     0.78035   0.50000   0.38219   0.00000  Uiso   1.00
O1343  O     0.71964   0.50000   0.61781   0.00000  Uiso   1.00
O1344  O     0.50000   0.71964   0.38219   0.00000  Uiso   1.00
Zn1345 Zn    0.54333   0.75000   0.20067   0.00000  Uiso   1.00
Zn1346 Zn    0.70667   0.50000   0.29933   0.00000  Uiso   1.00
Zn1347 Zn    0.50000   0.70667   0.70067   0.00000  Uiso   1.00
Zn1348 Zn    0.50000   0.79333   0.29933   0.00000  Uiso   1.00
Zn1349 Zn    0.70667   0.50000   0.70067   0.00000  Uiso   1.00
Zn1350 Zn    0.79333   0.50000   0.29933   0.00000  Uiso   1.00
Zn1351 Zn    0.50000   0.79333   0.70067   0.00000  Uiso   1.00
Zn1352 Zn    0.50000   0.70667   0.29933   0.00000  Uiso   1.00
Zn1353 Zn    0.95667   0.75000   0.79933   0.00000  Uiso   1.00
Zn1354 Zn    0.75000   0.95667   0.20067   0.00000  Uiso   1.00
Zn1355 Zn    0.75000   0.54333   0.79933   0.00000  Uiso   1.00
Zn1356 Zn    0.95667   0.75000   0.20067   0.00000  Uiso   1.00
Zn1357 Zn    0.54333   0.75000   0.79933   0.00000  Uiso   1.00
Zn1358 Zn    0.75000   0.54333   0.20067   0.00000  Uiso   1.00
Zn1359 Zn    0.75000   0.95667   0.79933   0.00000  Uiso   1.00
Zn1360 Zn    0.79333   0.50000   0.70067   0.00000  Uiso   1.00
loop_
_geom_bond_atom_site_label_1
_geom_bond_atom_site_label_2
_geom_bond_distance
_geom_bond_site_symmetry_2
_ccdc_geom_bond_type
C1     C21     1.417   .     S
C1     C25     1.195   1_554 S
C2     O321    1.276   .     A
C2     C80     1.417   .     S
C2     O274    1.276   .     S
C3     N253    1.447   .     S
C3     H220    1.111   .     S
C3     H218    1.111   .     S
C3     H217    1.110   .     S
C4     N254    1.450   .     S
C4     H223    1.113   .     S
C4     H222    1.109   .     S
C4     H224    1.111   .     S
C5     H227    1.111   .     S
C5     N255    1.447   .     S
C5     H226    1.110   .     S
C5     H228    1.111   .     S
C6     H232    1.113   .     S
C6     N256    1.450   .     S
C6     H231    1.109   .     S
C6     H233    1.111   .     S
C7     H237    1.111   .     S
C7     N257    1.447   .     S
C7     H236    1.111   .     S
C7     H235    1.110   .     S
C8     N258    1.447   .     S
C8     H240    1.111   .     S
C8     H115    1.111   .     S
C8     H239    1.110   .     S
C9     H118    1.110   .     S
C9     N259    1.449   .     S
C9     H117    1.111   .     S
C9     H119    1.112   .     S
C10    H122    1.111   .     S
C10    H123    1.111   .     S
C10    N260    1.447   .     S
C10    H121    1.110   .     S
C11    H126    1.111   .     S
C11    H127    1.110   .     S
C11    H128    1.112   .     S
C11    N261    1.449   .     S
C12    H130    1.110   .     S
C12    N262    1.447   .     S
C12    H132    1.111   .     S
C12    H131    1.111   .     S
C13    C69     1.417   .     S
C13    O275    1.276   .     S
C13    O322    1.276   .     S
C14    H137    1.112   .     S
C14    H135    1.110   .     S
C14    H134    1.111   .     S
C14    N264    1.449   .     S
C15    H139    1.110   .     S
C15    H141    1.111   .     S
C15    H140    1.111   .     S
C15    N265    1.447   .     S
C16    H144    1.110   .     S
C16    H145    1.112   .     S
C16    H143    1.111   .     S
C16    N266    1.449   .     S
C17    O323    1.276   .     A
C17    O276    1.276   .     A
C17    C58     1.417   .     S
C18    C47     1.417   .     S
C18    O277    1.276   .     A
C18    O961    1.276   1_545 S
C19    O958    1.276   1_545 A
C19    C36     1.417   .     S
C19    O282    1.276   .     S
C20    O279    1.276   .     A
C20    C25     1.417   .     S
C20    O623    1.276   1_455 S
C21    O620    1.276   1_455 A
C21    O285    1.276   .     S
C22    C82     1.453   .     S
C22    O286    1.272   .     A
C22    O319    1.274   .     A
C23    C83     1.454   .     S
C23    O287    1.272   .     A
C23    O320    1.275   .     A
C24    C75     1.453   .     S
C24    O316    1.274   .     A
C24    O288    1.272   .     A
C25    C1      1.195   1_556 S
C26    O318    1.275   .     A
C26    O289    1.272   .     A
C26    C76     1.454   .     S
C27    O314    1.274   .     A
C27    O290    1.272   .     A
C27    C77     1.453   .     S
C28    O291    1.272   .     A
C28    O315    1.275   .     A
C28    C78     1.454   .     S
C29    O292    1.272   .     A
C29    C79     1.453   .     S
C29    O312    1.274   .     A
C30    O313    1.275   .     A
C30    O293    1.272   .     A
C30    C81     1.454   .     S
C31    C90     1.453   .     S
C31    O294    1.274   .     A
C31    O310    1.272   .     A
C32    C92     1.454   .     S
C32    O296    1.275   .     A
C32    O311    1.272   .     A
C33    O297    1.274   .     A
C33    O308    1.272   .     A
C33    C84     1.453   .     S
C34    O309    1.272   .     A
C34    C85     1.454   .     S
C34    O298    1.275   .     A
C35    C86     1.453   .     S
C35    O305    1.272   .     A
C35    O299    1.274   .     A
C36    C47     1.195   1_554 S
C37    O307    1.272   .     A
C37    C87     1.454   .     S
C37    O300    1.275   .     A
C38    C88     1.453   .     S
C38    O303    1.272   .     A
C38    O301    1.274   .     A
C39    O302    1.275   .     A
C39    O304    1.272   .     A
C39    C89     1.454   .     S
C40    C52     1.402   .     A
C40    N241    1.427   .     S
C40    C87     1.410   .     A
C41    C51     1.401   .     A
C41    C86     1.407   .     A
C41    N252    1.426   .     S
C42    N263    1.427   .     S
C42    C50     1.402   .     A
C42    C85     1.410   .     A
C43    N267    1.426   .     S
C43    C84     1.407   .     A
C43    C49     1.401   .     A
C44    C92     1.410   .     A
C44    C56     1.402   .     A
C44    N268    1.427   .     S
C45    C90     1.407   .     A
C45    C55     1.401   .     A
C45    N269    1.426   .     S
C46    C89     1.410   .     A
C46    C54     1.402   .     A
C46    N270    1.427   .     S
C47    C36     1.195   1_556 S
C48    N271    1.426   .     S
C48    C53     1.401   .     A
C48    C88     1.407   .     A
C49    C78     1.411   .     A
C49    N272    1.426   .     S
C50    C77     1.409   .     A
C50    N242    1.427   .     S
C51    C76     1.411   .     A
C51    N243    1.426   .     S
C52    C75     1.409   .     A
C52    N244    1.427   .     S
C53    C83     1.411   .     A
C53    N245    1.426   .     S
C54    C82     1.409   .     A
C54    N246    1.427   .     S
C55    C81     1.411   .     A
C55    N247    1.426   .     S
C56    N248    1.427   .     S
C56    C79     1.409   .     A
C57    C76     1.410   .     A
C57    N249    1.427   .     S
C57    C70     1.402   .     A
C58    C69     1.195   .     T
C59    N250    1.426   .     S
C59    C75     1.407   .     A
C59    C68     1.401   .     A
C60    C78     1.410   .     A
C60    C67     1.402   .     A
C60    N251    1.427   .     S
C61    N253    1.426   .     S
C61    C77     1.407   .     A
C61    C66     1.401   .     A
C62    C81     1.410   .     A
C62    C74     1.402   .     A
C62    N254    1.427   .     S
C63    C73     1.401   .     A
C63    C79     1.407   .     A
C63    N255    1.426   .     S
C64    C83     1.410   .     A
C64    C72     1.402   .     A
C64    N256    1.427   .     S
C65    N257    1.426   .     S
C65    C71     1.401   .     A
C65    C82     1.407   .     A
C66    C85     1.411   .     A
C66    N258    1.426   .     S
C67    N259    1.427   .     S
C67    C84     1.409   .     A
C68    N260    1.426   .     S
C68    C87     1.411   .     A
C70    N261    1.427   .     S
C70    C86     1.409   .     A
C71    N262    1.426   .     S
C71    C89     1.411   .     A
C72    N264    1.427   .     S
C72    C88     1.409   .     A
C73    C92     1.411   .     A
C73    N265    1.426   .     S
C74    C90     1.409   .     A
C74    N266    1.427   .     S
C80    C91     1.195   .     T
C91    C102    1.417   .     S
C93    H153    1.109   .     S
C93    H175    1.111   .     S
C93    N241    1.450   .     S
C93    H164    1.113   .     S
C94    H208    1.111   .     S
C94    N252    1.447   .     S
C94    H219    1.111   .     S
C94    H197    1.110   .     S
C95    N263    1.450   .     S
C95    H136    1.111   .     S
C95    H114    1.109   .     S
C95    H125    1.113   .     S
C96    H147    1.110   .     S
C96    H148    1.111   .     S
C96    H149    1.111   .     S
C96    N267    1.447   .     S
C97    H154    1.111   .     S
C97    H152    1.113   .     S
C97    H151    1.109   .     S
C97    N268    1.450   .     S
C98    H156    1.110   .     S
C98    N269    1.447   .     S
C98    H158    1.111   .     S
C98    H157    1.111   .     S
C99    H162    1.111   .     S
C99    N270    1.450   .     S
C99    H161    1.113   .     S
C99    H160    1.109   .     S
C100   N271    1.447   .     S
C100   H167    1.111   .     S
C100   H166    1.111   .     S
C100   H165    1.110   .     S
C101   N272    1.447   .     S
C101   H170    1.111   .     S
C101   H171    1.111   .     S
C101   H169    1.110   .     S
C102   O317    1.276   .     S
C102   O324    1.276   .     S
C103   H176    1.112   .     S
C103   H174    1.110   .     S
C103   N242    1.449   .     S
C103   H173    1.111   .     S
C104   N243    1.447   .     S
C104   H179    1.111   .     S
C104   H178    1.110   .     S
C104   H180    1.111   .     S
C105   H182    1.111   .     S
C105   H184    1.112   .     S
C105   H183    1.110   .     S
C105   N244    1.449   .     S
C106   N245    1.447   .     S
C106   H187    1.110   .     S
C106   H188    1.111   .     S
C106   H189    1.111   .     S
C107   H192    1.110   .     S
C107   H191    1.111   .     S
C107   N246    1.449   .     S
C107   H193    1.112   .     S
C108   H196    1.111   .     S
C108   H198    1.111   .     S
C108   N247    1.447   .     S
C108   H195    1.110   .     S
C109   H202    1.112   .     S
C109   N248    1.449   .     S
C109   H201    1.110   .     S
C109   H200    1.111   .     S
C110   H204    1.109   .     S
C110   N249    1.450   .     S
C110   H205    1.113   .     S
C110   H206    1.111   .     S
C111   H210    1.111   .     S
C111   N250    1.447   .     S
C111   H211    1.111   .     S
C111   H209    1.110   .     S
C112   H215    1.111   .     S
C112   H214    1.113   .     S
C112   N251    1.450   .     S
C112   H213    1.109   .     S
H113   N241    1.032   .     S
H116   N259    1.031   .     S
H120   N260    1.030   .     S
H124   N261    1.031   .     S
H129   N262    1.030   .     S
H133   N264    1.031   .     S
H138   N265    1.030   .     S
H142   N266    1.031   .     S
H146   N267    1.031   .     S
H150   N268    1.032   .     S
H155   N269    1.031   .     S
H159   N270    1.032   .     S
H163   N271    1.031   .     S
H168   N272    1.030   .     S
H172   N242    1.031   .     S
H177   N243    1.030   .     S
H181   N244    1.031   .     S
H185   N245    1.030   .     S
H186   N252    1.031   .     S
H190   N246    1.031   .     S
H194   N247    1.030   .     S
H199   N248    1.031   .     S
H203   N249    1.032   .     S
H207   N250    1.031   .     S
H212   N251    1.032   .     S
H216   N253    1.031   .     S
H221   N254    1.032   .     S
H225   N255    1.031   .     S
H229   N256    1.032   .     S
H230   N263    1.032   .     S
H234   N257    1.031   .     S
H238   N258    1.030   .     S
O273   Zn332   1.934   .     S
O273   Zn328   1.934   .     S
O273   Zn676   1.934   1_455 S
O273   Zn325   1.934   .     S
O274   Zn331   1.916   .     S
O275   Zn326   1.916   .     S
O276   Zn340   1.916   .     S
O277   Zn335   1.916   .     S
O278   Zn334   1.916   .     S
O278   C699    1.276   .     A
O279   Zn337   1.916   .     S
O280   Zn336   1.916   .     S
O280   C361    1.276   .     A
O281   Zn339   1.916   .     S
O281   C698    1.276   .     S
O282   Zn338   1.916   .     S
O283   Zn333   1.916   .     S
O283   C360    1.276   .     S
O284   Zn337   1.934   .     S
O284   Zn331   1.934   .     S
O284   Zn327   1.934   .     S
O284   Zn673   1.934   1_455 S
O285   Zn325   1.916   .     S
O286   Zn332   1.933   .     S
O287   Zn671   1.933   .     S
O288   Zn1006  1.933   .     S
O289   Zn340   1.933   .     S
O290   Zn668   1.933   .     S
O291   Zn327   1.933   .     S
O292   Zn330   1.933   .     S
O293   Zn1009  1.933   .     S
O294   Zn331   1.933   .     S
O295   Zn330   1.934   .     S
O295   Zn326   1.934   .     S
O295   Zn338   1.934   .     S
O295   Zn1014  1.934   1_545 S
O296   Zn672   1.933   .     S
O297   Zn329   1.933   .     S
O298   Zn1010  1.933   .     S
O299   Zn667   1.933   .     S
O300   Zn328   1.933   .     S
O301   Zn1020  1.933   .     S
O302   Zn326   1.933   .     S
O303   Zn339   1.933   .     S
O304   Zn338   1.933   .     S
O305   Zn333   1.933   .     S
O306   Zn340   1.934   .     S
O306   Zn329   1.934   .     S
O306   Zn335   1.934   .     S
O306   Zn1019  1.934   1_545 S
O307   Zn325   1.933   .     S
O308   Zn335   1.933   .     S
O309   Zn334   1.933   .     S
O310   Zn337   1.933   .     S
O311   Zn336   1.933   .     S
O312   Zn338   1.933   .     S
O313   Zn339   1.933   .     S
O314   Zn336   1.933   .     S
O315   Zn337   1.933   .     S
O316   Zn334   1.933   .     S
O317   Zn328   1.916   .     S
O318   Zn335   1.933   .     S
O319   Zn325   1.933   .     S
O320   Zn333   1.933   .     S
O321   Zn327   1.916   .     S
O322   Zn330   1.916   .     S
O323   Zn329   1.916   .     S
O324   Zn332   1.916   .     S
Zn326  O968    1.933   1_545 S
Zn327  O639    1.933   1_455 S
Zn328  O630    1.933   1_455 S
Zn329  O973    1.933   1_545 S
Zn330  O978    1.933   1_545 S
Zn331  O627    1.933   1_455 S
Zn332  O636    1.933   1_455 S
Zn333  O624    1.934   .     S
Zn334  O975    1.934   .     S
Zn336  O613    1.934   .     S
Zn339  O986    1.934   .     S
Zn340  O981    1.933   1_545 S
C341   C361    1.417   .     S
C341   C365    1.195   1_554 S
C342   O661    1.276   .     A
C342   C420    1.417   .     S
C342   O614    1.276   .     S
C343   N593    1.447   .     S
C343   H560    1.111   .     S
C343   H558    1.111   .     S
C343   H557    1.110   .     S
C344   N594    1.450   .     S
C344   H563    1.113   .     S
C344   H562    1.109   .     S
C344   H564    1.111   .     S
C345   H567    1.111   .     S
C345   N595    1.447   .     S
C345   H566    1.110   .     S
C345   H568    1.111   .     S
C346   H572    1.113   .     S
C346   N596    1.450   .     S
C346   H571    1.109   .     S
C346   H573    1.111   .     S
C347   H577    1.111   .     S
C347   N597    1.447   .     S
C347   H576    1.111   .     S
C347   H575    1.110   .     S
C348   N598    1.447   .     S
C348   H580    1.111   .     S
C348   H455    1.111   .     S
C348   H579    1.110   .     S
C349   H458    1.110   .     S
C349   N599    1.449   .     S
C349   H457    1.111   .     S
C349   H459    1.112   .     S
C350   H462    1.111   .     S
C350   H463    1.111   .     S
C350   N600    1.447   .     S
C350   H461    1.110   .     S
C351   H466    1.111   .     S
C351   H467    1.110   .     S
C351   H468    1.112   .     S
C351   N601    1.449   .     S
C352   H470    1.110   .     S
C352   N602    1.447   .     S
C352   H472    1.111   .     S
C352   H471    1.111   .     S
C353   C409    1.417   .     S
C353   O615    1.276   .     S
C353   O662    1.276   .     S
C354   H477    1.112   .     S
C354   H475    1.110   .     S
C354   H474    1.111   .     S
C354   N604    1.449   .     S
C355   H479    1.110   .     S
C355   H481    1.111   .     S
C355   H480    1.111   .     S
C355   N605    1.447   .     S
C356   H484    1.110   .     S
C356   H485    1.112   .     S
C356   H483    1.111   .     S
C356   N606    1.449   .     S
C357   O663    1.276   .     A
C357   O616    1.276   .     A
C357   C398    1.417   .     S
C358   C387    1.417   .     S
C358   O617    1.276   .     A
C358   O1301   1.276   1_545 S
C359   O1298   1.276   1_545 A
C359   C376    1.417   .     S
C359   O622    1.276   .     S
C360   O619    1.276   .     A
C360   C365    1.417   .     S
C361   O625    1.276   .     S
C362   C422    1.453   .     S
C362   O626    1.272   .     A
C362   O659    1.274   .     A
C363   C423    1.454   .     S
C363   O627    1.272   .     A
C363   O660    1.275   .     A
C364   C415    1.453   .     S
C364   O656    1.274   .     A
C364   O628    1.272   .     A
C365   C341    1.195   1_556 S
C366   O658    1.275   .     A
C366   O629    1.272   .     A
C366   C416    1.454   .     S
C367   O654    1.274   .     A
C367   O630    1.272   .     A
C367   C417    1.453   .     S
C368   O631    1.272   .     A
C368   O655    1.275   .     A
C368   C418    1.454   .     S
C369   O632    1.272   .     A
C369   C419    1.453   .     S
C369   O652    1.274   .     A
C370   O653    1.275   .     A
C370   O633    1.272   .     A
C370   C421    1.454   .     S
C371   C430    1.453   .     S
C371   O634    1.274   .     A
C371   O650    1.272   .     A
C372   C432    1.454   .     S
C372   O636    1.275   .     A
C372   O651    1.272   .     A
C373   O637    1.274   .     A
C373   O648    1.272   .     A
C373   C424    1.453   .     S
C374   O649    1.272   .     A
C374   C425    1.454   .     S
C374   O638    1.275   .     A
C375   C426    1.453   .     S
C375   O645    1.272   .     A
C375   O639    1.274   .     A
C376   C387    1.195   1_554 S
C377   O647    1.272   .     A
C377   C427    1.454   .     S
C377   O640    1.275   .     A
C378   C428    1.453   .     S
C378   O643    1.272   .     A
C378   O641    1.274   .     A
C379   O642    1.275   .     A
C379   O644    1.272   .     A
C379   C429    1.454   .     S
C380   C392    1.402   .     A
C380   N581    1.427   .     S
C380   C427    1.410   .     A
C381   C391    1.401   .     A
C381   C426    1.407   .     A
C381   N592    1.426   .     S
C382   N603    1.427   .     S
C382   C390    1.402   .     A
C382   C425    1.410   .     A
C383   N607    1.426   .     S
C383   C424    1.407   .     A
C383   C389    1.401   .     A
C384   C432    1.410   .     A
C384   C396    1.402   .     A
C384   N608    1.427   .     S
C385   C430    1.407   .     A
C385   C395    1.401   .     A
C385   N609    1.426   .     S
C386   C429    1.410   .     A
C386   C394    1.402   .     A
C386   N610    1.427   .     S
C387   C376    1.195   1_556 S
C388   N611    1.426   .     S
C388   C393    1.401   .     A
C388   C428    1.407   .     A
C389   C418    1.411   .     A
C389   N612    1.426   .     S
C390   C417    1.409   .     A
C390   N582    1.427   .     S
C391   C416    1.411   .     A
C391   N583    1.426   .     S
C392   C415    1.409   .     A
C392   N584    1.427   .     S
C393   C423    1.411   .     A
C393   N585    1.426   .     S
C394   C422    1.409   .     A
C394   N586    1.427   .     S
C395   C421    1.411   .     A
C395   N587    1.426   .     S
C396   N588    1.427   .     S
C396   C419    1.409   .     A
C397   C416    1.410   .     A
C397   N589    1.427   .     S
C397   C410    1.402   .     A
C398   C409    1.195   .     T
C399   N590    1.426   .     S
C399   C415    1.407   .     A
C399   C408    1.401   .     A
C400   C418    1.410   .     A
C400   C407    1.402   .     A
C400   N591    1.427   .     S
C401   N593    1.426   .     S
C401   C417    1.407   .     A
C401   C406    1.401   .     A
C402   C421    1.410   .     A
C402   C414    1.402   .     A
C402   N594    1.427   .     S
C403   C413    1.401   .     A
C403   C419    1.407   .     A
C403   N595    1.426   .     S
C404   C423    1.410   .     A
C404   C412    1.402   .     A
C404   N596    1.427   .     S
C405   N597    1.426   .     S
C405   C411    1.401   .     A
C405   C422    1.407   .     A
C406   C425    1.411   .     A
C406   N598    1.426   .     S
C407   N599    1.427   .     S
C407   C424    1.409   .     A
C408   N600    1.426   .     S
C408   C427    1.411   .     A
C410   N601    1.427   .     S
C410   C426    1.409   .     A
C411   N602    1.426   .     S
C411   C429    1.411   .     A
C412   N604    1.427   .     S
C412   C428    1.409   .     A
C413   C432    1.411   .     A
C413   N605    1.426   .     S
C414   C430    1.409   .     A
C414   N606    1.427   .     S
C420   C431    1.195   .     T
C431   C442    1.417   .     S
C433   H493    1.109   .     S
C433   H515    1.111   .     S
C433   N581    1.450   .     S
C433   H504    1.113   .     S
C434   H548    1.111   .     S
C434   N592    1.447   .     S
C434   H559    1.111   .     S
C434   H537    1.110   .     S
C435   N603    1.450   .     S
C435   H476    1.111   .     S
C435   H454    1.109   .     S
C435   H465    1.113   .     S
C436   H487    1.110   .     S
C436   H488    1.111   .     S
C436   H489    1.111   .     S
C436   N607    1.447   .     S
C437   H494    1.111   .     S
C437   H492    1.113   .     S
C437   H491    1.109   .     S
C437   N608    1.450   .     S
C438   H496    1.110   .     S
C438   N609    1.447   .     S
C438   H498    1.111   .     S
C438   H497    1.111   .     S
C439   H502    1.111   .     S
C439   N610    1.450   .     S
C439   H501    1.113   .     S
C439   H500    1.109   .     S
C440   N611    1.447   .     S
C440   H507    1.111   .     S
C440   H506    1.111   .     S
C440   H505    1.110   .     S
C441   N612    1.447   .     S
C441   H510    1.111   .     S
C441   H511    1.111   .     S
C441   H509    1.110   .     S
C442   O657    1.276   .     S
C442   O664    1.276   .     S
C443   H516    1.112   .     S
C443   H514    1.110   .     S
C443   N582    1.449   .     S
C443   H513    1.111   .     S
C444   N583    1.447   .     S
C444   H519    1.111   .     S
C444   H518    1.110   .     S
C444   H520    1.111   .     S
C445   H522    1.111   .     S
C445   H524    1.112   .     S
C445   H523    1.110   .     S
C445   N584    1.449   .     S
C446   N585    1.447   .     S
C446   H527    1.110   .     S
C446   H528    1.111   .     S
C446   H529    1.111   .     S
C447   H532    1.110   .     S
C447   H531    1.111   .     S
C447   N586    1.449   .     S
C447   H533    1.112   .     S
C448   H536    1.111   .     S
C448   H538    1.111   .     S
C448   N587    1.447   .     S
C448   H535    1.110   .     S
C449   H542    1.112   .     S
C449   N588    1.449   .     S
C449   H541    1.110   .     S
C449   H540    1.111   .     S
C450   H544    1.109   .     S
C450   N589    1.450   .     S
C450   H545    1.113   .     S
C450   H546    1.111   .     S
C451   H550    1.111   .     S
C451   N590    1.447   .     S
C451   H551    1.111   .     S
C451   H549    1.110   .     S
C452   H555    1.111   .     S
C452   H554    1.113   .     S
C452   N591    1.450   .     S
C452   H553    1.109   .     S
H453   N581    1.032   .     S
H456   N599    1.031   .     S
H460   N600    1.030   .     S
H464   N601    1.031   .     S
H469   N602    1.030   .     S
H473   N604    1.031   .     S
H478   N605    1.030   .     S
H482   N606    1.031   .     S
H486   N607    1.031   .     S
H490   N608    1.032   .     S
H495   N609    1.031   .     S
H499   N610    1.032   .     S
H503   N611    1.031   .     S
H508   N612    1.030   .     S
H512   N582    1.031   .     S
H517   N583    1.030   .     S
H521   N584    1.031   .     S
H525   N585    1.030   .     S
H526   N592    1.031   .     S
H530   N586    1.031   .     S
H534   N587    1.030   .     S
H539   N588    1.031   .     S
H543   N589    1.032   .     S
H547   N590    1.031   .     S
H552   N591    1.032   .     S
H556   N593    1.031   .     S
H561   N594    1.032   .     S
H565   N595    1.031   .     S
H569   N596    1.032   .     S
H570   N603    1.032   .     S
H574   N597    1.031   .     S
H578   N598    1.030   .     S
O613   Zn672   1.934   .     S
O613   Zn668   1.934   .     S
O613   Zn665   1.934   .     S
O614   Zn671   1.916   .     S
O615   Zn666   1.916   .     S
O616   Zn680   1.916   .     S
O617   Zn675   1.916   .     S
O618   Zn674   1.916   .     S
O618   C1039   1.276   .     A
O619   Zn677   1.916   .     S
O620   Zn676   1.916   .     S
O620   C21     1.276   1_655 A
O621   Zn679   1.916   .     S
O621   C1038   1.276   .     S
O622   Zn678   1.916   .     S
O623   Zn673   1.916   .     S
O623   C20     1.276   1_655 S
O624   Zn677   1.934   .     S
O624   Zn671   1.934   .     S
O624   Zn667   1.934   .     S
O625   Zn665   1.916   .     S
O626   Zn672   1.933   .     S
O627   Zn331   1.933   1_655 S
O628   Zn1346  1.933   .     S
O629   Zn680   1.933   .     S
O630   Zn328   1.933   1_655 S
O631   Zn667   1.933   .     S
O632   Zn670   1.933   .     S
O633   Zn1349  1.933   .     S
O634   Zn671   1.933   .     S
O635   Zn670   1.934   .     S
O635   Zn666   1.934   .     S
O635   Zn678   1.934   .     S
O635   Zn1354  1.934   1_545 S
O636   Zn332   1.933   1_655 S
O637   Zn669   1.933   .     S
O638   Zn1350  1.933   .     S
O639   Zn327   1.933   1_655 S
O640   Zn668   1.933   .     S
O641   Zn1360  1.933   .     S
O642   Zn666   1.933   .     S
O643   Zn679   1.933   .     S
O644   Zn678   1.933   .     S
O645   Zn673   1.933   .     S
O646   Zn680   1.934   .     S
O646   Zn669   1.934   .     S
O646   Zn675   1.934   .     S
O646   Zn1359  1.934   1_545 S
O647   Zn665   1.933   .     S
O648   Zn675   1.933   .     S
O649   Zn674   1.933   .     S
O650   Zn677   1.933   .     S
O651   Zn676   1.933   .     S
O652   Zn678   1.933   .     S
O653   Zn679   1.933   .     S
O654   Zn676   1.933   .     S
O655   Zn677   1.933   .     S
O656   Zn674   1.933   .     S
O657   Zn668   1.916   .     S
O658   Zn675   1.933   .     S
O659   Zn665   1.933   .     S
O660   Zn673   1.933   .     S
O661   Zn667   1.916   .     S
O662   Zn670   1.916   .     S
O663   Zn669   1.916   .     S
O664   Zn672   1.916   .     S
Zn666  O1308   1.933   1_545 S
Zn669  O1313   1.933   1_545 S
Zn670  O1318   1.933   1_545 S
Zn673  O284    1.934   1_655 S
Zn674  O1315   1.934   .     S
Zn676  O273    1.934   1_655 S
Zn679  O1326   1.934   .     S
Zn680  O1321   1.933   1_545 S
C681   C701    1.417   .     S
C681   C705    1.195   1_554 S
C682   O1001   1.276   .     A
C682   C760    1.417   .     S
C682   O954    1.276   .     S
C683   N933    1.447   .     S
C683   H900    1.111   .     S
C683   H898    1.111   .     S
C683   H897    1.110   .     S
C684   N934    1.450   .     S
C684   H903    1.113   .     S
C684   H902    1.109   .     S
C684   H904    1.111   .     S
C685   H907    1.111   .     S
C685   N935    1.447   .     S
C685   H906    1.110   .     S
C685   H908    1.111   .     S
C686   H912    1.113   .     S
C686   N936    1.450   .     S
C686   H911    1.109   .     S
C686   H913    1.111   .     S
C687   H917    1.111   .     S
C687   N937    1.447   .     S
C687   H916    1.111   .     S
C687   H915    1.110   .     S
C688   N938    1.447   .     S
C688   H920    1.111   .     S
C688   H795    1.111   .     S
C688   H919    1.110   .     S
C689   H798    1.110   .     S
C689   N939    1.449   .     S
C689   H797    1.111   .     S
C689   H799    1.112   .     S
C690   H802    1.111   .     S
C690   H803    1.111   .     S
C690   N940    1.447   .     S
C690   H801    1.110   .     S
C691   H806    1.111   .     S
C691   H807    1.110   .     S
C691   H808    1.112   .     S
C691   N941    1.449   .     S
C692   H810    1.110   .     S
C692   N942    1.447   .     S
C692   H812    1.111   .     S
C692   H811    1.111   .     S
C693   C749    1.417   .     S
C693   O955    1.276   .     S
C693   O1002   1.276   .     S
C694   H817    1.112   .     S
C694   H815    1.110   .     S
C694   H814    1.111   .     S
C694   N944    1.449   .     S
C695   H819    1.110   .     S
C695   H821    1.111   .     S
C695   H820    1.111   .     S
C695   N945    1.447   .     S
C696   H824    1.110   .     S
C696   H825    1.112   .     S
C696   H823    1.111   .     S
C696   N946    1.449   .     S
C697   O1003   1.276   .     A
C697   O956    1.276   .     A
C697   C738    1.417   .     S
C698   C727    1.417   .     S
C698   O957    1.276   .     A
C699   C716    1.417   .     S
C699   O962    1.276   .     S
C700   O959    1.276   .     A
C700   C705    1.417   .     S
C700   O1303   1.276   1_455 S
C701   O1300   1.276   1_455 A
C701   O965    1.276   .     S
C702   C762    1.453   .     S
C702   O966    1.272   .     A
C702   O999    1.274   .     A
C703   C763    1.454   .     S
C703   O967    1.272   .     A
C703   O1000   1.275   .     A
C704   C755    1.453   .     S
C704   O996    1.274   .     A
C704   O968    1.272   .     A
C705   C681    1.195   1_556 S
C706   O998    1.275   .     A
C706   O969    1.272   .     A
C706   C756    1.454   .     S
C707   O994    1.274   .     A
C707   O970    1.272   .     A
C707   C757    1.453   .     S
C708   O971    1.272   .     A
C708   O995    1.275   .     A
C708   C758    1.454   .     S
C709   O972    1.272   .     A
C709   C759    1.453   .     S
C709   O992    1.274   .     A
C710   O993    1.275   .     A
C710   O973    1.272   .     A
C710   C761    1.454   .     S
C711   C770    1.453   .     S
C711   O974    1.274   .     A
C711   O990    1.272   .     A
C712   C772    1.454   .     S
C712   O976    1.275   .     A
C712   O991    1.272   .     A
C713   O977    1.274   .     A
C713   O988    1.272   .     A
C713   C764    1.453   .     S
C714   O989    1.272   .     A
C714   C765    1.454   .     S
C714   O978    1.275   .     A
C715   C766    1.453   .     S
C715   O985    1.272   .     A
C715   O979    1.274   .     A
C716   C727    1.195   1_554 S
C717   O987    1.272   .     A
C717   C767    1.454   .     S
C717   O980    1.275   .     A
C718   C768    1.453   .     S
C718   O983    1.272   .     A
C718   O981    1.274   .     A
C719   O982    1.275   .     A
C719   O984    1.272   .     A
C719   C769    1.454   .     S
C720   C732    1.402   .     A
C720   N921    1.427   .     S
C720   C767    1.410   .     A
C721   C731    1.401   .     A
C721   C766    1.407   .     A
C721   N932    1.426   .     S
C722   N943    1.427   .     S
C722   C730    1.402   .     A
C722   C765    1.410   .     A
C723   N947    1.426   .     S
C723   C764    1.407   .     A
C723   C729    1.401   .     A
C724   C772    1.410   .     A
C724   C736    1.402   .     A
C724   N948    1.427   .     S
C725   C770    1.407   .     A
C725   C735    1.401   .     A
C725   N949    1.426   .     S
C726   C769    1.410   .     A
C726   C734    1.402   .     A
C726   N950    1.427   .     S
C727   C716    1.195   1_556 S
C728   N951    1.426   .     S
C728   C733    1.401   .     A
C728   C768    1.407   .     A
C729   C758    1.411   .     A
C729   N952    1.426   .     S
C730   C757    1.409   .     A
C730   N922    1.427   .     S
C731   C756    1.411   .     A
C731   N923    1.426   .     S
C732   C755    1.409   .     A
C732   N924    1.427   .     S
C733   C763    1.411   .     A
C733   N925    1.426   .     S
C734   C762    1.409   .     A
C734   N926    1.427   .     S
C735   C761    1.411   .     A
C735   N927    1.426   .     S
C736   N928    1.427   .     S
C736   C759    1.409   .     A
C737   C756    1.410   .     A
C737   N929    1.427   .     S
C737   C750    1.402   .     A
C738   C749    1.195   .     T
C739   N930    1.426   .     S
C739   C755    1.407   .     A
C739   C748    1.401   .     A
C740   C758    1.410   .     A
C740   C747    1.402   .     A
C740   N931    1.427   .     S
C741   N933    1.426   .     S
C741   C757    1.407   .     A
C741   C746    1.401   .     A
C742   C761    1.410   .     A
C742   C754    1.402   .     A
C742   N934    1.427   .     S
C743   C753    1.401   .     A
C743   C759    1.407   .     A
C743   N935    1.426   .     S
C744   C763    1.410   .     A
C744   C752    1.402   .     A
C744   N936    1.427   .     S
C745   N937    1.426   .     S
C745   C751    1.401   .     A
C745   C762    1.407   .     A
C746   C765    1.411   .     A
C746   N938    1.426   .     S
C747   N939    1.427   .     S
C747   C764    1.409   .     A
C748   N940    1.426   .     S
C748   C767    1.411   .     A
C750   N941    1.427   .     S
C750   C766    1.409   .     A
C751   N942    1.426   .     S
C751   C769    1.411   .     A
C752   N944    1.427   .     S
C752   C768    1.409   .     A
C753   C772    1.411   .     A
C753   N945    1.426   .     S
C754   C770    1.409   .     A
C754   N946    1.427   .     S
C760   C771    1.195   .     T
C771   C782    1.417   .     S
C773   H833    1.109   .     S
C773   H855    1.111   .     S
C773   N921    1.450   .     S
C773   H844    1.113   .     S
C774   H888    1.111   .     S
C774   N932    1.447   .     S
C774   H899    1.111   .     S
C774   H877    1.110   .     S
C775   N943    1.450   .     S
C775   H816    1.111   .     S
C775   H794    1.109   .     S
C775   H805    1.113   .     S
C776   H827    1.110   .     S
C776   H828    1.111   .     S
C776   H829    1.111   .     S
C776   N947    1.447   .     S
C777   H834    1.111   .     S
C777   H832    1.113   .     S
C777   H831    1.109   .     S
C777   N948    1.450   .     S
C778   H836    1.110   .     S
C778   N949    1.447   .     S
C778   H838    1.111   .     S
C778   H837    1.111   .     S
C779   H842    1.111   .     S
C779   N950    1.450   .     S
C779   H841    1.113   .     S
C779   H840    1.109   .     S
C780   N951    1.447   .     S
C780   H847    1.111   .     S
C780   H846    1.111   .     S
C780   H845    1.110   .     S
C781   N952    1.447   .     S
C781   H850    1.111   .     S
C781   H851    1.111   .     S
C781   H849    1.110   .     S
C782   O997    1.276   .     S
C782   O1004   1.276   .     S
C783   H856    1.112   .     S
C783   H854    1.110   .     S
C783   N922    1.449   .     S
C783   H853    1.111   .     S
C784   N923    1.447   .     S
C784   H859    1.111   .     S
C784   H858    1.110   .     S
C784   H860    1.111   .     S
C785   H862    1.111   .     S
C785   H864    1.112   .     S
C785   H863    1.110   .     S
C785   N924    1.449   .     S
C786   N925    1.447   .     S
C786   H867    1.110   .     S
C786   H868    1.111   .     S
C786   H869    1.111   .     S
C787   H872    1.110   .     S
C787   H871    1.111   .     S
C787   N926    1.449   .     S
C787   H873    1.112   .     S
C788   H876    1.111   .     S
C788   H878    1.111   .     S
C788   N927    1.447   .     S
C788   H875    1.110   .     S
C789   H882    1.112   .     S
C789   N928    1.449   .     S
C789   H881    1.110   .     S
C789   H880    1.111   .     S
C790   H884    1.109   .     S
C790   N929    1.450   .     S
C790   H885    1.113   .     S
C790   H886    1.111   .     S
C791   H890    1.111   .     S
C791   N930    1.447   .     S
C791   H891    1.111   .     S
C791   H889    1.110   .     S
C792   H895    1.111   .     S
C792   H894    1.113   .     S
C792   N931    1.450   .     S
C792   H893    1.109   .     S
H793   N921    1.032   .     S
H796   N939    1.031   .     S
H800   N940    1.030   .     S
H804   N941    1.031   .     S
H809   N942    1.030   .     S
H813   N944    1.031   .     S
H818   N945    1.030   .     S
H822   N946    1.031   .     S
H826   N947    1.031   .     S
H830   N948    1.032   .     S
H835   N949    1.031   .     S
H839   N950    1.032   .     S
H843   N951    1.031   .     S
H848   N952    1.030   .     S
H852   N922    1.031   .     S
H857   N923    1.030   .     S
H861   N924    1.031   .     S
H865   N925    1.030   .     S
H866   N932    1.031   .     S
H870   N926    1.031   .     S
H874   N927    1.030   .     S
H879   N928    1.031   .     S
H883   N929    1.032   .     S
H887   N930    1.031   .     S
H892   N931    1.032   .     S
H896   N933    1.031   .     S
H901   N934    1.032   .     S
H905   N935    1.031   .     S
H909   N936    1.032   .     S
H910   N943    1.032   .     S
H914   N937    1.031   .     S
H918   N938    1.030   .     S
O953   Zn1012  1.934   .     S
O953   Zn1008  1.934   .     S
O953   Zn1356  1.934   1_455 S
O953   Zn1005  1.934   .     S
O954   Zn1011  1.916   .     S
O955   Zn1006  1.916   .     S
O956   Zn1020  1.916   .     S
O957   Zn1015  1.916   .     S
O958   Zn1014  1.916   .     S
O958   C19     1.276   1_565 A
O959   Zn1017  1.916   .     S
O960   Zn1016  1.916   .     S
O960   C1041   1.276   .     A
O961   Zn1019  1.916   .     S
O961   C18     1.276   1_565 S
O962   Zn1018  1.916   .     S
O963   Zn1013  1.916   .     S
O963   C1040   1.276   .     S
O964   Zn1017  1.934   .     S
O964   Zn1011  1.934   .     S
O964   Zn1007  1.934   .     S
O964   Zn1353  1.934   1_455 S
O965   Zn1005  1.916   .     S
O966   Zn1012  1.933   .     S
O967   Zn1351  1.933   .     S
O968   Zn326   1.933   1_565 S
O969   Zn1020  1.933   .     S
O970   Zn1348  1.933   .     S
O971   Zn1007  1.933   .     S
O972   Zn1010  1.933   .     S
O973   Zn329   1.933   1_565 S
O974   Zn1011  1.933   .     S
O975   Zn1010  1.934   .     S
O975   Zn1006  1.934   .     S
O975   Zn1018  1.934   .     S
O976   Zn1352  1.933   .     S
O977   Zn1009  1.933   .     S
O978   Zn330   1.933   1_565 S
O979   Zn1347  1.933   .     S
O980   Zn1008  1.933   .     S
O981   Zn340   1.933   1_565 S
O982   Zn1006  1.933   .     S
O983   Zn1019  1.933   .     S
O984   Zn1018  1.933   .     S
O985   Zn1013  1.933   .     S
O986   Zn1020  1.934   .     S
O986   Zn1009  1.934   .     S
O986   Zn1015  1.934   .     S
O987   Zn1005  1.933   .     S
O988   Zn1015  1.933   .     S
O989   Zn1014  1.933   .     S
O990   Zn1017  1.933   .     S
O991   Zn1016  1.933   .     S
O992   Zn1018  1.933   .     S
O993   Zn1019  1.933   .     S
O994   Zn1016  1.933   .     S
O995   Zn1017  1.933   .     S
O996   Zn1014  1.933   .     S
O997   Zn1008  1.916   .     S
O998   Zn1015  1.933   .     S
O999   Zn1005  1.933   .     S
O1000  Zn1013  1.933   .     S
O1001  Zn1007  1.916   .     S
O1002  Zn1010  1.916   .     S
O1003  Zn1009  1.916   .     S
O1004  Zn1012  1.916   .     S
Zn1007 O1319   1.933   1_455 S
Zn1008 O1310   1.933   1_455 S
Zn1011 O1307   1.933   1_455 S
Zn1012 O1316   1.933   1_455 S
Zn1013 O1304   1.934   .     S
Zn1014 O295    1.934   1_565 S
Zn1016 O1293   1.934   .     S
Zn1019 O306    1.934   1_565 S
C1021  C1041   1.417   .     S
C1021  C1045   1.195   1_554 S
C1022  O1341   1.276   .     A
C1022  C1100   1.417   .     S
C1022  O1294   1.276   .     S
C1023  N1273   1.447   .     S
C1023  H1240   1.111   .     S
C1023  H1238   1.111   .     S
C1023  H1237   1.110   .     S
C1024  N1274   1.450   .     S
C1024  H1243   1.113   .     S
C1024  H1242   1.109   .     S
C1024  H1244   1.111   .     S
C1025  H1247   1.111   .     S
C1025  N1275   1.447   .     S
C1025  H1246   1.110   .     S
C1025  H1248   1.111   .     S
C1026  H1252   1.113   .     S
C1026  N1276   1.450   .     S
C1026  H1251   1.109   .     S
C1026  H1253   1.111   .     S
C1027  H1257   1.111   .     S
C1027  N1277   1.447   .     S
C1027  H1256   1.111   .     S
C1027  H1255   1.110   .     S
C1028  N1278   1.447   .     S
C1028  H1260   1.111   .     S
C1028  H1135   1.111   .     S
C1028  H1259   1.110   .     S
C1029  H1138   1.110   .     S
C1029  N1279   1.449   .     S
C1029  H1137   1.111   .     S
C1029  H1139   1.112   .     S
C1030  H1142   1.111   .     S
C1030  H1143   1.111   .     S
C1030  N1280   1.447   .     S
C1030  H1141   1.110   .     S
C1031  H1146   1.111   .     S
C1031  H1147   1.110   .     S
C1031  H1148   1.112   .     S
C1031  N1281   1.449   .     S
C1032  H1150   1.110   .     S
C1032  N1282   1.447   .     S
C1032  H1152   1.111   .     S
C1032  H1151   1.111   .     S
C1033  C1089   1.417   .     S
C1033  O1295   1.276   .     S
C1033  O1342   1.276   .     S
C1034  H1157   1.112   .     S
C1034  H1155   1.110   .     S
C1034  H1154   1.111   .     S
C1034  N1284   1.449   .     S
C1035  H1159   1.110   .     S
C1035  H1161   1.111   .     S
C1035  H1160   1.111   .     S
C1035  N1285   1.447   .     S
C1036  H1164   1.110   .     S
C1036  H1165   1.112   .     S
C1036  H1163   1.111   .     S
C1036  N1286   1.449   .     S
C1037  O1343   1.276   .     A
C1037  O1296   1.276   .     A
C1037  C1078   1.417   .     S
C1038  C1067   1.417   .     S
C1038  O1297   1.276   .     A
C1039  C1056   1.417   .     S
C1039  O1302   1.276   .     S
C1040  O1299   1.276   .     A
C1040  C1045   1.417   .     S
C1041  O1305   1.276   .     S
C1042  C1102   1.453   .     S
C1042  O1306   1.272   .     A
C1042  O1339   1.274   .     A
C1043  C1103   1.454   .     S
C1043  O1307   1.272   .     A
C1043  O1340   1.275   .     A
C1044  C1095   1.453   .     S
C1044  O1336   1.274   .     A
C1044  O1308   1.272   .     A
C1045  C1021   1.195   1_556 S
C1046  O1338   1.275   .     A
C1046  O1309   1.272   .     A
C1046  C1096   1.454   .     S
C1047  O1334   1.274   .     A
C1047  O1310   1.272   .     A
C1047  C1097   1.453   .     S
C1048  O1311   1.272   .     A
C1048  O1335   1.275   .     A
C1048  C1098   1.454   .     S
C1049  O1312   1.272   .     A
C1049  C1099   1.453   .     S
C1049  O1332   1.274   .     A
C1050  O1333   1.275   .     A
C1050  O1313   1.272   .     A
C1050  C1101   1.454   .     S
C1051  C1110   1.453   .     S
C1051  O1314   1.274   .     A
C1051  O1330   1.272   .     A
C1052  C1112   1.454   .     S
C1052  O1316   1.275   .     A
C1052  O1331   1.272   .     A
C1053  O1317   1.274   .     A
C1053  O1328   1.272   .     A
C1053  C1104   1.453   .     S
C1054  O1329   1.272   .     A
C1054  C1105   1.454   .     S
C1054  O1318   1.275   .     A
C1055  C1106   1.453   .     S
C1055  O1325   1.272   .     A
C1055  O1319   1.274   .     A
C1056  C1067   1.195   1_554 S
C1057  O1327   1.272   .     A
C1057  C1107   1.454   .     S
C1057  O1320   1.275   .     A
C1058  C1108   1.453   .     S
C1058  O1323   1.272   .     A
C1058  O1321   1.274   .     A
C1059  O1322   1.275   .     A
C1059  O1324   1.272   .     A
C1059  C1109   1.454   .     S
C1060  C1072   1.402   .     A
C1060  N1261   1.427   .     S
C1060  C1107   1.410   .     A
C1061  C1071   1.401   .     A
C1061  C1106   1.407   .     A
C1061  N1272   1.426   .     S
C1062  N1283   1.427   .     S
C1062  C1070   1.402   .     A
C1062  C1105   1.410   .     A
C1063  N1287   1.426   .     S
C1063  C1104   1.407   .     A
C1063  C1069   1.401   .     A
C1064  C1112   1.410   .     A
C1064  C1076   1.402   .     A
C1064  N1288   1.427   .     S
C1065  C1110   1.407   .     A
C1065  C1075   1.401   .     A
C1065  N1289   1.426   .     S
C1066  C1109   1.410   .     A
C1066  C1074   1.402   .     A
C1066  N1290   1.427   .     S
C1067  C1056   1.195   1_556 S
C1068  N1291   1.426   .     S
C1068  C1073   1.401   .     A
C1068  C1108   1.407   .     A
C1069  C1098   1.411   .     A
C1069  N1292   1.426   .     S
C1070  C1097   1.409   .     A
C1070  N1262   1.427   .     S
C1071  C1096   1.411   .     A
C1071  N1263   1.426   .     S
C1072  C1095   1.409   .     A
C1072  N1264   1.427   .     S
C1073  C1103   1.411   .     A
C1073  N1265   1.426   .     S
C1074  C1102   1.409   .     A
C1074  N1266   1.427   .     S
C1075  C1101   1.411   .     A
C1075  N1267   1.426   .     S
C1076  N1268   1.427   .     S
C1076  C1099   1.409   .     A
C1077  C1096   1.410   .     A
C1077  N1269   1.427   .     S
C1077  C1090   1.402   .     A
C1078  C1089   1.195   .     T
C1079  N1270   1.426   .     S
C1079  C1095   1.407   .     A
C1079  C1088   1.401   .     A
C1080  C1098   1.410   .     A
C1080  C1087   1.402   .     A
C1080  N1271   1.427   .     S
C1081  N1273   1.426   .     S
C1081  C1097   1.407   .     A
C1081  C1086   1.401   .     A
C1082  C1101   1.410   .     A
C1082  C1094   1.402   .     A
C1082  N1274   1.427   .     S
C1083  C1093   1.401   .     A
C1083  C1099   1.407   .     A
C1083  N1275   1.426   .     S
C1084  C1103   1.410   .     A
C1084  C1092   1.402   .     A
C1084  N1276   1.427   .     S
C1085  N1277   1.426   .     S
C1085  C1091   1.401   .     A
C1085  C1102   1.407   .     A
C1086  C1105   1.411   .     A
C1086  N1278   1.426   .     S
C1087  N1279   1.427   .     S
C1087  C1104   1.409   .     A
C1088  N1280   1.426   .     S
C1088  C1107   1.411   .     A
C1090  N1281   1.427   .     S
C1090  C1106   1.409   .     A
C1091  N1282   1.426   .     S
C1091  C1109   1.411   .     A
C1092  N1284   1.427   .     S
C1092  C1108   1.409   .     A
C1093  C1112   1.411   .     A
C1093  N1285   1.426   .     S
C1094  C1110   1.409   .     A
C1094  N1286   1.427   .     S
C1100  C1111   1.195   .     T
C1111  C1122   1.417   .     S
C1113  H1173   1.109   .     S
C1113  H1195   1.111   .     S
C1113  N1261   1.450   .     S
C1113  H1184   1.113   .     S
C1114  H1228   1.111   .     S
C1114  N1272   1.447   .     S
C1114  H1239   1.111   .     S
C1114  H1217   1.110   .     S
C1115  N1283   1.450   .     S
C1115  H1156   1.111   .     S
C1115  H1134   1.109   .     S
C1115  H1145   1.113   .     S
C1116  H1167   1.110   .     S
C1116  H1168   1.111   .     S
C1116  H1169   1.111   .     S
C1116  N1287   1.447   .     S
C1117  H1174   1.111   .     S
C1117  H1172   1.113   .     S
C1117  H1171   1.109   .     S
C1117  N1288   1.450   .     S
C1118  H1176   1.110   .     S
C1118  N1289   1.447   .     S
C1118  H1178   1.111   .     S
C1118  H1177   1.111   .     S
C1119  H1182   1.111   .     S
C1119  N1290   1.450   .     S
C1119  H1181   1.113   .     S
C1119  H1180   1.109   .     S
C1120  N1291   1.447   .     S
C1120  H1187   1.111   .     S
C1120  H1186   1.111   .     S
C1120  H1185   1.110   .     S
C1121  N1292   1.447   .     S
C1121  H1190   1.111   .     S
C1121  H1191   1.111   .     S
C1121  H1189   1.110   .     S
C1122  O1337   1.276   .     S
C1122  O1344   1.276   .     S
C1123  H1196   1.112   .     S
C1123  H1194   1.110   .     S
C1123  N1262   1.449   .     S
C1123  H1193   1.111   .     S
C1124  N1263   1.447   .     S
C1124  H1199   1.111   .     S
C1124  H1198   1.110   .     S
C1124  H1200   1.111   .     S
C1125  H1202   1.111   .     S
C1125  H1204   1.112   .     S
C1125  H1203   1.110   .     S
C1125  N1264   1.449   .     S
C1126  N1265   1.447   .     S
C1126  H1207   1.110   .     S
C1126  H1208   1.111   .     S
C1126  H1209   1.111   .     S
C1127  H1212   1.110   .     S
C1127  H1211   1.111   .     S
C1127  N1266   1.449   .     S
C1127  H1213   1.112   .     S
C1128  H1216   1.111   .     S
C1128  H1218   1.111   .     S
C1128  N1267   1.447   .     S
C1128  H1215   1.110   .     S
C1129  H1222   1.112   .     S
C1129  N1268   1.449   .     S
C1129  H1221   1.110   .     S
C1129  H1220   1.111   .     S
C1130  H1224   1.109   .     S
C1130  N1269   1.450   .     S
C1130  H1225   1.113   .     S
C1130  H1226   1.111   .     S
C1131  H1230   1.111   .     S
C1131  N1270   1.447   .     S
C1131  H1231   1.111   .     S
C1131  H1229   1.110   .     S
C1132  H1235   1.111   .     S
C1132  H1234   1.113   .     S
C1132  N1271   1.450   .     S
C1132  H1233   1.109   .     S
H1133  N1261   1.032   .     S
H1136  N1279   1.031   .     S
H1140  N1280   1.030   .     S
H1144  N1281   1.031   .     S
H1149  N1282   1.030   .     S
H1153  N1284   1.031   .     S
H1158  N1285   1.030   .     S
H1162  N1286   1.031   .     S
H1166  N1287   1.031   .     S
H1170  N1288   1.032   .     S
H1175  N1289   1.031   .     S
H1179  N1290   1.032   .     S
H1183  N1291   1.031   .     S
H1188  N1292   1.030   .     S
H1192  N1262   1.031   .     S
H1197  N1263   1.030   .     S
H1201  N1264   1.031   .     S
H1205  N1265   1.030   .     S
H1206  N1272   1.031   .     S
H1210  N1266   1.031   .     S
H1214  N1267   1.030   .     S
H1219  N1268   1.031   .     S
H1223  N1269   1.032   .     S
H1227  N1270   1.031   .     S
H1232  N1271   1.032   .     S
H1236  N1273   1.031   .     S
H1241  N1274   1.032   .     S
H1245  N1275   1.031   .     S
H1249  N1276   1.032   .     S
H1250  N1283   1.032   .     S
H1254  N1277   1.031   .     S
H1258  N1278   1.030   .     S
O1293  Zn1352  1.934   .     S
O1293  Zn1348  1.934   .     S
O1293  Zn1345  1.934   .     S
O1294  Zn1351  1.916   .     S
O1295  Zn1346  1.916   .     S
O1296  Zn1360  1.916   .     S
O1297  Zn1355  1.916   .     S
O1298  Zn1354  1.916   .     S
O1298  C359    1.276   1_565 A
O1299  Zn1357  1.916   .     S
O1300  Zn1356  1.916   .     S
O1300  C701    1.276   1_655 A
O1301  Zn1359  1.916   .     S
O1301  C358    1.276   1_565 S
O1302  Zn1358  1.916   .     S
O1303  Zn1353  1.916   .     S
O1303  C700    1.276   1_655 S
O1304  Zn1357  1.934   .     S
O1304  Zn1351  1.934   .     S
O1304  Zn1347  1.934   .     S
O1305  Zn1345  1.916   .     S
O1306  Zn1352  1.933   .     S
O1307  Zn1011  1.933   1_655 S
O1308  Zn666   1.933   1_565 S
O1309  Zn1360  1.933   .     S
O1310  Zn1008  1.933   1_655 S
O1311  Zn1347  1.933   .     S
O1312  Zn1350  1.933   .     S
O1313  Zn669   1.933   1_565 S
O1314  Zn1351  1.933   .     S
O1315  Zn1350  1.934   .     S
O1315  Zn1346  1.934   .     S
O1315  Zn1358  1.934   .     S
O1316  Zn1012  1.933   1_655 S
O1317  Zn1349  1.933   .     S
O1318  Zn670   1.933   1_565 S
O1319  Zn1007  1.933   1_655 S
O1320  Zn1348  1.933   .     S
O1321  Zn680   1.933   1_565 S
O1322  Zn1346  1.933   .     S
O1323  Zn1359  1.933   .     S
O1324  Zn1358  1.933   .     S
O1325  Zn1353  1.933   .     S
O1326  Zn1360  1.934   .     S
O1326  Zn1349  1.934   .     S
O1326  Zn1355  1.934   .     S
O1327  Zn1345  1.933   .     S
O1328  Zn1355  1.933   .     S
O1329  Zn1354  1.933   .     S
O1330  Zn1357  1.933   .     S
O1331  Zn1356  1.933   .     S
O1332  Zn1358  1.933   .     S
O1333  Zn1359  1.933   .     S
O1334  Zn1356  1.933   .     S
O1335  Zn1357  1.933   .     S
O1336  Zn1354  1.933   .     S
O1337  Zn1348  1.916   .     S
O1338  Zn1355  1.933   .     S
O1339  Zn1345  1.933   .     S
O1340  Zn1353  1.933   .     S
O1341  Zn1347  1.916   .     S
O1342  Zn1350  1.916   .     S
O1343  Zn1349  1.916   .     S
O1344  Zn1352  1.916   .     S
Zn1353 O964    1.934   1_655 S
Zn1354 O635    1.934   1_565 S
Zn1356 O953    1.934   1_655 S
Zn1359 O646    1.934   1_565 S
