data_str_m1_o10_o16_pcu_sym.102
_audit_creation_date              2020-01-03
_audit_creation_method            'Materials Studio'
_symmetry_space_group_name_H-M    'P1'
_symmetry_Int_Tables_number       1
_symmetry_cell_setting            triclinic
loop_
_symmetry_equiv_pos_as_xyz
  x,y,z
_cell_length_a                    32.7849
_cell_length_b                    32.5299
_cell_length_c                    30.9032
_cell_angle_alpha                 96.7698
_cell_angle_beta                  74.6168
_cell_angle_gamma                 99.0568
loop_
_atom_site_label
_atom_site_type_symbol
_atom_site_fract_x
_atom_site_fract_y
_atom_site_fract_z
_atom_site_U_iso_or_equiv
_atom_site_adp_type
_atom_site_occupancy
C1     C     0.05305   0.15950   0.25969   0.00000  Uiso   1.00
C2     C     0.17905   0.16750   0.05609   0.00000  Uiso   1.00
C3     C     0.20286   0.10150   0.06047   0.00000  Uiso   1.00
C4     C     0.28085   0.17341   0.23961   0.00000  Uiso   1.00
C5     C     0.13611   0.19039   0.42159   0.00000  Uiso   1.00
C6     C     0.32676   0.17764   0.23676   0.00000  Uiso   1.00
C7     C     0.00820   0.15551   0.26287   0.00000  Uiso   1.00
C8     C     0.17926   0.32209   0.23251   0.00000  Uiso   1.00
C9     C     0.15325   0.01185   0.26328   0.00000  Uiso   1.00
C10    C     0.15541   0.05598   0.26090   0.00000  Uiso   1.00
C11    C     0.17618   0.27780   0.23917   0.00000  Uiso   1.00
C12    C     0.10928   0.23309   0.49163   0.00000  Uiso   1.00
C13    C     0.18527   0.14792   0.12919   0.00000  Uiso   1.00
C14    C     0.14777   0.18436   0.37130   0.00000  Uiso   1.00
C15    C     0.20152   0.08911   0.01603   0.00000  Uiso   1.00
C16    C     0.19097   0.13990   0.08069   0.00000  Uiso   1.00
C17    C     0.11812   0.22684   0.44422   0.00000  Uiso   1.00
C18    C     0.31648   0.11975   0.28814   0.00000  Uiso   1.00
C19    C     0.21060   0.00631   0.19204   0.00000  Uiso   1.00
C20    C     0.22266   0.05132   0.49309   0.00000  Uiso   1.00
C21    C     0.19172   0.01067   0.49937   0.00000  Uiso   1.00
C22    C     0.21230   0.30781   0.47023   0.00000  Uiso   1.00
C23    C     0.12393   0.20669   0.01486   0.00000  Uiso   1.00
C24    C     0.18248   0.21266   0.07174   0.00000  Uiso   1.00
C25    C     0.11040   0.25954   0.41895   0.00000  Uiso   1.00
C26    C     0.08725   0.26827   0.01813   0.00000  Uiso   1.00
C27    C     0.12822   0.09530   0.39865   0.00000  Uiso   1.00
C28    C     0.02256   0.20780   0.20554   0.00000  Uiso   1.00
C29    C     0.14722   0.17428   0.49240   0.00000  Uiso   1.00
C30    C     0.14500   0.16122   0.44771   0.00000  Uiso   1.00
C31    C     0.16911   0.15213   0.01442   0.00000  Uiso   1.00
C32    C     0.18155   0.11287   0.49397   0.00000  Uiso   1.00
C33    C     0.17110   0.09678   0.45354   0.00000  Uiso   1.00
C34    C     0.15060   0.11923   0.43176   0.00000  Uiso   1.00
H35    H     0.21399   0.08140   0.07930   0.00000  Uiso   1.00
H36    H     0.18307   0.00381   0.03532   0.00000  Uiso   1.00
H37    H     0.16189   0.01350   0.49000   0.00000  Uiso   1.00
H38    H     0.23680   0.05561   0.45676   0.00000  Uiso   1.00
H39    H     0.25007   0.04884   0.00709   0.00000  Uiso   1.00
H40    H     0.20794   0.27136   0.05703   0.00000  Uiso   1.00
H41    H     0.13392   0.31238   0.38776   0.00000  Uiso   1.00
H42    H     0.07779   0.30683   0.07508   0.00000  Uiso   1.00
H43    H     0.07860   0.08873   0.37015   0.00000  Uiso   1.00
H44    H     0.07375   0.25231   0.19406   0.00000  Uiso   1.00
H45    H     0.13149   0.33199   0.29289   0.00000  Uiso   1.00
H46    H     0.17611   0.06524   0.44012   0.00000  Uiso   1.00
H47    H     0.11526   0.21070   0.05115   0.00000  Uiso   1.00
H48    H     0.27939   0.06409   0.28689   0.00000  Uiso   1.00
H49    H     0.25011   0.05571   0.16416   0.00000  Uiso   1.00
H50    H     0.21967   0.31338   0.43402   0.00000  Uiso   1.00
H51    H     0.24223   0.30419   0.47895   0.00000  Uiso   1.00
H52    H     0.19015   0.27841   0.47584   0.00000  Uiso   1.00
O53    O     0.16667   0.16667   0.25000   0.00000  Uiso   1.00
O54    O     0.15451   0.12637   0.15458   0.00000  Uiso   1.00
O55    O     0.12940   0.20391   0.34968   0.00000  Uiso   1.00
O56    O     0.20824   0.17759   0.14606   0.00000  Uiso   1.00
O57    O     0.17451   0.15880   0.34968   0.00000  Uiso   1.00
O58    O     0.31669   0.11831   0.32744   0.00000  Uiso   1.00
O59    O     0.29484   0.08673   0.26625   0.00000  Uiso   1.00
O60    O     0.22002   0.31732   0.15712   0.00000  Uiso   1.00
O61    O     0.22968   0.04788   0.19380   0.00000  Uiso   1.00
O62    O     0.16314   0.22444   0.10964   0.00000  Uiso   1.00
O63    O     0.20774   0.24171   0.04258   0.00000  Uiso   1.00
O64    O     0.17930   0.08019   0.28213   0.00000  Uiso   1.00
O65    O     0.07588   0.25767   0.41017   0.00000  Uiso   1.00
O66    O     0.14279   0.29219   0.40507   0.00000  Uiso   1.00
O67    O     0.06248   0.28407   0.00382   0.00000  Uiso   1.00
O68    O     0.09442   0.28294   0.06025   0.00000  Uiso   1.00
O69    O     0.14174   0.06421   0.37681   0.00000  Uiso   1.00
O70    O     0.09077   0.10745   0.39360   0.00000  Uiso   1.00
O71    O     0.01631   0.21042   0.16872   0.00000  Uiso   1.00
O72    O     0.05652   0.23351   0.21828   0.00000  Uiso   1.00
O73    O     0.14632   0.26085   0.27013   0.00000  Uiso   1.00
O74    O     0.07412   0.13291   0.23413   0.00000  Uiso   1.00
O75    O     0.26693   0.19272   0.21360   0.00000  Uiso   1.00
O76    O     0.07071   0.18878   0.28213   0.00000  Uiso   1.00
O77    O     0.25491   0.15226   0.27013   0.00000  Uiso   1.00
O78    O     0.13760   0.06944   0.23413   0.00000  Uiso   1.00
O79    O     0.20345   0.25620   0.21360   0.00000  Uiso   1.00
Zn80   Zn    0.19338   0.13994   0.28734   0.00000  Uiso   1.00
Zn81   Zn    0.13379   0.12458   0.21875   0.00000  Uiso   1.00
Zn82   Zn    0.21056   0.19775   0.20657   0.00000  Uiso   1.00
Zn83   Zn    0.12893   0.20439   0.28733   0.00000  Uiso   1.00
C84    C     0.38638   0.15950   0.25969   0.00000  Uiso   1.00
C85    C     0.51238   0.16750   0.05609   0.00000  Uiso   1.00
C86    C     0.53619   0.10150   0.06047   0.00000  Uiso   1.00
C87    C     0.61419   0.17341   0.23961   0.00000  Uiso   1.00
C88    C     0.46944   0.19039   0.42159   0.00000  Uiso   1.00
C89    C     0.66009   0.17764   0.23676   0.00000  Uiso   1.00
C90    C     0.34153   0.15551   0.26287   0.00000  Uiso   1.00
C91    C     0.51259   0.32209   0.23251   0.00000  Uiso   1.00
C92    C     0.48659   0.01185   0.26328   0.00000  Uiso   1.00
C93    C     0.48875   0.05598   0.26090   0.00000  Uiso   1.00
C94    C     0.50952   0.27780   0.23917   0.00000  Uiso   1.00
C95    C     0.44261   0.23309   0.49163   0.00000  Uiso   1.00
C96    C     0.51861   0.14792   0.12919   0.00000  Uiso   1.00
C97    C     0.48110   0.18436   0.37130   0.00000  Uiso   1.00
C98    C     0.53486   0.08911   0.01603   0.00000  Uiso   1.00
C99    C     0.52431   0.13990   0.08069   0.00000  Uiso   1.00
C100   C     0.45145   0.22684   0.44422   0.00000  Uiso   1.00
C101   C     0.64981   0.11975   0.28814   0.00000  Uiso   1.00
C102   C     0.54393   0.00631   0.19204   0.00000  Uiso   1.00
C103   C     0.55599   0.05132   0.49309   0.00000  Uiso   1.00
C104   C     0.52505   0.01067   0.49937   0.00000  Uiso   1.00
C105   C     0.54563   0.30781   0.47023   0.00000  Uiso   1.00
C106   C     0.45726   0.20669   0.01486   0.00000  Uiso   1.00
C107   C     0.51581   0.21266   0.07174   0.00000  Uiso   1.00
C108   C     0.44374   0.25954   0.41895   0.00000  Uiso   1.00
C109   C     0.42058   0.26827   0.01813   0.00000  Uiso   1.00
C110   C     0.46155   0.09530   0.39865   0.00000  Uiso   1.00
C111   C     0.35589   0.20780   0.20554   0.00000  Uiso   1.00
C112   C     0.48055   0.17428   0.49240   0.00000  Uiso   1.00
C113   C     0.47834   0.16122   0.44771   0.00000  Uiso   1.00
C114   C     0.50245   0.15213   0.01442   0.00000  Uiso   1.00
C115   C     0.51488   0.11287   0.49397   0.00000  Uiso   1.00
C116   C     0.50444   0.09678   0.45354   0.00000  Uiso   1.00
C117   C     0.48394   0.11923   0.43176   0.00000  Uiso   1.00
H118   H     0.54732   0.08140   0.07930   0.00000  Uiso   1.00
H119   H     0.51641   0.00381   0.03532   0.00000  Uiso   1.00
H120   H     0.49523   0.01350   0.49000   0.00000  Uiso   1.00
H121   H     0.57013   0.05561   0.45676   0.00000  Uiso   1.00
H122   H     0.58341   0.04884   0.00709   0.00000  Uiso   1.00
H123   H     0.54128   0.27136   0.05703   0.00000  Uiso   1.00
H124   H     0.46726   0.31238   0.38776   0.00000  Uiso   1.00
H125   H     0.41113   0.30683   0.07508   0.00000  Uiso   1.00
H126   H     0.41193   0.08873   0.37015   0.00000  Uiso   1.00
H127   H     0.40708   0.25231   0.19406   0.00000  Uiso   1.00
H128   H     0.46482   0.33199   0.29289   0.00000  Uiso   1.00
H129   H     0.50944   0.06524   0.44012   0.00000  Uiso   1.00
H130   H     0.44860   0.21070   0.05115   0.00000  Uiso   1.00
H131   H     0.61272   0.06409   0.28689   0.00000  Uiso   1.00
H132   H     0.58344   0.05571   0.16416   0.00000  Uiso   1.00
H133   H     0.55301   0.31338   0.43402   0.00000  Uiso   1.00
H134   H     0.57556   0.30419   0.47895   0.00000  Uiso   1.00
H135   H     0.52349   0.27841   0.47584   0.00000  Uiso   1.00
O136   O     0.50000   0.16667   0.25000   0.00000  Uiso   1.00
O137   O     0.48784   0.12637   0.15458   0.00000  Uiso   1.00
O138   O     0.46274   0.20391   0.34968   0.00000  Uiso   1.00
O139   O     0.54157   0.17759   0.14606   0.00000  Uiso   1.00
O140   O     0.50785   0.15880   0.34968   0.00000  Uiso   1.00
O141   O     0.65002   0.11831   0.32744   0.00000  Uiso   1.00
O142   O     0.62817   0.08673   0.26625   0.00000  Uiso   1.00
O143   O     0.55335   0.31732   0.15712   0.00000  Uiso   1.00
O144   O     0.56301   0.04788   0.19380   0.00000  Uiso   1.00
O145   O     0.49648   0.22444   0.10964   0.00000  Uiso   1.00
O146   O     0.54107   0.24171   0.04258   0.00000  Uiso   1.00
O147   O     0.51264   0.08019   0.28213   0.00000  Uiso   1.00
O148   O     0.40922   0.25767   0.41017   0.00000  Uiso   1.00
O149   O     0.47612   0.29219   0.40507   0.00000  Uiso   1.00
O150   O     0.39581   0.28407   0.00382   0.00000  Uiso   1.00
O151   O     0.42775   0.28294   0.06025   0.00000  Uiso   1.00
O152   O     0.47507   0.06421   0.37681   0.00000  Uiso   1.00
O153   O     0.42411   0.10745   0.39360   0.00000  Uiso   1.00
O154   O     0.34965   0.21042   0.16872   0.00000  Uiso   1.00
O155   O     0.38986   0.23351   0.21828   0.00000  Uiso   1.00
O156   O     0.47965   0.26085   0.27013   0.00000  Uiso   1.00
O157   O     0.40745   0.13291   0.23413   0.00000  Uiso   1.00
O158   O     0.60026   0.19272   0.21360   0.00000  Uiso   1.00
O159   O     0.40405   0.18878   0.28213   0.00000  Uiso   1.00
O160   O     0.58824   0.15226   0.27013   0.00000  Uiso   1.00
O161   O     0.47093   0.06944   0.23413   0.00000  Uiso   1.00
O162   O     0.53678   0.25620   0.21360   0.00000  Uiso   1.00
Zn163  Zn    0.52672   0.13994   0.28734   0.00000  Uiso   1.00
Zn164  Zn    0.46713   0.12458   0.21875   0.00000  Uiso   1.00
Zn165  Zn    0.54389   0.19775   0.20657   0.00000  Uiso   1.00
Zn166  Zn    0.46226   0.20439   0.28733   0.00000  Uiso   1.00
C167   C     0.71971   0.15950   0.25969   0.00000  Uiso   1.00
C168   C     0.84572   0.16750   0.05609   0.00000  Uiso   1.00
C169   C     0.86952   0.10150   0.06047   0.00000  Uiso   1.00
C170   C     0.94752   0.17341   0.23961   0.00000  Uiso   1.00
C171   C     0.80278   0.19039   0.42159   0.00000  Uiso   1.00
C172   C     0.99342   0.17764   0.23676   0.00000  Uiso   1.00
C173   C     0.67487   0.15551   0.26287   0.00000  Uiso   1.00
C174   C     0.84593   0.32209   0.23251   0.00000  Uiso   1.00
C175   C     0.81992   0.01185   0.26328   0.00000  Uiso   1.00
C176   C     0.82208   0.05598   0.26090   0.00000  Uiso   1.00
C177   C     0.84285   0.27780   0.23917   0.00000  Uiso   1.00
C178   C     0.77595   0.23309   0.49163   0.00000  Uiso   1.00
C179   C     0.85194   0.14792   0.12919   0.00000  Uiso   1.00
C180   C     0.81443   0.18436   0.37130   0.00000  Uiso   1.00
C181   C     0.86819   0.08911   0.01603   0.00000  Uiso   1.00
C182   C     0.85764   0.13990   0.08069   0.00000  Uiso   1.00
C183   C     0.78478   0.22684   0.44422   0.00000  Uiso   1.00
C184   C     0.98315   0.11975   0.28814   0.00000  Uiso   1.00
C185   C     0.87727   0.00631   0.19204   0.00000  Uiso   1.00
C186   C     0.88932   0.05132   0.49309   0.00000  Uiso   1.00
C187   C     0.85839   0.01067   0.49937   0.00000  Uiso   1.00
C188   C     0.87896   0.30781   0.47023   0.00000  Uiso   1.00
C189   C     0.79059   0.20669   0.01486   0.00000  Uiso   1.00
C190   C     0.84915   0.21266   0.07174   0.00000  Uiso   1.00
C191   C     0.77707   0.25954   0.41895   0.00000  Uiso   1.00
C192   C     0.75392   0.26827   0.01813   0.00000  Uiso   1.00
C193   C     0.79489   0.09530   0.39865   0.00000  Uiso   1.00
C194   C     0.68923   0.20780   0.20554   0.00000  Uiso   1.00
C195   C     0.81389   0.17428   0.49240   0.00000  Uiso   1.00
C196   C     0.81167   0.16122   0.44771   0.00000  Uiso   1.00
C197   C     0.83578   0.15213   0.01442   0.00000  Uiso   1.00
C198   C     0.84821   0.11287   0.49397   0.00000  Uiso   1.00
C199   C     0.83777   0.09678   0.45354   0.00000  Uiso   1.00
C200   C     0.81727   0.11923   0.43176   0.00000  Uiso   1.00
H201   H     0.88065   0.08140   0.07930   0.00000  Uiso   1.00
H202   H     0.84974   0.00381   0.03532   0.00000  Uiso   1.00
H203   H     0.82856   0.01350   0.49000   0.00000  Uiso   1.00
H204   H     0.90347   0.05561   0.45676   0.00000  Uiso   1.00
H205   H     0.91674   0.04884   0.00709   0.00000  Uiso   1.00
H206   H     0.87461   0.27136   0.05703   0.00000  Uiso   1.00
H207   H     0.80059   0.31238   0.38776   0.00000  Uiso   1.00
H208   H     0.74446   0.30683   0.07508   0.00000  Uiso   1.00
H209   H     0.74526   0.08873   0.37015   0.00000  Uiso   1.00
H210   H     0.74042   0.25231   0.19406   0.00000  Uiso   1.00
H211   H     0.79815   0.33199   0.29289   0.00000  Uiso   1.00
H212   H     0.84277   0.06524   0.44012   0.00000  Uiso   1.00
H213   H     0.78193   0.21070   0.05115   0.00000  Uiso   1.00
H214   H     0.94606   0.06409   0.28689   0.00000  Uiso   1.00
H215   H     0.91677   0.05571   0.16416   0.00000  Uiso   1.00
H216   H     0.88634   0.31338   0.43402   0.00000  Uiso   1.00
H217   H     0.90890   0.30419   0.47895   0.00000  Uiso   1.00
H218   H     0.85682   0.27841   0.47584   0.00000  Uiso   1.00
O219   O     0.83333   0.16667   0.25000   0.00000  Uiso   1.00
O220   O     0.82118   0.12637   0.15458   0.00000  Uiso   1.00
O221   O     0.79607   0.20391   0.34968   0.00000  Uiso   1.00
O222   O     0.87491   0.17759   0.14606   0.00000  Uiso   1.00
O223   O     0.84118   0.15880   0.34968   0.00000  Uiso   1.00
O224   O     0.98335   0.11831   0.32744   0.00000  Uiso   1.00
O225   O     0.96151   0.08673   0.26625   0.00000  Uiso   1.00
O226   O     0.88668   0.31732   0.15712   0.00000  Uiso   1.00
O227   O     0.89634   0.04788   0.19380   0.00000  Uiso   1.00
O228   O     0.82981   0.22444   0.10964   0.00000  Uiso   1.00
O229   O     0.87441   0.24171   0.04258   0.00000  Uiso   1.00
O230   O     0.84597   0.08019   0.28213   0.00000  Uiso   1.00
O231   O     0.74255   0.25767   0.41017   0.00000  Uiso   1.00
O232   O     0.80945   0.29219   0.40507   0.00000  Uiso   1.00
O233   O     0.72915   0.28407   0.00382   0.00000  Uiso   1.00
O234   O     0.76109   0.28294   0.06025   0.00000  Uiso   1.00
O235   O     0.80840   0.06421   0.37681   0.00000  Uiso   1.00
O236   O     0.75744   0.10745   0.39360   0.00000  Uiso   1.00
O237   O     0.68298   0.21042   0.16872   0.00000  Uiso   1.00
O238   O     0.72319   0.23351   0.21828   0.00000  Uiso   1.00
O239   O     0.81298   0.26085   0.27013   0.00000  Uiso   1.00
O240   O     0.74078   0.13291   0.23413   0.00000  Uiso   1.00
O241   O     0.93360   0.19272   0.21360   0.00000  Uiso   1.00
O242   O     0.73738   0.18878   0.28213   0.00000  Uiso   1.00
O243   O     0.92158   0.15226   0.27013   0.00000  Uiso   1.00
O244   O     0.80426   0.06944   0.23413   0.00000  Uiso   1.00
O245   O     0.87012   0.25620   0.21360   0.00000  Uiso   1.00
Zn246  Zn    0.86005   0.13994   0.28734   0.00000  Uiso   1.00
Zn247  Zn    0.80046   0.12458   0.21875   0.00000  Uiso   1.00
Zn248  Zn    0.87723   0.19775   0.20657   0.00000  Uiso   1.00
Zn249  Zn    0.79560   0.20439   0.28733   0.00000  Uiso   1.00
C250   C     0.05305   0.49283   0.25969   0.00000  Uiso   1.00
C251   C     0.17905   0.50084   0.05609   0.00000  Uiso   1.00
C252   C     0.20286   0.43484   0.06047   0.00000  Uiso   1.00
C253   C     0.28085   0.50675   0.23961   0.00000  Uiso   1.00
C254   C     0.13611   0.52372   0.42159   0.00000  Uiso   1.00
C255   C     0.32676   0.51097   0.23676   0.00000  Uiso   1.00
C256   C     0.00820   0.48884   0.26287   0.00000  Uiso   1.00
C257   C     0.17926   0.65542   0.23251   0.00000  Uiso   1.00
C258   C     0.15325   0.34519   0.26328   0.00000  Uiso   1.00
C259   C     0.15541   0.38932   0.26090   0.00000  Uiso   1.00
C260   C     0.17618   0.61113   0.23917   0.00000  Uiso   1.00
C261   C     0.10928   0.56642   0.49163   0.00000  Uiso   1.00
C262   C     0.18527   0.48125   0.12919   0.00000  Uiso   1.00
C263   C     0.14777   0.51769   0.37130   0.00000  Uiso   1.00
C264   C     0.20152   0.42245   0.01603   0.00000  Uiso   1.00
C265   C     0.19097   0.47324   0.08069   0.00000  Uiso   1.00
C266   C     0.11812   0.56018   0.44422   0.00000  Uiso   1.00
C267   C     0.31648   0.45309   0.28814   0.00000  Uiso   1.00
C268   C     0.21060   0.33964   0.19204   0.00000  Uiso   1.00
C269   C     0.22266   0.38466   0.49309   0.00000  Uiso   1.00
C270   C     0.19172   0.34400   0.49937   0.00000  Uiso   1.00
C271   C     0.21230   0.64114   0.47023   0.00000  Uiso   1.00
C272   C     0.12393   0.54003   0.01486   0.00000  Uiso   1.00
C273   C     0.18248   0.54600   0.07174   0.00000  Uiso   1.00
C274   C     0.11040   0.59287   0.41895   0.00000  Uiso   1.00
C275   C     0.08725   0.60161   0.01813   0.00000  Uiso   1.00
C276   C     0.12822   0.42863   0.39865   0.00000  Uiso   1.00
C277   C     0.02256   0.54113   0.20554   0.00000  Uiso   1.00
C278   C     0.14722   0.50761   0.49240   0.00000  Uiso   1.00
C279   C     0.14500   0.49455   0.44771   0.00000  Uiso   1.00
C280   C     0.16911   0.48546   0.01442   0.00000  Uiso   1.00
C281   C     0.18155   0.44620   0.49397   0.00000  Uiso   1.00
C282   C     0.17110   0.43011   0.45354   0.00000  Uiso   1.00
C283   C     0.15060   0.45256   0.43176   0.00000  Uiso   1.00
H284   H     0.21399   0.41474   0.07930   0.00000  Uiso   1.00
H285   H     0.18307   0.33714   0.03532   0.00000  Uiso   1.00
H286   H     0.16189   0.34684   0.49000   0.00000  Uiso   1.00
H287   H     0.23680   0.38895   0.45676   0.00000  Uiso   1.00
H288   H     0.25007   0.38218   0.00709   0.00000  Uiso   1.00
H289   H     0.20794   0.60470   0.05703   0.00000  Uiso   1.00
H290   H     0.13392   0.64572   0.38776   0.00000  Uiso   1.00
H291   H     0.07779   0.64017   0.07508   0.00000  Uiso   1.00
H292   H     0.07860   0.42206   0.37015   0.00000  Uiso   1.00
H293   H     0.07375   0.58565   0.19406   0.00000  Uiso   1.00
H294   H     0.13149   0.66532   0.29289   0.00000  Uiso   1.00
H295   H     0.17611   0.39857   0.44012   0.00000  Uiso   1.00
H296   H     0.11526   0.54403   0.05115   0.00000  Uiso   1.00
H297   H     0.27939   0.39742   0.28689   0.00000  Uiso   1.00
H298   H     0.25011   0.38904   0.16416   0.00000  Uiso   1.00
H299   H     0.21967   0.64672   0.43402   0.00000  Uiso   1.00
H300   H     0.24223   0.63752   0.47895   0.00000  Uiso   1.00
H301   H     0.19015   0.61174   0.47584   0.00000  Uiso   1.00
O302   O     0.16667   0.50000   0.25000   0.00000  Uiso   1.00
O303   O     0.15451   0.45970   0.15458   0.00000  Uiso   1.00
O304   O     0.12940   0.53724   0.34968   0.00000  Uiso   1.00
O305   O     0.20824   0.51092   0.14606   0.00000  Uiso   1.00
O306   O     0.17451   0.49213   0.34968   0.00000  Uiso   1.00
O307   O     0.31669   0.45164   0.32744   0.00000  Uiso   1.00
O308   O     0.29484   0.42007   0.26625   0.00000  Uiso   1.00
O309   O     0.22002   0.65065   0.15712   0.00000  Uiso   1.00
O310   O     0.22968   0.38122   0.19380   0.00000  Uiso   1.00
O311   O     0.16314   0.55777   0.10964   0.00000  Uiso   1.00
O312   O     0.20774   0.57505   0.04258   0.00000  Uiso   1.00
O313   O     0.17930   0.41352   0.28213   0.00000  Uiso   1.00
O314   O     0.07588   0.59101   0.41017   0.00000  Uiso   1.00
O315   O     0.14279   0.62553   0.40507   0.00000  Uiso   1.00
O316   O     0.06248   0.61740   0.00382   0.00000  Uiso   1.00
O317   O     0.09442   0.61628   0.06025   0.00000  Uiso   1.00
O318   O     0.14174   0.39754   0.37681   0.00000  Uiso   1.00
O319   O     0.09077   0.44079   0.39360   0.00000  Uiso   1.00
O320   O     0.01631   0.54376   0.16872   0.00000  Uiso   1.00
O321   O     0.05652   0.56684   0.21828   0.00000  Uiso   1.00
O322   O     0.14632   0.59418   0.27013   0.00000  Uiso   1.00
O323   O     0.07412   0.46625   0.23413   0.00000  Uiso   1.00
O324   O     0.26693   0.52605   0.21360   0.00000  Uiso   1.00
O325   O     0.07071   0.52211   0.28213   0.00000  Uiso   1.00
O326   O     0.25491   0.48559   0.27013   0.00000  Uiso   1.00
O327   O     0.13760   0.40277   0.23413   0.00000  Uiso   1.00
O328   O     0.20345   0.58953   0.21360   0.00000  Uiso   1.00
Zn329  Zn    0.19338   0.47327   0.28734   0.00000  Uiso   1.00
Zn330  Zn    0.13379   0.45791   0.21875   0.00000  Uiso   1.00
Zn331  Zn    0.21056   0.53109   0.20657   0.00000  Uiso   1.00
Zn332  Zn    0.12893   0.53773   0.28733   0.00000  Uiso   1.00
C333   C     0.38638   0.49283   0.25969   0.00000  Uiso   1.00
C334   C     0.51238   0.50084   0.05609   0.00000  Uiso   1.00
C335   C     0.53619   0.43484   0.06047   0.00000  Uiso   1.00
C336   C     0.61419   0.50675   0.23961   0.00000  Uiso   1.00
C337   C     0.46944   0.52372   0.42159   0.00000  Uiso   1.00
C338   C     0.66009   0.51097   0.23676   0.00000  Uiso   1.00
C339   C     0.34153   0.48884   0.26287   0.00000  Uiso   1.00
C340   C     0.51259   0.65542   0.23251   0.00000  Uiso   1.00
C341   C     0.48659   0.34519   0.26328   0.00000  Uiso   1.00
C342   C     0.48875   0.38932   0.26090   0.00000  Uiso   1.00
C343   C     0.50952   0.61113   0.23917   0.00000  Uiso   1.00
C344   C     0.44261   0.56642   0.49163   0.00000  Uiso   1.00
C345   C     0.51861   0.48125   0.12919   0.00000  Uiso   1.00
C346   C     0.48110   0.51769   0.37130   0.00000  Uiso   1.00
C347   C     0.53486   0.42245   0.01603   0.00000  Uiso   1.00
C348   C     0.52431   0.47324   0.08069   0.00000  Uiso   1.00
C349   C     0.45145   0.56018   0.44422   0.00000  Uiso   1.00
C350   C     0.64981   0.45309   0.28814   0.00000  Uiso   1.00
C351   C     0.54393   0.33964   0.19204   0.00000  Uiso   1.00
C352   C     0.55599   0.38466   0.49309   0.00000  Uiso   1.00
C353   C     0.52505   0.34400   0.49937   0.00000  Uiso   1.00
C354   C     0.54563   0.64114   0.47023   0.00000  Uiso   1.00
C355   C     0.45726   0.54003   0.01486   0.00000  Uiso   1.00
C356   C     0.51581   0.54600   0.07174   0.00000  Uiso   1.00
C357   C     0.44374   0.59287   0.41895   0.00000  Uiso   1.00
C358   C     0.42058   0.60161   0.01813   0.00000  Uiso   1.00
C359   C     0.46155   0.42863   0.39865   0.00000  Uiso   1.00
C360   C     0.35589   0.54113   0.20554   0.00000  Uiso   1.00
C361   C     0.48055   0.50761   0.49240   0.00000  Uiso   1.00
C362   C     0.47834   0.49455   0.44771   0.00000  Uiso   1.00
C363   C     0.50245   0.48546   0.01442   0.00000  Uiso   1.00
C364   C     0.51488   0.44620   0.49397   0.00000  Uiso   1.00
C365   C     0.50444   0.43011   0.45354   0.00000  Uiso   1.00
C366   C     0.48394   0.45256   0.43176   0.00000  Uiso   1.00
H367   H     0.54732   0.41474   0.07930   0.00000  Uiso   1.00
H368   H     0.51641   0.33714   0.03532   0.00000  Uiso   1.00
H369   H     0.49523   0.34684   0.49000   0.00000  Uiso   1.00
H370   H     0.57013   0.38895   0.45676   0.00000  Uiso   1.00
H371   H     0.58341   0.38218   0.00709   0.00000  Uiso   1.00
H372   H     0.54128   0.60470   0.05703   0.00000  Uiso   1.00
H373   H     0.46726   0.64572   0.38776   0.00000  Uiso   1.00
H374   H     0.41113   0.64017   0.07508   0.00000  Uiso   1.00
H375   H     0.41193   0.42206   0.37015   0.00000  Uiso   1.00
H376   H     0.40708   0.58565   0.19406   0.00000  Uiso   1.00
H377   H     0.46482   0.66532   0.29289   0.00000  Uiso   1.00
H378   H     0.50944   0.39857   0.44012   0.00000  Uiso   1.00
H379   H     0.44860   0.54403   0.05115   0.00000  Uiso   1.00
H380   H     0.61272   0.39742   0.28689   0.00000  Uiso   1.00
H381   H     0.58344   0.38904   0.16416   0.00000  Uiso   1.00
H382   H     0.55301   0.64672   0.43402   0.00000  Uiso   1.00
H383   H     0.57556   0.63752   0.47895   0.00000  Uiso   1.00
H384   H     0.52349   0.61174   0.47584   0.00000  Uiso   1.00
O385   O     0.50000   0.50000   0.25000   0.00000  Uiso   1.00
O386   O     0.48784   0.45970   0.15458   0.00000  Uiso   1.00
O387   O     0.46274   0.53724   0.34968   0.00000  Uiso   1.00
O388   O     0.54157   0.51092   0.14606   0.00000  Uiso   1.00
O389   O     0.50785   0.49213   0.34968   0.00000  Uiso   1.00
O390   O     0.65002   0.45164   0.32744   0.00000  Uiso   1.00
O391   O     0.62817   0.42007   0.26625   0.00000  Uiso   1.00
O392   O     0.55335   0.65065   0.15712   0.00000  Uiso   1.00
O393   O     0.56301   0.38122   0.19380   0.00000  Uiso   1.00
O394   O     0.49648   0.55777   0.10964   0.00000  Uiso   1.00
O395   O     0.54107   0.57505   0.04258   0.00000  Uiso   1.00
O396   O     0.51264   0.41352   0.28213   0.00000  Uiso   1.00
O397   O     0.40922   0.59101   0.41017   0.00000  Uiso   1.00
O398   O     0.47612   0.62553   0.40507   0.00000  Uiso   1.00
O399   O     0.39581   0.61740   0.00382   0.00000  Uiso   1.00
O400   O     0.42775   0.61628   0.06025   0.00000  Uiso   1.00
O401   O     0.47507   0.39754   0.37681   0.00000  Uiso   1.00
O402   O     0.42411   0.44079   0.39360   0.00000  Uiso   1.00
O403   O     0.34965   0.54376   0.16872   0.00000  Uiso   1.00
O404   O     0.38986   0.56684   0.21828   0.00000  Uiso   1.00
O405   O     0.47965   0.59418   0.27013   0.00000  Uiso   1.00
O406   O     0.40745   0.46625   0.23413   0.00000  Uiso   1.00
O407   O     0.60026   0.52605   0.21360   0.00000  Uiso   1.00
O408   O     0.40405   0.52211   0.28213   0.00000  Uiso   1.00
O409   O     0.58824   0.48559   0.27013   0.00000  Uiso   1.00
O410   O     0.47093   0.40277   0.23413   0.00000  Uiso   1.00
O411   O     0.53678   0.58953   0.21360   0.00000  Uiso   1.00
Zn412  Zn    0.52672   0.47327   0.28734   0.00000  Uiso   1.00
Zn413  Zn    0.46713   0.45791   0.21875   0.00000  Uiso   1.00
Zn414  Zn    0.54389   0.53109   0.20657   0.00000  Uiso   1.00
Zn415  Zn    0.46226   0.53773   0.28733   0.00000  Uiso   1.00
C416   C     0.71971   0.49283   0.25969   0.00000  Uiso   1.00
C417   C     0.84572   0.50084   0.05609   0.00000  Uiso   1.00
C418   C     0.86952   0.43484   0.06047   0.00000  Uiso   1.00
C419   C     0.94752   0.50675   0.23961   0.00000  Uiso   1.00
C420   C     0.80278   0.52372   0.42159   0.00000  Uiso   1.00
C421   C     0.99342   0.51097   0.23676   0.00000  Uiso   1.00
C422   C     0.67487   0.48884   0.26287   0.00000  Uiso   1.00
C423   C     0.84593   0.65542   0.23251   0.00000  Uiso   1.00
C424   C     0.81992   0.34519   0.26328   0.00000  Uiso   1.00
C425   C     0.82208   0.38932   0.26090   0.00000  Uiso   1.00
C426   C     0.84285   0.61113   0.23917   0.00000  Uiso   1.00
C427   C     0.77595   0.56642   0.49163   0.00000  Uiso   1.00
C428   C     0.85194   0.48125   0.12919   0.00000  Uiso   1.00
C429   C     0.81443   0.51769   0.37130   0.00000  Uiso   1.00
C430   C     0.86819   0.42245   0.01603   0.00000  Uiso   1.00
C431   C     0.85764   0.47324   0.08069   0.00000  Uiso   1.00
C432   C     0.78478   0.56018   0.44422   0.00000  Uiso   1.00
C433   C     0.98315   0.45309   0.28814   0.00000  Uiso   1.00
C434   C     0.87727   0.33964   0.19204   0.00000  Uiso   1.00
C435   C     0.88932   0.38466   0.49309   0.00000  Uiso   1.00
C436   C     0.85839   0.34400   0.49937   0.00000  Uiso   1.00
C437   C     0.87896   0.64114   0.47023   0.00000  Uiso   1.00
C438   C     0.79059   0.54003   0.01486   0.00000  Uiso   1.00
C439   C     0.84915   0.54600   0.07174   0.00000  Uiso   1.00
C440   C     0.77707   0.59287   0.41895   0.00000  Uiso   1.00
C441   C     0.75392   0.60161   0.01813   0.00000  Uiso   1.00
C442   C     0.79489   0.42863   0.39865   0.00000  Uiso   1.00
C443   C     0.68923   0.54113   0.20554   0.00000  Uiso   1.00
C444   C     0.81389   0.50761   0.49240   0.00000  Uiso   1.00
C445   C     0.81167   0.49455   0.44771   0.00000  Uiso   1.00
C446   C     0.83578   0.48546   0.01442   0.00000  Uiso   1.00
C447   C     0.84821   0.44620   0.49397   0.00000  Uiso   1.00
C448   C     0.83777   0.43011   0.45354   0.00000  Uiso   1.00
C449   C     0.81727   0.45256   0.43176   0.00000  Uiso   1.00
H450   H     0.88065   0.41474   0.07930   0.00000  Uiso   1.00
H451   H     0.84974   0.33714   0.03532   0.00000  Uiso   1.00
H452   H     0.82856   0.34684   0.49000   0.00000  Uiso   1.00
H453   H     0.90347   0.38895   0.45676   0.00000  Uiso   1.00
H454   H     0.91674   0.38218   0.00709   0.00000  Uiso   1.00
H455   H     0.87461   0.60470   0.05703   0.00000  Uiso   1.00
H456   H     0.80059   0.64572   0.38776   0.00000  Uiso   1.00
H457   H     0.74446   0.64017   0.07508   0.00000  Uiso   1.00
H458   H     0.74526   0.42206   0.37015   0.00000  Uiso   1.00
H459   H     0.74042   0.58565   0.19406   0.00000  Uiso   1.00
H460   H     0.79815   0.66532   0.29289   0.00000  Uiso   1.00
H461   H     0.84277   0.39857   0.44012   0.00000  Uiso   1.00
H462   H     0.78193   0.54403   0.05115   0.00000  Uiso   1.00
H463   H     0.94606   0.39742   0.28689   0.00000  Uiso   1.00
H464   H     0.91677   0.38904   0.16416   0.00000  Uiso   1.00
H465   H     0.88634   0.64672   0.43402   0.00000  Uiso   1.00
H466   H     0.90890   0.63752   0.47895   0.00000  Uiso   1.00
H467   H     0.85682   0.61174   0.47584   0.00000  Uiso   1.00
O468   O     0.83333   0.50000   0.25000   0.00000  Uiso   1.00
O469   O     0.82118   0.45970   0.15458   0.00000  Uiso   1.00
O470   O     0.79607   0.53724   0.34968   0.00000  Uiso   1.00
O471   O     0.87491   0.51092   0.14606   0.00000  Uiso   1.00
O472   O     0.84118   0.49213   0.34968   0.00000  Uiso   1.00
O473   O     0.98335   0.45164   0.32744   0.00000  Uiso   1.00
O474   O     0.96151   0.42007   0.26625   0.00000  Uiso   1.00
O475   O     0.88668   0.65065   0.15712   0.00000  Uiso   1.00
O476   O     0.89634   0.38122   0.19380   0.00000  Uiso   1.00
O477   O     0.82981   0.55777   0.10964   0.00000  Uiso   1.00
O478   O     0.87441   0.57505   0.04258   0.00000  Uiso   1.00
O479   O     0.84597   0.41352   0.28213   0.00000  Uiso   1.00
O480   O     0.74255   0.59101   0.41017   0.00000  Uiso   1.00
O481   O     0.80945   0.62553   0.40507   0.00000  Uiso   1.00
O482   O     0.72915   0.61740   0.00382   0.00000  Uiso   1.00
O483   O     0.76109   0.61628   0.06025   0.00000  Uiso   1.00
O484   O     0.80840   0.39754   0.37681   0.00000  Uiso   1.00
O485   O     0.75744   0.44079   0.39360   0.00000  Uiso   1.00
O486   O     0.68298   0.54376   0.16872   0.00000  Uiso   1.00
O487   O     0.72319   0.56684   0.21828   0.00000  Uiso   1.00
O488   O     0.81298   0.59418   0.27013   0.00000  Uiso   1.00
O489   O     0.74078   0.46625   0.23413   0.00000  Uiso   1.00
O490   O     0.93360   0.52605   0.21360   0.00000  Uiso   1.00
O491   O     0.73738   0.52211   0.28213   0.00000  Uiso   1.00
O492   O     0.92158   0.48559   0.27013   0.00000  Uiso   1.00
O493   O     0.80426   0.40277   0.23413   0.00000  Uiso   1.00
O494   O     0.87012   0.58953   0.21360   0.00000  Uiso   1.00
Zn495  Zn    0.86005   0.47327   0.28734   0.00000  Uiso   1.00
Zn496  Zn    0.80046   0.45791   0.21875   0.00000  Uiso   1.00
Zn497  Zn    0.87723   0.53109   0.20657   0.00000  Uiso   1.00
Zn498  Zn    0.79560   0.53773   0.28733   0.00000  Uiso   1.00
C499   C     0.05305   0.82617   0.25969   0.00000  Uiso   1.00
C500   C     0.17905   0.83417   0.05609   0.00000  Uiso   1.00
C501   C     0.20286   0.76817   0.06047   0.00000  Uiso   1.00
C502   C     0.28085   0.84008   0.23961   0.00000  Uiso   1.00
C503   C     0.13611   0.85706   0.42159   0.00000  Uiso   1.00
C504   C     0.32676   0.84430   0.23676   0.00000  Uiso   1.00
C505   C     0.00820   0.82218   0.26287   0.00000  Uiso   1.00
C506   C     0.17926   0.98875   0.23251   0.00000  Uiso   1.00
C507   C     0.15325   0.67852   0.26328   0.00000  Uiso   1.00
C508   C     0.15541   0.72265   0.26090   0.00000  Uiso   1.00
C509   C     0.17618   0.94446   0.23917   0.00000  Uiso   1.00
C510   C     0.10928   0.89975   0.49163   0.00000  Uiso   1.00
C511   C     0.18527   0.81459   0.12919   0.00000  Uiso   1.00
C512   C     0.14777   0.85102   0.37130   0.00000  Uiso   1.00
C513   C     0.20152   0.75578   0.01603   0.00000  Uiso   1.00
C514   C     0.19097   0.80657   0.08069   0.00000  Uiso   1.00
C515   C     0.11812   0.89351   0.44422   0.00000  Uiso   1.00
C516   C     0.31648   0.78642   0.28814   0.00000  Uiso   1.00
C517   C     0.21060   0.67297   0.19204   0.00000  Uiso   1.00
C518   C     0.22266   0.71799   0.49309   0.00000  Uiso   1.00
C519   C     0.19172   0.67734   0.49937   0.00000  Uiso   1.00
C520   C     0.21230   0.97447   0.47023   0.00000  Uiso   1.00
C521   C     0.12393   0.87336   0.01486   0.00000  Uiso   1.00
C522   C     0.18248   0.87933   0.07174   0.00000  Uiso   1.00
C523   C     0.11040   0.92620   0.41895   0.00000  Uiso   1.00
C524   C     0.08725   0.93494   0.01813   0.00000  Uiso   1.00
C525   C     0.12822   0.76197   0.39865   0.00000  Uiso   1.00
C526   C     0.02256   0.87446   0.20554   0.00000  Uiso   1.00
C527   C     0.14722   0.84094   0.49240   0.00000  Uiso   1.00
C528   C     0.14500   0.82789   0.44771   0.00000  Uiso   1.00
C529   C     0.16911   0.81879   0.01442   0.00000  Uiso   1.00
C530   C     0.18155   0.77953   0.49397   0.00000  Uiso   1.00
C531   C     0.17110   0.76344   0.45354   0.00000  Uiso   1.00
C532   C     0.15060   0.78590   0.43176   0.00000  Uiso   1.00
H533   H     0.21399   0.74807   0.07930   0.00000  Uiso   1.00
H534   H     0.18307   0.67048   0.03532   0.00000  Uiso   1.00
H535   H     0.16189   0.68017   0.49000   0.00000  Uiso   1.00
H536   H     0.23680   0.72228   0.45676   0.00000  Uiso   1.00
H537   H     0.25007   0.71551   0.00709   0.00000  Uiso   1.00
H538   H     0.20794   0.93803   0.05703   0.00000  Uiso   1.00
H539   H     0.13392   0.97905   0.38776   0.00000  Uiso   1.00
H540   H     0.07779   0.97350   0.07508   0.00000  Uiso   1.00
H541   H     0.07860   0.75539   0.37015   0.00000  Uiso   1.00
H542   H     0.07375   0.91898   0.19406   0.00000  Uiso   1.00
H543   H     0.13149   0.99865   0.29289   0.00000  Uiso   1.00
H544   H     0.17611   0.73191   0.44012   0.00000  Uiso   1.00
H545   H     0.11526   0.87737   0.05115   0.00000  Uiso   1.00
H546   H     0.27939   0.73076   0.28689   0.00000  Uiso   1.00
H547   H     0.25011   0.72237   0.16416   0.00000  Uiso   1.00
H548   H     0.21967   0.98005   0.43402   0.00000  Uiso   1.00
H549   H     0.24223   0.97085   0.47895   0.00000  Uiso   1.00
H550   H     0.19015   0.94508   0.47584   0.00000  Uiso   1.00
O551   O     0.16667   0.83333   0.25000   0.00000  Uiso   1.00
O552   O     0.15451   0.79304   0.15458   0.00000  Uiso   1.00
O553   O     0.12940   0.87058   0.34968   0.00000  Uiso   1.00
O554   O     0.20824   0.84425   0.14606   0.00000  Uiso   1.00
O555   O     0.17451   0.82546   0.34968   0.00000  Uiso   1.00
O556   O     0.31669   0.78497   0.32744   0.00000  Uiso   1.00
O557   O     0.29484   0.75340   0.26625   0.00000  Uiso   1.00
O558   O     0.22002   0.98398   0.15712   0.00000  Uiso   1.00
O559   O     0.22968   0.71455   0.19380   0.00000  Uiso   1.00
O560   O     0.16314   0.89110   0.10964   0.00000  Uiso   1.00
O561   O     0.20774   0.90838   0.04258   0.00000  Uiso   1.00
O562   O     0.17930   0.74686   0.28213   0.00000  Uiso   1.00
O563   O     0.07588   0.92434   0.41017   0.00000  Uiso   1.00
O564   O     0.14279   0.95886   0.40507   0.00000  Uiso   1.00
O565   O     0.06248   0.95074   0.00382   0.00000  Uiso   1.00
O566   O     0.09442   0.94961   0.06025   0.00000  Uiso   1.00
O567   O     0.14174   0.73088   0.37681   0.00000  Uiso   1.00
O568   O     0.09077   0.77412   0.39360   0.00000  Uiso   1.00
O569   O     0.01631   0.87709   0.16872   0.00000  Uiso   1.00
O570   O     0.05652   0.90017   0.21828   0.00000  Uiso   1.00
O571   O     0.14632   0.92751   0.27013   0.00000  Uiso   1.00
O572   O     0.07412   0.79958   0.23413   0.00000  Uiso   1.00
O573   O     0.26693   0.85939   0.21360   0.00000  Uiso   1.00
O574   O     0.07071   0.85544   0.28213   0.00000  Uiso   1.00
O575   O     0.25491   0.81892   0.27013   0.00000  Uiso   1.00
O576   O     0.13760   0.73610   0.23413   0.00000  Uiso   1.00
O577   O     0.20345   0.92286   0.21360   0.00000  Uiso   1.00
Zn578  Zn    0.19338   0.80661   0.28734   0.00000  Uiso   1.00
Zn579  Zn    0.13379   0.79124   0.21875   0.00000  Uiso   1.00
Zn580  Zn    0.21056   0.86442   0.20657   0.00000  Uiso   1.00
Zn581  Zn    0.12893   0.87106   0.28733   0.00000  Uiso   1.00
C582   C     0.38638   0.82617   0.25969   0.00000  Uiso   1.00
C583   C     0.51238   0.83417   0.05609   0.00000  Uiso   1.00
C584   C     0.53619   0.76817   0.06047   0.00000  Uiso   1.00
C585   C     0.61419   0.84008   0.23961   0.00000  Uiso   1.00
C586   C     0.46944   0.85706   0.42159   0.00000  Uiso   1.00
C587   C     0.66009   0.84430   0.23676   0.00000  Uiso   1.00
C588   C     0.34153   0.82218   0.26287   0.00000  Uiso   1.00
C589   C     0.51259   0.98875   0.23251   0.00000  Uiso   1.00
C590   C     0.48659   0.67852   0.26328   0.00000  Uiso   1.00
C591   C     0.48875   0.72265   0.26090   0.00000  Uiso   1.00
C592   C     0.50952   0.94446   0.23917   0.00000  Uiso   1.00
C593   C     0.44261   0.89975   0.49163   0.00000  Uiso   1.00
C594   C     0.51861   0.81459   0.12919   0.00000  Uiso   1.00
C595   C     0.48110   0.85102   0.37130   0.00000  Uiso   1.00
C596   C     0.53486   0.75578   0.01603   0.00000  Uiso   1.00
C597   C     0.52431   0.80657   0.08069   0.00000  Uiso   1.00
C598   C     0.45145   0.89351   0.44422   0.00000  Uiso   1.00
C599   C     0.64981   0.78642   0.28814   0.00000  Uiso   1.00
C600   C     0.54393   0.67297   0.19204   0.00000  Uiso   1.00
C601   C     0.55599   0.71799   0.49309   0.00000  Uiso   1.00
C602   C     0.52505   0.67734   0.49937   0.00000  Uiso   1.00
C603   C     0.54563   0.97447   0.47023   0.00000  Uiso   1.00
C604   C     0.45726   0.87336   0.01486   0.00000  Uiso   1.00
C605   C     0.51581   0.87933   0.07174   0.00000  Uiso   1.00
C606   C     0.44374   0.92620   0.41895   0.00000  Uiso   1.00
C607   C     0.42058   0.93494   0.01813   0.00000  Uiso   1.00
C608   C     0.46155   0.76197   0.39865   0.00000  Uiso   1.00
C609   C     0.35589   0.87446   0.20554   0.00000  Uiso   1.00
C610   C     0.48055   0.84094   0.49240   0.00000  Uiso   1.00
C611   C     0.47834   0.82789   0.44771   0.00000  Uiso   1.00
C612   C     0.50245   0.81879   0.01442   0.00000  Uiso   1.00
C613   C     0.51488   0.77953   0.49397   0.00000  Uiso   1.00
C614   C     0.50444   0.76344   0.45354   0.00000  Uiso   1.00
C615   C     0.48394   0.78590   0.43176   0.00000  Uiso   1.00
H616   H     0.54732   0.74807   0.07930   0.00000  Uiso   1.00
H617   H     0.51641   0.67048   0.03532   0.00000  Uiso   1.00
H618   H     0.49523   0.68017   0.49000   0.00000  Uiso   1.00
H619   H     0.57013   0.72228   0.45676   0.00000  Uiso   1.00
H620   H     0.58341   0.71551   0.00709   0.00000  Uiso   1.00
H621   H     0.54128   0.93803   0.05703   0.00000  Uiso   1.00
H622   H     0.46726   0.97905   0.38776   0.00000  Uiso   1.00
H623   H     0.41113   0.97350   0.07508   0.00000  Uiso   1.00
H624   H     0.41193   0.75539   0.37015   0.00000  Uiso   1.00
H625   H     0.40708   0.91898   0.19406   0.00000  Uiso   1.00
H626   H     0.46482   0.99865   0.29289   0.00000  Uiso   1.00
H627   H     0.50944   0.73191   0.44012   0.00000  Uiso   1.00
H628   H     0.44860   0.87737   0.05115   0.00000  Uiso   1.00
H629   H     0.61272   0.73076   0.28689   0.00000  Uiso   1.00
H630   H     0.58344   0.72237   0.16416   0.00000  Uiso   1.00
H631   H     0.55301   0.98005   0.43402   0.00000  Uiso   1.00
H632   H     0.57556   0.97085   0.47895   0.00000  Uiso   1.00
H633   H     0.52349   0.94508   0.47584   0.00000  Uiso   1.00
O634   O     0.50000   0.83333   0.25000   0.00000  Uiso   1.00
O635   O     0.48784   0.79304   0.15458   0.00000  Uiso   1.00
O636   O     0.46274   0.87058   0.34968   0.00000  Uiso   1.00
O637   O     0.54157   0.84425   0.14606   0.00000  Uiso   1.00
O638   O     0.50785   0.82546   0.34968   0.00000  Uiso   1.00
O639   O     0.65002   0.78497   0.32744   0.00000  Uiso   1.00
O640   O     0.62817   0.75340   0.26625   0.00000  Uiso   1.00
O641   O     0.55335   0.98398   0.15712   0.00000  Uiso   1.00
O642   O     0.56301   0.71455   0.19380   0.00000  Uiso   1.00
O643   O     0.49648   0.89110   0.10964   0.00000  Uiso   1.00
O644   O     0.54107   0.90838   0.04258   0.00000  Uiso   1.00
O645   O     0.51264   0.74686   0.28213   0.00000  Uiso   1.00
O646   O     0.40922   0.92434   0.41017   0.00000  Uiso   1.00
O647   O     0.47612   0.95886   0.40507   0.00000  Uiso   1.00
O648   O     0.39581   0.95074   0.00382   0.00000  Uiso   1.00
O649   O     0.42775   0.94961   0.06025   0.00000  Uiso   1.00
O650   O     0.47507   0.73088   0.37681   0.00000  Uiso   1.00
O651   O     0.42411   0.77412   0.39360   0.00000  Uiso   1.00
O652   O     0.34965   0.87709   0.16872   0.00000  Uiso   1.00
O653   O     0.38986   0.90017   0.21828   0.00000  Uiso   1.00
O654   O     0.47965   0.92751   0.27013   0.00000  Uiso   1.00
O655   O     0.40745   0.79958   0.23413   0.00000  Uiso   1.00
O656   O     0.60026   0.85939   0.21360   0.00000  Uiso   1.00
O657   O     0.40405   0.85544   0.28213   0.00000  Uiso   1.00
O658   O     0.58824   0.81892   0.27013   0.00000  Uiso   1.00
O659   O     0.47093   0.73610   0.23413   0.00000  Uiso   1.00
O660   O     0.53678   0.92286   0.21360   0.00000  Uiso   1.00
Zn661  Zn    0.52672   0.80661   0.28734   0.00000  Uiso   1.00
Zn662  Zn    0.46713   0.79124   0.21875   0.00000  Uiso   1.00
Zn663  Zn    0.54389   0.86442   0.20657   0.00000  Uiso   1.00
Zn664  Zn    0.46226   0.87106   0.28733   0.00000  Uiso   1.00
C665   C     0.71971   0.82617   0.25969   0.00000  Uiso   1.00
C666   C     0.84572   0.83417   0.05609   0.00000  Uiso   1.00
C667   C     0.86952   0.76817   0.06047   0.00000  Uiso   1.00
C668   C     0.94752   0.84008   0.23961   0.00000  Uiso   1.00
C669   C     0.80278   0.85706   0.42159   0.00000  Uiso   1.00
C670   C     0.99342   0.84430   0.23676   0.00000  Uiso   1.00
C671   C     0.67487   0.82218   0.26287   0.00000  Uiso   1.00
C672   C     0.84593   0.98875   0.23251   0.00000  Uiso   1.00
C673   C     0.81992   0.67852   0.26328   0.00000  Uiso   1.00
C674   C     0.82208   0.72265   0.26090   0.00000  Uiso   1.00
C675   C     0.84285   0.94446   0.23917   0.00000  Uiso   1.00
C676   C     0.77595   0.89975   0.49163   0.00000  Uiso   1.00
C677   C     0.85194   0.81459   0.12919   0.00000  Uiso   1.00
C678   C     0.81443   0.85102   0.37130   0.00000  Uiso   1.00
C679   C     0.86819   0.75578   0.01603   0.00000  Uiso   1.00
C680   C     0.85764   0.80657   0.08069   0.00000  Uiso   1.00
C681   C     0.78478   0.89351   0.44422   0.00000  Uiso   1.00
C682   C     0.98315   0.78642   0.28814   0.00000  Uiso   1.00
C683   C     0.87727   0.67297   0.19204   0.00000  Uiso   1.00
C684   C     0.88932   0.71799   0.49309   0.00000  Uiso   1.00
C685   C     0.85839   0.67734   0.49937   0.00000  Uiso   1.00
C686   C     0.87896   0.97447   0.47023   0.00000  Uiso   1.00
C687   C     0.79059   0.87336   0.01486   0.00000  Uiso   1.00
C688   C     0.84915   0.87933   0.07174   0.00000  Uiso   1.00
C689   C     0.77707   0.92620   0.41895   0.00000  Uiso   1.00
C690   C     0.75392   0.93494   0.01813   0.00000  Uiso   1.00
C691   C     0.79489   0.76197   0.39865   0.00000  Uiso   1.00
C692   C     0.68923   0.87446   0.20554   0.00000  Uiso   1.00
C693   C     0.81389   0.84094   0.49240   0.00000  Uiso   1.00
C694   C     0.81167   0.82789   0.44771   0.00000  Uiso   1.00
C695   C     0.83578   0.81879   0.01442   0.00000  Uiso   1.00
C696   C     0.84821   0.77953   0.49397   0.00000  Uiso   1.00
C697   C     0.83777   0.76344   0.45354   0.00000  Uiso   1.00
C698   C     0.81727   0.78590   0.43176   0.00000  Uiso   1.00
H699   H     0.88065   0.74807   0.07930   0.00000  Uiso   1.00
H700   H     0.84974   0.67048   0.03532   0.00000  Uiso   1.00
H701   H     0.82856   0.68017   0.49000   0.00000  Uiso   1.00
H702   H     0.90347   0.72228   0.45676   0.00000  Uiso   1.00
H703   H     0.91674   0.71551   0.00709   0.00000  Uiso   1.00
H704   H     0.87461   0.93803   0.05703   0.00000  Uiso   1.00
H705   H     0.80059   0.97905   0.38776   0.00000  Uiso   1.00
H706   H     0.74446   0.97350   0.07508   0.00000  Uiso   1.00
H707   H     0.74526   0.75539   0.37015   0.00000  Uiso   1.00
H708   H     0.74042   0.91898   0.19406   0.00000  Uiso   1.00
H709   H     0.79815   0.99865   0.29289   0.00000  Uiso   1.00
H710   H     0.84277   0.73191   0.44012   0.00000  Uiso   1.00
H711   H     0.78193   0.87737   0.05115   0.00000  Uiso   1.00
H712   H     0.94606   0.73076   0.28689   0.00000  Uiso   1.00
H713   H     0.91677   0.72237   0.16416   0.00000  Uiso   1.00
H714   H     0.88634   0.98005   0.43402   0.00000  Uiso   1.00
H715   H     0.90890   0.97085   0.47895   0.00000  Uiso   1.00
H716   H     0.85682   0.94508   0.47584   0.00000  Uiso   1.00
O717   O     0.83333   0.83333   0.25000   0.00000  Uiso   1.00
O718   O     0.82118   0.79304   0.15458   0.00000  Uiso   1.00
O719   O     0.79607   0.87058   0.34968   0.00000  Uiso   1.00
O720   O     0.87491   0.84425   0.14606   0.00000  Uiso   1.00
O721   O     0.84118   0.82546   0.34968   0.00000  Uiso   1.00
O722   O     0.98335   0.78497   0.32744   0.00000  Uiso   1.00
O723   O     0.96151   0.75340   0.26625   0.00000  Uiso   1.00
O724   O     0.88668   0.98398   0.15712   0.00000  Uiso   1.00
O725   O     0.89634   0.71455   0.19380   0.00000  Uiso   1.00
O726   O     0.82981   0.89110   0.10964   0.00000  Uiso   1.00
O727   O     0.87441   0.90838   0.04258   0.00000  Uiso   1.00
O728   O     0.84597   0.74686   0.28213   0.00000  Uiso   1.00
O729   O     0.74255   0.92434   0.41017   0.00000  Uiso   1.00
O730   O     0.80945   0.95886   0.40507   0.00000  Uiso   1.00
O731   O     0.72915   0.95074   0.00382   0.00000  Uiso   1.00
O732   O     0.76109   0.94961   0.06025   0.00000  Uiso   1.00
O733   O     0.80840   0.73088   0.37681   0.00000  Uiso   1.00
O734   O     0.75744   0.77412   0.39360   0.00000  Uiso   1.00
O735   O     0.68298   0.87709   0.16872   0.00000  Uiso   1.00
O736   O     0.72319   0.90017   0.21828   0.00000  Uiso   1.00
O737   O     0.81298   0.92751   0.27013   0.00000  Uiso   1.00
O738   O     0.74078   0.79958   0.23413   0.00000  Uiso   1.00
O739   O     0.93360   0.85939   0.21360   0.00000  Uiso   1.00
O740   O     0.73738   0.85544   0.28213   0.00000  Uiso   1.00
O741   O     0.92158   0.81892   0.27013   0.00000  Uiso   1.00
O742   O     0.80426   0.73610   0.23413   0.00000  Uiso   1.00
O743   O     0.87012   0.92286   0.21360   0.00000  Uiso   1.00
Zn744  Zn    0.86005   0.80661   0.28734   0.00000  Uiso   1.00
Zn745  Zn    0.80046   0.79124   0.21875   0.00000  Uiso   1.00
Zn746  Zn    0.87723   0.86442   0.20657   0.00000  Uiso   1.00
Zn747  Zn    0.79560   0.87106   0.28733   0.00000  Uiso   1.00
C748   C     0.05305   0.15950   0.75969   0.00000  Uiso   1.00
C749   C     0.17905   0.16750   0.55609   0.00000  Uiso   1.00
C750   C     0.20286   0.10150   0.56047   0.00000  Uiso   1.00
C751   C     0.28085   0.17341   0.73961   0.00000  Uiso   1.00
C752   C     0.13611   0.19039   0.92159   0.00000  Uiso   1.00
C753   C     0.32676   0.17764   0.73676   0.00000  Uiso   1.00
C754   C     0.00820   0.15551   0.76287   0.00000  Uiso   1.00
C755   C     0.17926   0.32209   0.73251   0.00000  Uiso   1.00
C756   C     0.15325   0.01185   0.76328   0.00000  Uiso   1.00
C757   C     0.15541   0.05598   0.76090   0.00000  Uiso   1.00
C758   C     0.17618   0.27780   0.73917   0.00000  Uiso   1.00
C759   C     0.10928   0.23309   0.99163   0.00000  Uiso   1.00
C760   C     0.18527   0.14792   0.62919   0.00000  Uiso   1.00
C761   C     0.14777   0.18436   0.87130   0.00000  Uiso   1.00
C762   C     0.20152   0.08911   0.51603   0.00000  Uiso   1.00
C763   C     0.19097   0.13990   0.58069   0.00000  Uiso   1.00
C764   C     0.11812   0.22684   0.94422   0.00000  Uiso   1.00
C765   C     0.31648   0.11975   0.78814   0.00000  Uiso   1.00
C766   C     0.21060   0.00631   0.69204   0.00000  Uiso   1.00
C767   C     0.22266   0.05132   0.99309   0.00000  Uiso   1.00
C768   C     0.19172   0.01067   0.99937   0.00000  Uiso   1.00
C769   C     0.21230   0.30781   0.97023   0.00000  Uiso   1.00
C770   C     0.12393   0.20669   0.51486   0.00000  Uiso   1.00
C771   C     0.18248   0.21266   0.57174   0.00000  Uiso   1.00
C772   C     0.11040   0.25954   0.91895   0.00000  Uiso   1.00
C773   C     0.08725   0.26827   0.51813   0.00000  Uiso   1.00
C774   C     0.12822   0.09530   0.89865   0.00000  Uiso   1.00
C775   C     0.02256   0.20780   0.70554   0.00000  Uiso   1.00
C776   C     0.14722   0.17428   0.99240   0.00000  Uiso   1.00
C777   C     0.14500   0.16122   0.94771   0.00000  Uiso   1.00
C778   C     0.16911   0.15213   0.51442   0.00000  Uiso   1.00
C779   C     0.18155   0.11287   0.99397   0.00000  Uiso   1.00
C780   C     0.17110   0.09678   0.95354   0.00000  Uiso   1.00
C781   C     0.15060   0.11923   0.93176   0.00000  Uiso   1.00
H782   H     0.21399   0.08140   0.57930   0.00000  Uiso   1.00
H783   H     0.18307   0.00381   0.53532   0.00000  Uiso   1.00
H784   H     0.16189   0.01350   0.99000   0.00000  Uiso   1.00
H785   H     0.23680   0.05561   0.95676   0.00000  Uiso   1.00
H786   H     0.25007   0.04884   0.50709   0.00000  Uiso   1.00
H787   H     0.20794   0.27136   0.55703   0.00000  Uiso   1.00
H788   H     0.13392   0.31238   0.88776   0.00000  Uiso   1.00
H789   H     0.07779   0.30683   0.57508   0.00000  Uiso   1.00
H790   H     0.07860   0.08873   0.87015   0.00000  Uiso   1.00
H791   H     0.07375   0.25231   0.69406   0.00000  Uiso   1.00
H792   H     0.13149   0.33199   0.79289   0.00000  Uiso   1.00
H793   H     0.17611   0.06524   0.94012   0.00000  Uiso   1.00
H794   H     0.11526   0.21070   0.55115   0.00000  Uiso   1.00
H795   H     0.27939   0.06409   0.78689   0.00000  Uiso   1.00
H796   H     0.25011   0.05571   0.66416   0.00000  Uiso   1.00
H797   H     0.21967   0.31338   0.93402   0.00000  Uiso   1.00
H798   H     0.24223   0.30419   0.97895   0.00000  Uiso   1.00
H799   H     0.19015   0.27841   0.97584   0.00000  Uiso   1.00
O800   O     0.16667   0.16667   0.75000   0.00000  Uiso   1.00
O801   O     0.15451   0.12637   0.65458   0.00000  Uiso   1.00
O802   O     0.12940   0.20391   0.84968   0.00000  Uiso   1.00
O803   O     0.20824   0.17759   0.64606   0.00000  Uiso   1.00
O804   O     0.17451   0.15880   0.84968   0.00000  Uiso   1.00
O805   O     0.31669   0.11831   0.82744   0.00000  Uiso   1.00
O806   O     0.29484   0.08673   0.76625   0.00000  Uiso   1.00
O807   O     0.22002   0.31732   0.65712   0.00000  Uiso   1.00
O808   O     0.22968   0.04788   0.69380   0.00000  Uiso   1.00
O809   O     0.16314   0.22444   0.60964   0.00000  Uiso   1.00
O810   O     0.20774   0.24171   0.54258   0.00000  Uiso   1.00
O811   O     0.17930   0.08019   0.78213   0.00000  Uiso   1.00
O812   O     0.07588   0.25767   0.91017   0.00000  Uiso   1.00
O813   O     0.14279   0.29219   0.90507   0.00000  Uiso   1.00
O814   O     0.06248   0.28407   0.50382   0.00000  Uiso   1.00
O815   O     0.09442   0.28294   0.56025   0.00000  Uiso   1.00
O816   O     0.14174   0.06421   0.87681   0.00000  Uiso   1.00
O817   O     0.09077   0.10745   0.89360   0.00000  Uiso   1.00
O818   O     0.01631   0.21042   0.66872   0.00000  Uiso   1.00
O819   O     0.05652   0.23351   0.71828   0.00000  Uiso   1.00
O820   O     0.14632   0.26085   0.77013   0.00000  Uiso   1.00
O821   O     0.07412   0.13291   0.73413   0.00000  Uiso   1.00
O822   O     0.26693   0.19272   0.71360   0.00000  Uiso   1.00
O823   O     0.07071   0.18878   0.78213   0.00000  Uiso   1.00
O824   O     0.25491   0.15226   0.77013   0.00000  Uiso   1.00
O825   O     0.13760   0.06944   0.73413   0.00000  Uiso   1.00
O826   O     0.20345   0.25620   0.71360   0.00000  Uiso   1.00
Zn827  Zn    0.19338   0.13994   0.78734   0.00000  Uiso   1.00
Zn828  Zn    0.13379   0.12458   0.71875   0.00000  Uiso   1.00
Zn829  Zn    0.21056   0.19775   0.70657   0.00000  Uiso   1.00
Zn830  Zn    0.12893   0.20439   0.78733   0.00000  Uiso   1.00
C831   C     0.38638   0.15950   0.75969   0.00000  Uiso   1.00
C832   C     0.51238   0.16750   0.55609   0.00000  Uiso   1.00
C833   C     0.53619   0.10150   0.56047   0.00000  Uiso   1.00
C834   C     0.61419   0.17341   0.73961   0.00000  Uiso   1.00
C835   C     0.46944   0.19039   0.92159   0.00000  Uiso   1.00
C836   C     0.66009   0.17764   0.73676   0.00000  Uiso   1.00
C837   C     0.34153   0.15551   0.76287   0.00000  Uiso   1.00
C838   C     0.51259   0.32209   0.73251   0.00000  Uiso   1.00
C839   C     0.48659   0.01185   0.76328   0.00000  Uiso   1.00
C840   C     0.48875   0.05598   0.76090   0.00000  Uiso   1.00
C841   C     0.50952   0.27780   0.73917   0.00000  Uiso   1.00
C842   C     0.44261   0.23309   0.99163   0.00000  Uiso   1.00
C843   C     0.51861   0.14792   0.62919   0.00000  Uiso   1.00
C844   C     0.48110   0.18436   0.87130   0.00000  Uiso   1.00
C845   C     0.53486   0.08911   0.51603   0.00000  Uiso   1.00
C846   C     0.52431   0.13990   0.58069   0.00000  Uiso   1.00
C847   C     0.45145   0.22684   0.94422   0.00000  Uiso   1.00
C848   C     0.64981   0.11975   0.78814   0.00000  Uiso   1.00
C849   C     0.54393   0.00631   0.69204   0.00000  Uiso   1.00
C850   C     0.55599   0.05132   0.99309   0.00000  Uiso   1.00
C851   C     0.52505   0.01067   0.99937   0.00000  Uiso   1.00
C852   C     0.54563   0.30781   0.97023   0.00000  Uiso   1.00
C853   C     0.45726   0.20669   0.51486   0.00000  Uiso   1.00
C854   C     0.51581   0.21266   0.57174   0.00000  Uiso   1.00
C855   C     0.44374   0.25954   0.91895   0.00000  Uiso   1.00
C856   C     0.42058   0.26827   0.51813   0.00000  Uiso   1.00
C857   C     0.46155   0.09530   0.89865   0.00000  Uiso   1.00
C858   C     0.35589   0.20780   0.70554   0.00000  Uiso   1.00
C859   C     0.48055   0.17428   0.99240   0.00000  Uiso   1.00
C860   C     0.47834   0.16122   0.94771   0.00000  Uiso   1.00
C861   C     0.50245   0.15213   0.51442   0.00000  Uiso   1.00
C862   C     0.51488   0.11287   0.99397   0.00000  Uiso   1.00
C863   C     0.50444   0.09678   0.95354   0.00000  Uiso   1.00
C864   C     0.48394   0.11923   0.93176   0.00000  Uiso   1.00
H865   H     0.54732   0.08140   0.57930   0.00000  Uiso   1.00
H866   H     0.51641   0.00381   0.53532   0.00000  Uiso   1.00
H867   H     0.49523   0.01350   0.99000   0.00000  Uiso   1.00
H868   H     0.57013   0.05561   0.95676   0.00000  Uiso   1.00
H869   H     0.58341   0.04884   0.50709   0.00000  Uiso   1.00
H870   H     0.54128   0.27136   0.55703   0.00000  Uiso   1.00
H871   H     0.46726   0.31238   0.88776   0.00000  Uiso   1.00
H872   H     0.41113   0.30683   0.57508   0.00000  Uiso   1.00
H873   H     0.41193   0.08873   0.87015   0.00000  Uiso   1.00
H874   H     0.40708   0.25231   0.69406   0.00000  Uiso   1.00
H875   H     0.46482   0.33199   0.79289   0.00000  Uiso   1.00
H876   H     0.50944   0.06524   0.94012   0.00000  Uiso   1.00
H877   H     0.44860   0.21070   0.55115   0.00000  Uiso   1.00
H878   H     0.61272   0.06409   0.78689   0.00000  Uiso   1.00
H879   H     0.58344   0.05571   0.66416   0.00000  Uiso   1.00
H880   H     0.55301   0.31338   0.93402   0.00000  Uiso   1.00
H881   H     0.57556   0.30419   0.97895   0.00000  Uiso   1.00
H882   H     0.52349   0.27841   0.97584   0.00000  Uiso   1.00
O883   O     0.50000   0.16667   0.75000   0.00000  Uiso   1.00
O884   O     0.48784   0.12637   0.65458   0.00000  Uiso   1.00
O885   O     0.46274   0.20391   0.84968   0.00000  Uiso   1.00
O886   O     0.54157   0.17759   0.64606   0.00000  Uiso   1.00
O887   O     0.50785   0.15880   0.84968   0.00000  Uiso   1.00
O888   O     0.65002   0.11831   0.82744   0.00000  Uiso   1.00
O889   O     0.62817   0.08673   0.76625   0.00000  Uiso   1.00
O890   O     0.55335   0.31732   0.65712   0.00000  Uiso   1.00
O891   O     0.56301   0.04788   0.69380   0.00000  Uiso   1.00
O892   O     0.49648   0.22444   0.60964   0.00000  Uiso   1.00
O893   O     0.54107   0.24171   0.54258   0.00000  Uiso   1.00
O894   O     0.51264   0.08019   0.78213   0.00000  Uiso   1.00
O895   O     0.40922   0.25767   0.91017   0.00000  Uiso   1.00
O896   O     0.47612   0.29219   0.90507   0.00000  Uiso   1.00
O897   O     0.39581   0.28407   0.50382   0.00000  Uiso   1.00
O898   O     0.42775   0.28294   0.56025   0.00000  Uiso   1.00
O899   O     0.47507   0.06421   0.87681   0.00000  Uiso   1.00
O900   O     0.42411   0.10745   0.89360   0.00000  Uiso   1.00
O901   O     0.34965   0.21042   0.66872   0.00000  Uiso   1.00
O902   O     0.38986   0.23351   0.71828   0.00000  Uiso   1.00
O903   O     0.47965   0.26085   0.77013   0.00000  Uiso   1.00
O904   O     0.40745   0.13291   0.73413   0.00000  Uiso   1.00
O905   O     0.60026   0.19272   0.71360   0.00000  Uiso   1.00
O906   O     0.40405   0.18878   0.78213   0.00000  Uiso   1.00
O907   O     0.58824   0.15226   0.77013   0.00000  Uiso   1.00
O908   O     0.47093   0.06944   0.73413   0.00000  Uiso   1.00
O909   O     0.53678   0.25620   0.71360   0.00000  Uiso   1.00
Zn910  Zn    0.52672   0.13994   0.78734   0.00000  Uiso   1.00
Zn911  Zn    0.46713   0.12458   0.71875   0.00000  Uiso   1.00
Zn912  Zn    0.54389   0.19775   0.70657   0.00000  Uiso   1.00
Zn913  Zn    0.46226   0.20439   0.78733   0.00000  Uiso   1.00
C914   C     0.71971   0.15950   0.75969   0.00000  Uiso   1.00
C915   C     0.84572   0.16750   0.55609   0.00000  Uiso   1.00
C916   C     0.86952   0.10150   0.56047   0.00000  Uiso   1.00
C917   C     0.94752   0.17341   0.73961   0.00000  Uiso   1.00
C918   C     0.80278   0.19039   0.92159   0.00000  Uiso   1.00
C919   C     0.99342   0.17764   0.73676   0.00000  Uiso   1.00
C920   C     0.67487   0.15551   0.76287   0.00000  Uiso   1.00
C921   C     0.84593   0.32209   0.73251   0.00000  Uiso   1.00
C922   C     0.81992   0.01185   0.76328   0.00000  Uiso   1.00
C923   C     0.82208   0.05598   0.76090   0.00000  Uiso   1.00
C924   C     0.84285   0.27780   0.73917   0.00000  Uiso   1.00
C925   C     0.77595   0.23309   0.99163   0.00000  Uiso   1.00
C926   C     0.85194   0.14792   0.62919   0.00000  Uiso   1.00
C927   C     0.81443   0.18436   0.87130   0.00000  Uiso   1.00
C928   C     0.86819   0.08911   0.51603   0.00000  Uiso   1.00
C929   C     0.85764   0.13990   0.58069   0.00000  Uiso   1.00
C930   C     0.78478   0.22684   0.94422   0.00000  Uiso   1.00
C931   C     0.98315   0.11975   0.78814   0.00000  Uiso   1.00
C932   C     0.87727   0.00631   0.69204   0.00000  Uiso   1.00
C933   C     0.88932   0.05132   0.99309   0.00000  Uiso   1.00
C934   C     0.85839   0.01067   0.99937   0.00000  Uiso   1.00
C935   C     0.87896   0.30781   0.97023   0.00000  Uiso   1.00
C936   C     0.79059   0.20669   0.51486   0.00000  Uiso   1.00
C937   C     0.84915   0.21266   0.57174   0.00000  Uiso   1.00
C938   C     0.77707   0.25954   0.91895   0.00000  Uiso   1.00
C939   C     0.75392   0.26827   0.51813   0.00000  Uiso   1.00
C940   C     0.79489   0.09530   0.89865   0.00000  Uiso   1.00
C941   C     0.68923   0.20780   0.70554   0.00000  Uiso   1.00
C942   C     0.81389   0.17428   0.99240   0.00000  Uiso   1.00
C943   C     0.81167   0.16122   0.94771   0.00000  Uiso   1.00
C944   C     0.83578   0.15213   0.51442   0.00000  Uiso   1.00
C945   C     0.84821   0.11287   0.99397   0.00000  Uiso   1.00
C946   C     0.83777   0.09678   0.95354   0.00000  Uiso   1.00
C947   C     0.81727   0.11923   0.93176   0.00000  Uiso   1.00
H948   H     0.88065   0.08140   0.57930   0.00000  Uiso   1.00
H949   H     0.84974   0.00381   0.53532   0.00000  Uiso   1.00
H950   H     0.82856   0.01350   0.99000   0.00000  Uiso   1.00
H951   H     0.90347   0.05561   0.95676   0.00000  Uiso   1.00
H952   H     0.91674   0.04884   0.50709   0.00000  Uiso   1.00
H953   H     0.87461   0.27136   0.55703   0.00000  Uiso   1.00
H954   H     0.80059   0.31238   0.88776   0.00000  Uiso   1.00
H955   H     0.74446   0.30683   0.57508   0.00000  Uiso   1.00
H956   H     0.74526   0.08873   0.87015   0.00000  Uiso   1.00
H957   H     0.74042   0.25231   0.69406   0.00000  Uiso   1.00
H958   H     0.79815   0.33199   0.79289   0.00000  Uiso   1.00
H959   H     0.84277   0.06524   0.94012   0.00000  Uiso   1.00
H960   H     0.78193   0.21070   0.55115   0.00000  Uiso   1.00
H961   H     0.94606   0.06409   0.78689   0.00000  Uiso   1.00
H962   H     0.91677   0.05571   0.66416   0.00000  Uiso   1.00
H963   H     0.88634   0.31338   0.93402   0.00000  Uiso   1.00
H964   H     0.90890   0.30419   0.97895   0.00000  Uiso   1.00
H965   H     0.85682   0.27841   0.97584   0.00000  Uiso   1.00
O966   O     0.83333   0.16667   0.75000   0.00000  Uiso   1.00
O967   O     0.82118   0.12637   0.65458   0.00000  Uiso   1.00
O968   O     0.79607   0.20391   0.84968   0.00000  Uiso   1.00
O969   O     0.87491   0.17759   0.64606   0.00000  Uiso   1.00
O970   O     0.84118   0.15880   0.84968   0.00000  Uiso   1.00
O971   O     0.98335   0.11831   0.82744   0.00000  Uiso   1.00
O972   O     0.96151   0.08673   0.76625   0.00000  Uiso   1.00
O973   O     0.88668   0.31732   0.65712   0.00000  Uiso   1.00
O974   O     0.89634   0.04788   0.69380   0.00000  Uiso   1.00
O975   O     0.82981   0.22444   0.60964   0.00000  Uiso   1.00
O976   O     0.87441   0.24171   0.54258   0.00000  Uiso   1.00
O977   O     0.84597   0.08019   0.78213   0.00000  Uiso   1.00
O978   O     0.74255   0.25767   0.91017   0.00000  Uiso   1.00
O979   O     0.80945   0.29219   0.90507   0.00000  Uiso   1.00
O980   O     0.72915   0.28407   0.50382   0.00000  Uiso   1.00
O981   O     0.76109   0.28294   0.56025   0.00000  Uiso   1.00
O982   O     0.80840   0.06421   0.87681   0.00000  Uiso   1.00
O983   O     0.75744   0.10745   0.89360   0.00000  Uiso   1.00
O984   O     0.68298   0.21042   0.66872   0.00000  Uiso   1.00
O985   O     0.72319   0.23351   0.71828   0.00000  Uiso   1.00
O986   O     0.81298   0.26085   0.77013   0.00000  Uiso   1.00
O987   O     0.74078   0.13291   0.73413   0.00000  Uiso   1.00
O988   O     0.93360   0.19272   0.71360   0.00000  Uiso   1.00
O989   O     0.73738   0.18878   0.78213   0.00000  Uiso   1.00
O990   O     0.92158   0.15226   0.77013   0.00000  Uiso   1.00
O991   O     0.80426   0.06944   0.73413   0.00000  Uiso   1.00
O992   O     0.87012   0.25620   0.71360   0.00000  Uiso   1.00
Zn993  Zn    0.86005   0.13994   0.78734   0.00000  Uiso   1.00
Zn994  Zn    0.80046   0.12458   0.71875   0.00000  Uiso   1.00
Zn995  Zn    0.87723   0.19775   0.70657   0.00000  Uiso   1.00
Zn996  Zn    0.79560   0.20439   0.78733   0.00000  Uiso   1.00
C997   C     0.05305   0.49283   0.75969   0.00000  Uiso   1.00
C998   C     0.17905   0.50084   0.55609   0.00000  Uiso   1.00
C999   C     0.20286   0.43484   0.56047   0.00000  Uiso   1.00
C1000  C     0.28085   0.50675   0.73961   0.00000  Uiso   1.00
C1001  C     0.13611   0.52372   0.92159   0.00000  Uiso   1.00
C1002  C     0.32676   0.51097   0.73676   0.00000  Uiso   1.00
C1003  C     0.00820   0.48884   0.76287   0.00000  Uiso   1.00
C1004  C     0.17926   0.65542   0.73251   0.00000  Uiso   1.00
C1005  C     0.15325   0.34519   0.76328   0.00000  Uiso   1.00
C1006  C     0.15541   0.38932   0.76090   0.00000  Uiso   1.00
C1007  C     0.17618   0.61113   0.73917   0.00000  Uiso   1.00
C1008  C     0.10928   0.56642   0.99163   0.00000  Uiso   1.00
C1009  C     0.18527   0.48125   0.62919   0.00000  Uiso   1.00
C1010  C     0.14777   0.51769   0.87130   0.00000  Uiso   1.00
C1011  C     0.20152   0.42245   0.51603   0.00000  Uiso   1.00
C1012  C     0.19097   0.47324   0.58069   0.00000  Uiso   1.00
C1013  C     0.11812   0.56018   0.94422   0.00000  Uiso   1.00
C1014  C     0.31648   0.45309   0.78814   0.00000  Uiso   1.00
C1015  C     0.21060   0.33964   0.69204   0.00000  Uiso   1.00
C1016  C     0.22266   0.38466   0.99309   0.00000  Uiso   1.00
C1017  C     0.19172   0.34400   0.99937   0.00000  Uiso   1.00
C1018  C     0.21230   0.64114   0.97023   0.00000  Uiso   1.00
C1019  C     0.12393   0.54003   0.51486   0.00000  Uiso   1.00
C1020  C     0.18248   0.54600   0.57174   0.00000  Uiso   1.00
C1021  C     0.11040   0.59287   0.91895   0.00000  Uiso   1.00
C1022  C     0.08725   0.60161   0.51813   0.00000  Uiso   1.00
C1023  C     0.12822   0.42863   0.89865   0.00000  Uiso   1.00
C1024  C     0.02256   0.54113   0.70554   0.00000  Uiso   1.00
C1025  C     0.14722   0.50761   0.99240   0.00000  Uiso   1.00
C1026  C     0.14500   0.49455   0.94771   0.00000  Uiso   1.00
C1027  C     0.16911   0.48546   0.51442   0.00000  Uiso   1.00
C1028  C     0.18155   0.44620   0.99397   0.00000  Uiso   1.00
C1029  C     0.17110   0.43011   0.95354   0.00000  Uiso   1.00
C1030  C     0.15060   0.45256   0.93176   0.00000  Uiso   1.00
H1031  H     0.21399   0.41474   0.57930   0.00000  Uiso   1.00
H1032  H     0.18307   0.33714   0.53532   0.00000  Uiso   1.00
H1033  H     0.16189   0.34684   0.99000   0.00000  Uiso   1.00
H1034  H     0.23680   0.38895   0.95676   0.00000  Uiso   1.00
H1035  H     0.25007   0.38218   0.50709   0.00000  Uiso   1.00
H1036  H     0.20794   0.60470   0.55703   0.00000  Uiso   1.00
H1037  H     0.13392   0.64572   0.88776   0.00000  Uiso   1.00
H1038  H     0.07779   0.64017   0.57508   0.00000  Uiso   1.00
H1039  H     0.07860   0.42206   0.87015   0.00000  Uiso   1.00
H1040  H     0.07375   0.58565   0.69406   0.00000  Uiso   1.00
H1041  H     0.13149   0.66532   0.79289   0.00000  Uiso   1.00
H1042  H     0.17611   0.39857   0.94012   0.00000  Uiso   1.00
H1043  H     0.11526   0.54403   0.55115   0.00000  Uiso   1.00
H1044  H     0.27939   0.39742   0.78689   0.00000  Uiso   1.00
H1045  H     0.25011   0.38904   0.66416   0.00000  Uiso   1.00
H1046  H     0.21967   0.64672   0.93402   0.00000  Uiso   1.00
H1047  H     0.24223   0.63752   0.97895   0.00000  Uiso   1.00
H1048  H     0.19015   0.61174   0.97584   0.00000  Uiso   1.00
O1049  O     0.16667   0.50000   0.75000   0.00000  Uiso   1.00
O1050  O     0.15451   0.45970   0.65458   0.00000  Uiso   1.00
O1051  O     0.12940   0.53724   0.84968   0.00000  Uiso   1.00
O1052  O     0.20824   0.51092   0.64606   0.00000  Uiso   1.00
O1053  O     0.17451   0.49213   0.84968   0.00000  Uiso   1.00
O1054  O     0.31669   0.45164   0.82744   0.00000  Uiso   1.00
O1055  O     0.29484   0.42007   0.76625   0.00000  Uiso   1.00
O1056  O     0.22002   0.65065   0.65712   0.00000  Uiso   1.00
O1057  O     0.22968   0.38122   0.69380   0.00000  Uiso   1.00
O1058  O     0.16314   0.55777   0.60964   0.00000  Uiso   1.00
O1059  O     0.20774   0.57505   0.54258   0.00000  Uiso   1.00
O1060  O     0.17930   0.41352   0.78213   0.00000  Uiso   1.00
O1061  O     0.07588   0.59101   0.91017   0.00000  Uiso   1.00
O1062  O     0.14279   0.62553   0.90507   0.00000  Uiso   1.00
O1063  O     0.06248   0.61740   0.50382   0.00000  Uiso   1.00
O1064  O     0.09442   0.61628   0.56025   0.00000  Uiso   1.00
O1065  O     0.14174   0.39754   0.87681   0.00000  Uiso   1.00
O1066  O     0.09077   0.44079   0.89360   0.00000  Uiso   1.00
O1067  O     0.01631   0.54376   0.66872   0.00000  Uiso   1.00
O1068  O     0.05652   0.56684   0.71828   0.00000  Uiso   1.00
O1069  O     0.14632   0.59418   0.77013   0.00000  Uiso   1.00
O1070  O     0.07412   0.46625   0.73413   0.00000  Uiso   1.00
O1071  O     0.26693   0.52605   0.71360   0.00000  Uiso   1.00
O1072  O     0.07071   0.52211   0.78213   0.00000  Uiso   1.00
O1073  O     0.25491   0.48559   0.77013   0.00000  Uiso   1.00
O1074  O     0.13760   0.40277   0.73413   0.00000  Uiso   1.00
O1075  O     0.20345   0.58953   0.71360   0.00000  Uiso   1.00
Zn1076 Zn    0.19338   0.47327   0.78734   0.00000  Uiso   1.00
Zn1077 Zn    0.13379   0.45791   0.71875   0.00000  Uiso   1.00
Zn1078 Zn    0.21056   0.53109   0.70657   0.00000  Uiso   1.00
Zn1079 Zn    0.12893   0.53773   0.78733   0.00000  Uiso   1.00
C1080  C     0.38638   0.49283   0.75969   0.00000  Uiso   1.00
C1081  C     0.51238   0.50084   0.55609   0.00000  Uiso   1.00
C1082  C     0.53619   0.43484   0.56047   0.00000  Uiso   1.00
C1083  C     0.61419   0.50675   0.73961   0.00000  Uiso   1.00
C1084  C     0.46944   0.52372   0.92159   0.00000  Uiso   1.00
C1085  C     0.66009   0.51097   0.73676   0.00000  Uiso   1.00
C1086  C     0.34153   0.48884   0.76287   0.00000  Uiso   1.00
C1087  C     0.51259   0.65542   0.73251   0.00000  Uiso   1.00
C1088  C     0.48659   0.34519   0.76328   0.00000  Uiso   1.00
C1089  C     0.48875   0.38932   0.76090   0.00000  Uiso   1.00
C1090  C     0.50952   0.61113   0.73917   0.00000  Uiso   1.00
C1091  C     0.44261   0.56642   0.99163   0.00000  Uiso   1.00
C1092  C     0.51861   0.48125   0.62919   0.00000  Uiso   1.00
C1093  C     0.48110   0.51769   0.87130   0.00000  Uiso   1.00
C1094  C     0.53486   0.42245   0.51603   0.00000  Uiso   1.00
C1095  C     0.52431   0.47324   0.58069   0.00000  Uiso   1.00
C1096  C     0.45145   0.56018   0.94422   0.00000  Uiso   1.00
C1097  C     0.64981   0.45309   0.78814   0.00000  Uiso   1.00
C1098  C     0.54393   0.33964   0.69204   0.00000  Uiso   1.00
C1099  C     0.55599   0.38466   0.99309   0.00000  Uiso   1.00
C1100  C     0.52505   0.34400   0.99937   0.00000  Uiso   1.00
C1101  C     0.54563   0.64114   0.97023   0.00000  Uiso   1.00
C1102  C     0.45726   0.54003   0.51486   0.00000  Uiso   1.00
C1103  C     0.51581   0.54600   0.57174   0.00000  Uiso   1.00
C1104  C     0.44374   0.59287   0.91895   0.00000  Uiso   1.00
C1105  C     0.42058   0.60161   0.51813   0.00000  Uiso   1.00
C1106  C     0.46155   0.42863   0.89865   0.00000  Uiso   1.00
C1107  C     0.35589   0.54113   0.70554   0.00000  Uiso   1.00
C1108  C     0.48055   0.50761   0.99240   0.00000  Uiso   1.00
C1109  C     0.47834   0.49455   0.94771   0.00000  Uiso   1.00
C1110  C     0.50245   0.48546   0.51442   0.00000  Uiso   1.00
C1111  C     0.51488   0.44620   0.99397   0.00000  Uiso   1.00
C1112  C     0.50444   0.43011   0.95354   0.00000  Uiso   1.00
C1113  C     0.48394   0.45256   0.93176   0.00000  Uiso   1.00
H1114  H     0.54732   0.41474   0.57930   0.00000  Uiso   1.00
H1115  H     0.51641   0.33714   0.53532   0.00000  Uiso   1.00
H1116  H     0.49523   0.34684   0.99000   0.00000  Uiso   1.00
H1117  H     0.57013   0.38895   0.95676   0.00000  Uiso   1.00
H1118  H     0.58341   0.38218   0.50709   0.00000  Uiso   1.00
H1119  H     0.54128   0.60470   0.55703   0.00000  Uiso   1.00
H1120  H     0.46726   0.64572   0.88776   0.00000  Uiso   1.00
H1121  H     0.41113   0.64017   0.57508   0.00000  Uiso   1.00
H1122  H     0.41193   0.42206   0.87015   0.00000  Uiso   1.00
H1123  H     0.40708   0.58565   0.69406   0.00000  Uiso   1.00
H1124  H     0.46482   0.66532   0.79289   0.00000  Uiso   1.00
H1125  H     0.50944   0.39857   0.94012   0.00000  Uiso   1.00
H1126  H     0.44860   0.54403   0.55115   0.00000  Uiso   1.00
H1127  H     0.61272   0.39742   0.78689   0.00000  Uiso   1.00
H1128  H     0.58344   0.38904   0.66416   0.00000  Uiso   1.00
H1129  H     0.55301   0.64672   0.93402   0.00000  Uiso   1.00
H1130  H     0.57556   0.63752   0.97895   0.00000  Uiso   1.00
H1131  H     0.52349   0.61174   0.97584   0.00000  Uiso   1.00
O1132  O     0.50000   0.50000   0.75000   0.00000  Uiso   1.00
O1133  O     0.48784   0.45970   0.65458   0.00000  Uiso   1.00
O1134  O     0.46274   0.53724   0.84968   0.00000  Uiso   1.00
O1135  O     0.54157   0.51092   0.64606   0.00000  Uiso   1.00
O1136  O     0.50785   0.49213   0.84968   0.00000  Uiso   1.00
O1137  O     0.65002   0.45164   0.82744   0.00000  Uiso   1.00
O1138  O     0.62817   0.42007   0.76625   0.00000  Uiso   1.00
O1139  O     0.55335   0.65065   0.65712   0.00000  Uiso   1.00
O1140  O     0.56301   0.38122   0.69380   0.00000  Uiso   1.00
O1141  O     0.49648   0.55777   0.60964   0.00000  Uiso   1.00
O1142  O     0.54107   0.57505   0.54258   0.00000  Uiso   1.00
O1143  O     0.51264   0.41352   0.78213   0.00000  Uiso   1.00
O1144  O     0.40922   0.59101   0.91017   0.00000  Uiso   1.00
O1145  O     0.47612   0.62553   0.90507   0.00000  Uiso   1.00
O1146  O     0.39581   0.61740   0.50382   0.00000  Uiso   1.00
O1147  O     0.42775   0.61628   0.56025   0.00000  Uiso   1.00
O1148  O     0.47507   0.39754   0.87681   0.00000  Uiso   1.00
O1149  O     0.42411   0.44079   0.89360   0.00000  Uiso   1.00
O1150  O     0.34965   0.54376   0.66872   0.00000  Uiso   1.00
O1151  O     0.38986   0.56684   0.71828   0.00000  Uiso   1.00
O1152  O     0.47965   0.59418   0.77013   0.00000  Uiso   1.00
O1153  O     0.40745   0.46625   0.73413   0.00000  Uiso   1.00
O1154  O     0.60026   0.52605   0.71360   0.00000  Uiso   1.00
O1155  O     0.40405   0.52211   0.78213   0.00000  Uiso   1.00
O1156  O     0.58824   0.48559   0.77013   0.00000  Uiso   1.00
O1157  O     0.47093   0.40277   0.73413   0.00000  Uiso   1.00
O1158  O     0.53678   0.58953   0.71360   0.00000  Uiso   1.00
Zn1159 Zn    0.52672   0.47327   0.78734   0.00000  Uiso   1.00
Zn1160 Zn    0.46713   0.45791   0.71875   0.00000  Uiso   1.00
Zn1161 Zn    0.54389   0.53109   0.70657   0.00000  Uiso   1.00
Zn1162 Zn    0.46226   0.53773   0.78733   0.00000  Uiso   1.00
C1163  C     0.71971   0.49283   0.75969   0.00000  Uiso   1.00
C1164  C     0.84572   0.50084   0.55609   0.00000  Uiso   1.00
C1165  C     0.86952   0.43484   0.56047   0.00000  Uiso   1.00
C1166  C     0.94752   0.50675   0.73961   0.00000  Uiso   1.00
C1167  C     0.80278   0.52372   0.92159   0.00000  Uiso   1.00
C1168  C     0.99342   0.51097   0.73676   0.00000  Uiso   1.00
C1169  C     0.67487   0.48884   0.76287   0.00000  Uiso   1.00
C1170  C     0.84593   0.65542   0.73251   0.00000  Uiso   1.00
C1171  C     0.81992   0.34519   0.76328   0.00000  Uiso   1.00
C1172  C     0.82208   0.38932   0.76090   0.00000  Uiso   1.00
C1173  C     0.84285   0.61113   0.73917   0.00000  Uiso   1.00
C1174  C     0.77595   0.56642   0.99163   0.00000  Uiso   1.00
C1175  C     0.85194   0.48125   0.62919   0.00000  Uiso   1.00
C1176  C     0.81443   0.51769   0.87130   0.00000  Uiso   1.00
C1177  C     0.86819   0.42245   0.51603   0.00000  Uiso   1.00
C1178  C     0.85764   0.47324   0.58069   0.00000  Uiso   1.00
C1179  C     0.78478   0.56018   0.94422   0.00000  Uiso   1.00
C1180  C     0.98315   0.45309   0.78814   0.00000  Uiso   1.00
C1181  C     0.87727   0.33964   0.69204   0.00000  Uiso   1.00
C1182  C     0.88932   0.38466   0.99309   0.00000  Uiso   1.00
C1183  C     0.85839   0.34400   0.99937   0.00000  Uiso   1.00
C1184  C     0.87896   0.64114   0.97023   0.00000  Uiso   1.00
C1185  C     0.79059   0.54003   0.51486   0.00000  Uiso   1.00
C1186  C     0.84915   0.54600   0.57174   0.00000  Uiso   1.00
C1187  C     0.77707   0.59287   0.91895   0.00000  Uiso   1.00
C1188  C     0.75392   0.60161   0.51813   0.00000  Uiso   1.00
C1189  C     0.79489   0.42863   0.89865   0.00000  Uiso   1.00
C1190  C     0.68923   0.54113   0.70554   0.00000  Uiso   1.00
C1191  C     0.81389   0.50761   0.99240   0.00000  Uiso   1.00
C1192  C     0.81167   0.49455   0.94771   0.00000  Uiso   1.00
C1193  C     0.83578   0.48546   0.51442   0.00000  Uiso   1.00
C1194  C     0.84821   0.44620   0.99397   0.00000  Uiso   1.00
C1195  C     0.83777   0.43011   0.95354   0.00000  Uiso   1.00
C1196  C     0.81727   0.45256   0.93176   0.00000  Uiso   1.00
H1197  H     0.88065   0.41474   0.57930   0.00000  Uiso   1.00
H1198  H     0.84974   0.33714   0.53532   0.00000  Uiso   1.00
H1199  H     0.82856   0.34684   0.99000   0.00000  Uiso   1.00
H1200  H     0.90347   0.38895   0.95676   0.00000  Uiso   1.00
H1201  H     0.91674   0.38218   0.50709   0.00000  Uiso   1.00
H1202  H     0.87461   0.60470   0.55703   0.00000  Uiso   1.00
H1203  H     0.80059   0.64572   0.88776   0.00000  Uiso   1.00
H1204  H     0.74446   0.64017   0.57508   0.00000  Uiso   1.00
H1205  H     0.74526   0.42206   0.87015   0.00000  Uiso   1.00
H1206  H     0.74042   0.58565   0.69406   0.00000  Uiso   1.00
H1207  H     0.79815   0.66532   0.79289   0.00000  Uiso   1.00
H1208  H     0.84277   0.39857   0.94012   0.00000  Uiso   1.00
H1209  H     0.78193   0.54403   0.55115   0.00000  Uiso   1.00
H1210  H     0.94606   0.39742   0.78689   0.00000  Uiso   1.00
H1211  H     0.91677   0.38904   0.66416   0.00000  Uiso   1.00
H1212  H     0.88634   0.64672   0.93402   0.00000  Uiso   1.00
H1213  H     0.90890   0.63752   0.97895   0.00000  Uiso   1.00
H1214  H     0.85682   0.61174   0.97584   0.00000  Uiso   1.00
O1215  O     0.83333   0.50000   0.75000   0.00000  Uiso   1.00
O1216  O     0.82118   0.45970   0.65458   0.00000  Uiso   1.00
O1217  O     0.79607   0.53724   0.84968   0.00000  Uiso   1.00
O1218  O     0.87491   0.51092   0.64606   0.00000  Uiso   1.00
O1219  O     0.84118   0.49213   0.84968   0.00000  Uiso   1.00
O1220  O     0.98335   0.45164   0.82744   0.00000  Uiso   1.00
O1221  O     0.96151   0.42007   0.76625   0.00000  Uiso   1.00
O1222  O     0.88668   0.65065   0.65712   0.00000  Uiso   1.00
O1223  O     0.89634   0.38122   0.69380   0.00000  Uiso   1.00
O1224  O     0.82981   0.55777   0.60964   0.00000  Uiso   1.00
O1225  O     0.87441   0.57505   0.54258   0.00000  Uiso   1.00
O1226  O     0.84597   0.41352   0.78213   0.00000  Uiso   1.00
O1227  O     0.74255   0.59101   0.91017   0.00000  Uiso   1.00
O1228  O     0.80945   0.62553   0.90507   0.00000  Uiso   1.00
O1229  O     0.72915   0.61740   0.50382   0.00000  Uiso   1.00
O1230  O     0.76109   0.61628   0.56025   0.00000  Uiso   1.00
O1231  O     0.80840   0.39754   0.87681   0.00000  Uiso   1.00
O1232  O     0.75744   0.44079   0.89360   0.00000  Uiso   1.00
O1233  O     0.68298   0.54376   0.66872   0.00000  Uiso   1.00
O1234  O     0.72319   0.56684   0.71828   0.00000  Uiso   1.00
O1235  O     0.81298   0.59418   0.77013   0.00000  Uiso   1.00
O1236  O     0.74078   0.46625   0.73413   0.00000  Uiso   1.00
O1237  O     0.93360   0.52605   0.71360   0.00000  Uiso   1.00
O1238  O     0.73738   0.52211   0.78213   0.00000  Uiso   1.00
O1239  O     0.92158   0.48559   0.77013   0.00000  Uiso   1.00
O1240  O     0.80426   0.40277   0.73413   0.00000  Uiso   1.00
O1241  O     0.87012   0.58953   0.71360   0.00000  Uiso   1.00
Zn1242 Zn    0.86005   0.47327   0.78734   0.00000  Uiso   1.00
Zn1243 Zn    0.80046   0.45791   0.71875   0.00000  Uiso   1.00
Zn1244 Zn    0.87723   0.53109   0.70657   0.00000  Uiso   1.00
Zn1245 Zn    0.79560   0.53773   0.78733   0.00000  Uiso   1.00
C1246  C     0.05305   0.82617   0.75969   0.00000  Uiso   1.00
C1247  C     0.17905   0.83417   0.55609   0.00000  Uiso   1.00
C1248  C     0.20286   0.76817   0.56047   0.00000  Uiso   1.00
C1249  C     0.28085   0.84008   0.73961   0.00000  Uiso   1.00
C1250  C     0.13611   0.85706   0.92159   0.00000  Uiso   1.00
C1251  C     0.32676   0.84430   0.73676   0.00000  Uiso   1.00
C1252  C     0.00820   0.82218   0.76287   0.00000  Uiso   1.00
C1253  C     0.17926   0.98875   0.73251   0.00000  Uiso   1.00
C1254  C     0.15325   0.67852   0.76328   0.00000  Uiso   1.00
C1255  C     0.15541   0.72265   0.76090   0.00000  Uiso   1.00
C1256  C     0.17618   0.94446   0.73917   0.00000  Uiso   1.00
C1257  C     0.10928   0.89975   0.99163   0.00000  Uiso   1.00
C1258  C     0.18527   0.81459   0.62919   0.00000  Uiso   1.00
C1259  C     0.14777   0.85102   0.87130   0.00000  Uiso   1.00
C1260  C     0.20152   0.75578   0.51603   0.00000  Uiso   1.00
C1261  C     0.19097   0.80657   0.58069   0.00000  Uiso   1.00
C1262  C     0.11812   0.89351   0.94422   0.00000  Uiso   1.00
C1263  C     0.31648   0.78642   0.78814   0.00000  Uiso   1.00
C1264  C     0.21060   0.67297   0.69204   0.00000  Uiso   1.00
C1265  C     0.22266   0.71799   0.99309   0.00000  Uiso   1.00
C1266  C     0.19172   0.67734   0.99937   0.00000  Uiso   1.00
C1267  C     0.21230   0.97447   0.97023   0.00000  Uiso   1.00
C1268  C     0.12393   0.87336   0.51486   0.00000  Uiso   1.00
C1269  C     0.18248   0.87933   0.57174   0.00000  Uiso   1.00
C1270  C     0.11040   0.92620   0.91895   0.00000  Uiso   1.00
C1271  C     0.08725   0.93494   0.51813   0.00000  Uiso   1.00
C1272  C     0.12822   0.76197   0.89865   0.00000  Uiso   1.00
C1273  C     0.02256   0.87446   0.70554   0.00000  Uiso   1.00
C1274  C     0.14722   0.84094   0.99240   0.00000  Uiso   1.00
C1275  C     0.14500   0.82789   0.94771   0.00000  Uiso   1.00
C1276  C     0.16911   0.81879   0.51442   0.00000  Uiso   1.00
C1277  C     0.18155   0.77953   0.99397   0.00000  Uiso   1.00
C1278  C     0.17110   0.76344   0.95354   0.00000  Uiso   1.00
C1279  C     0.15060   0.78590   0.93176   0.00000  Uiso   1.00
H1280  H     0.21399   0.74807   0.57930   0.00000  Uiso   1.00
H1281  H     0.18307   0.67048   0.53532   0.00000  Uiso   1.00
H1282  H     0.16189   0.68017   0.99000   0.00000  Uiso   1.00
H1283  H     0.23680   0.72228   0.95676   0.00000  Uiso   1.00
H1284  H     0.25007   0.71551   0.50709   0.00000  Uiso   1.00
H1285  H     0.20794   0.93803   0.55703   0.00000  Uiso   1.00
H1286  H     0.13392   0.97905   0.88776   0.00000  Uiso   1.00
H1287  H     0.07779   0.97350   0.57508   0.00000  Uiso   1.00
H1288  H     0.07860   0.75539   0.87015   0.00000  Uiso   1.00
H1289  H     0.07375   0.91898   0.69406   0.00000  Uiso   1.00
H1290  H     0.13149   0.99865   0.79289   0.00000  Uiso   1.00
H1291  H     0.17611   0.73191   0.94012   0.00000  Uiso   1.00
H1292  H     0.11526   0.87737   0.55115   0.00000  Uiso   1.00
H1293  H     0.27939   0.73076   0.78689   0.00000  Uiso   1.00
H1294  H     0.25011   0.72237   0.66416   0.00000  Uiso   1.00
H1295  H     0.21967   0.98005   0.93402   0.00000  Uiso   1.00
H1296  H     0.24223   0.97085   0.97895   0.00000  Uiso   1.00
H1297  H     0.19015   0.94508   0.97584   0.00000  Uiso   1.00
O1298  O     0.16667   0.83333   0.75000   0.00000  Uiso   1.00
O1299  O     0.15451   0.79304   0.65458   0.00000  Uiso   1.00
O1300  O     0.12940   0.87058   0.84968   0.00000  Uiso   1.00
O1301  O     0.20824   0.84425   0.64606   0.00000  Uiso   1.00
O1302  O     0.17451   0.82546   0.84968   0.00000  Uiso   1.00
O1303  O     0.31669   0.78497   0.82744   0.00000  Uiso   1.00
O1304  O     0.29484   0.75340   0.76625   0.00000  Uiso   1.00
O1305  O     0.22002   0.98398   0.65712   0.00000  Uiso   1.00
O1306  O     0.22968   0.71455   0.69380   0.00000  Uiso   1.00
O1307  O     0.16314   0.89110   0.60964   0.00000  Uiso   1.00
O1308  O     0.20774   0.90838   0.54258   0.00000  Uiso   1.00
O1309  O     0.17930   0.74686   0.78213   0.00000  Uiso   1.00
O1310  O     0.07588   0.92434   0.91017   0.00000  Uiso   1.00
O1311  O     0.14279   0.95886   0.90507   0.00000  Uiso   1.00
O1312  O     0.06248   0.95074   0.50382   0.00000  Uiso   1.00
O1313  O     0.09442   0.94961   0.56025   0.00000  Uiso   1.00
O1314  O     0.14174   0.73088   0.87681   0.00000  Uiso   1.00
O1315  O     0.09077   0.77412   0.89360   0.00000  Uiso   1.00
O1316  O     0.01631   0.87709   0.66872   0.00000  Uiso   1.00
O1317  O     0.05652   0.90017   0.71828   0.00000  Uiso   1.00
O1318  O     0.14632   0.92751   0.77013   0.00000  Uiso   1.00
O1319  O     0.07412   0.79958   0.73413   0.00000  Uiso   1.00
O1320  O     0.26693   0.85939   0.71360   0.00000  Uiso   1.00
O1321  O     0.07071   0.85544   0.78213   0.00000  Uiso   1.00
O1322  O     0.25491   0.81892   0.77013   0.00000  Uiso   1.00
O1323  O     0.13760   0.73610   0.73413   0.00000  Uiso   1.00
O1324  O     0.20345   0.92286   0.71360   0.00000  Uiso   1.00
Zn1325 Zn    0.19338   0.80661   0.78734   0.00000  Uiso   1.00
Zn1326 Zn    0.13379   0.79124   0.71875   0.00000  Uiso   1.00
Zn1327 Zn    0.21056   0.86442   0.70657   0.00000  Uiso   1.00
Zn1328 Zn    0.12893   0.87106   0.78733   0.00000  Uiso   1.00
C1329  C     0.38638   0.82617   0.75969   0.00000  Uiso   1.00
C1330  C     0.51238   0.83417   0.55609   0.00000  Uiso   1.00
C1331  C     0.53619   0.76817   0.56047   0.00000  Uiso   1.00
C1332  C     0.61419   0.84008   0.73961   0.00000  Uiso   1.00
C1333  C     0.46944   0.85706   0.92159   0.00000  Uiso   1.00
C1334  C     0.66009   0.84430   0.73676   0.00000  Uiso   1.00
C1335  C     0.34153   0.82218   0.76287   0.00000  Uiso   1.00
C1336  C     0.51259   0.98875   0.73251   0.00000  Uiso   1.00
C1337  C     0.48659   0.67852   0.76328   0.00000  Uiso   1.00
C1338  C     0.48875   0.72265   0.76090   0.00000  Uiso   1.00
C1339  C     0.50952   0.94446   0.73917   0.00000  Uiso   1.00
C1340  C     0.44261   0.89975   0.99163   0.00000  Uiso   1.00
C1341  C     0.51861   0.81459   0.62919   0.00000  Uiso   1.00
C1342  C     0.48110   0.85102   0.87130   0.00000  Uiso   1.00
C1343  C     0.53486   0.75578   0.51603   0.00000  Uiso   1.00
C1344  C     0.52431   0.80657   0.58069   0.00000  Uiso   1.00
C1345  C     0.45145   0.89351   0.94422   0.00000  Uiso   1.00
C1346  C     0.64981   0.78642   0.78814   0.00000  Uiso   1.00
C1347  C     0.54393   0.67297   0.69204   0.00000  Uiso   1.00
C1348  C     0.55599   0.71799   0.99309   0.00000  Uiso   1.00
C1349  C     0.52505   0.67734   0.99937   0.00000  Uiso   1.00
C1350  C     0.54563   0.97447   0.97023   0.00000  Uiso   1.00
C1351  C     0.45726   0.87336   0.51486   0.00000  Uiso   1.00
C1352  C     0.51581   0.87933   0.57174   0.00000  Uiso   1.00
C1353  C     0.44374   0.92620   0.91895   0.00000  Uiso   1.00
C1354  C     0.42058   0.93494   0.51813   0.00000  Uiso   1.00
C1355  C     0.46155   0.76197   0.89865   0.00000  Uiso   1.00
C1356  C     0.35589   0.87446   0.70554   0.00000  Uiso   1.00
C1357  C     0.48055   0.84094   0.99240   0.00000  Uiso   1.00
C1358  C     0.47834   0.82789   0.94771   0.00000  Uiso   1.00
C1359  C     0.50245   0.81879   0.51442   0.00000  Uiso   1.00
C1360  C     0.51488   0.77953   0.99397   0.00000  Uiso   1.00
C1361  C     0.50444   0.76344   0.95354   0.00000  Uiso   1.00
C1362  C     0.48394   0.78590   0.93176   0.00000  Uiso   1.00
H1363  H     0.54732   0.74807   0.57930   0.00000  Uiso   1.00
H1364  H     0.51641   0.67048   0.53532   0.00000  Uiso   1.00
H1365  H     0.49523   0.68017   0.99000   0.00000  Uiso   1.00
H1366  H     0.57013   0.72228   0.95676   0.00000  Uiso   1.00
H1367  H     0.58341   0.71551   0.50709   0.00000  Uiso   1.00
H1368  H     0.54128   0.93803   0.55703   0.00000  Uiso   1.00
H1369  H     0.46726   0.97905   0.88776   0.00000  Uiso   1.00
H1370  H     0.41113   0.97350   0.57508   0.00000  Uiso   1.00
H1371  H     0.41193   0.75539   0.87015   0.00000  Uiso   1.00
H1372  H     0.40708   0.91898   0.69406   0.00000  Uiso   1.00
H1373  H     0.46482   0.99865   0.79289   0.00000  Uiso   1.00
H1374  H     0.50944   0.73191   0.94012   0.00000  Uiso   1.00
H1375  H     0.44860   0.87737   0.55115   0.00000  Uiso   1.00
H1376  H     0.61272   0.73076   0.78689   0.00000  Uiso   1.00
H1377  H     0.58344   0.72237   0.66416   0.00000  Uiso   1.00
H1378  H     0.55301   0.98005   0.93402   0.00000  Uiso   1.00
H1379  H     0.57556   0.97085   0.97895   0.00000  Uiso   1.00
H1380  H     0.52349   0.94508   0.97584   0.00000  Uiso   1.00
O1381  O     0.50000   0.83333   0.75000   0.00000  Uiso   1.00
O1382  O     0.48784   0.79304   0.65458   0.00000  Uiso   1.00
O1383  O     0.46274   0.87058   0.84968   0.00000  Uiso   1.00
O1384  O     0.54157   0.84425   0.64606   0.00000  Uiso   1.00
O1385  O     0.50785   0.82546   0.84968   0.00000  Uiso   1.00
O1386  O     0.65002   0.78497   0.82744   0.00000  Uiso   1.00
O1387  O     0.62817   0.75340   0.76625   0.00000  Uiso   1.00
O1388  O     0.55335   0.98398   0.65712   0.00000  Uiso   1.00
O1389  O     0.56301   0.71455   0.69380   0.00000  Uiso   1.00
O1390  O     0.49648   0.89110   0.60964   0.00000  Uiso   1.00
O1391  O     0.54107   0.90838   0.54258   0.00000  Uiso   1.00
O1392  O     0.51264   0.74686   0.78213   0.00000  Uiso   1.00
O1393  O     0.40922   0.92434   0.91017   0.00000  Uiso   1.00
O1394  O     0.47612   0.95886   0.90507   0.00000  Uiso   1.00
O1395  O     0.39581   0.95074   0.50382   0.00000  Uiso   1.00
O1396  O     0.42775   0.94961   0.56025   0.00000  Uiso   1.00
O1397  O     0.47507   0.73088   0.87681   0.00000  Uiso   1.00
O1398  O     0.42411   0.77412   0.89360   0.00000  Uiso   1.00
O1399  O     0.34965   0.87709   0.66872   0.00000  Uiso   1.00
O1400  O     0.38986   0.90017   0.71828   0.00000  Uiso   1.00
O1401  O     0.47965   0.92751   0.77013   0.00000  Uiso   1.00
O1402  O     0.40745   0.79958   0.73413   0.00000  Uiso   1.00
O1403  O     0.60026   0.85939   0.71360   0.00000  Uiso   1.00
O1404  O     0.40405   0.85544   0.78213   0.00000  Uiso   1.00
O1405  O     0.58824   0.81892   0.77013   0.00000  Uiso   1.00
O1406  O     0.47093   0.73610   0.73413   0.00000  Uiso   1.00
O1407  O     0.53678   0.92286   0.71360   0.00000  Uiso   1.00
Zn1408 Zn    0.52672   0.80661   0.78734   0.00000  Uiso   1.00
Zn1409 Zn    0.46713   0.79124   0.71875   0.00000  Uiso   1.00
Zn1410 Zn    0.54389   0.86442   0.70657   0.00000  Uiso   1.00
Zn1411 Zn    0.46226   0.87106   0.78733   0.00000  Uiso   1.00
C1412  C     0.71971   0.82617   0.75969   0.00000  Uiso   1.00
C1413  C     0.84572   0.83417   0.55609   0.00000  Uiso   1.00
C1414  C     0.86952   0.76817   0.56047   0.00000  Uiso   1.00
C1415  C     0.94752   0.84008   0.73961   0.00000  Uiso   1.00
C1416  C     0.80278   0.85706   0.92159   0.00000  Uiso   1.00
C1417  C     0.99342   0.84430   0.73676   0.00000  Uiso   1.00
C1418  C     0.67487   0.82218   0.76287   0.00000  Uiso   1.00
C1419  C     0.84593   0.98875   0.73251   0.00000  Uiso   1.00
C1420  C     0.81992   0.67852   0.76328   0.00000  Uiso   1.00
C1421  C     0.82208   0.72265   0.76090   0.00000  Uiso   1.00
C1422  C     0.84285   0.94446   0.73917   0.00000  Uiso   1.00
C1423  C     0.77595   0.89975   0.99163   0.00000  Uiso   1.00
C1424  C     0.85194   0.81459   0.62919   0.00000  Uiso   1.00
C1425  C     0.81443   0.85102   0.87130   0.00000  Uiso   1.00
C1426  C     0.86819   0.75578   0.51603   0.00000  Uiso   1.00
C1427  C     0.85764   0.80657   0.58069   0.00000  Uiso   1.00
C1428  C     0.78478   0.89351   0.94422   0.00000  Uiso   1.00
C1429  C     0.98315   0.78642   0.78814   0.00000  Uiso   1.00
C1430  C     0.87727   0.67297   0.69204   0.00000  Uiso   1.00
C1431  C     0.88932   0.71799   0.99309   0.00000  Uiso   1.00
C1432  C     0.85839   0.67734   0.99937   0.00000  Uiso   1.00
C1433  C     0.87896   0.97447   0.97023   0.00000  Uiso   1.00
C1434  C     0.79059   0.87336   0.51486   0.00000  Uiso   1.00
C1435  C     0.84915   0.87933   0.57174   0.00000  Uiso   1.00
C1436  C     0.77707   0.92620   0.91895   0.00000  Uiso   1.00
C1437  C     0.75392   0.93494   0.51813   0.00000  Uiso   1.00
C1438  C     0.79489   0.76197   0.89865   0.00000  Uiso   1.00
C1439  C     0.68923   0.87446   0.70554   0.00000  Uiso   1.00
C1440  C     0.81389   0.84094   0.99240   0.00000  Uiso   1.00
C1441  C     0.81167   0.82789   0.94771   0.00000  Uiso   1.00
C1442  C     0.83578   0.81879   0.51442   0.00000  Uiso   1.00
C1443  C     0.84821   0.77953   0.99397   0.00000  Uiso   1.00
C1444  C     0.83777   0.76344   0.95354   0.00000  Uiso   1.00
C1445  C     0.81727   0.78590   0.93176   0.00000  Uiso   1.00
H1446  H     0.88065   0.74807   0.57930   0.00000  Uiso   1.00
H1447  H     0.84974   0.67048   0.53532   0.00000  Uiso   1.00
H1448  H     0.82856   0.68017   0.99000   0.00000  Uiso   1.00
H1449  H     0.90347   0.72228   0.95676   0.00000  Uiso   1.00
H1450  H     0.91674   0.71551   0.50709   0.00000  Uiso   1.00
H1451  H     0.87461   0.93803   0.55703   0.00000  Uiso   1.00
H1452  H     0.80059   0.97905   0.88776   0.00000  Uiso   1.00
H1453  H     0.74446   0.97350   0.57508   0.00000  Uiso   1.00
H1454  H     0.74526   0.75539   0.87015   0.00000  Uiso   1.00
H1455  H     0.74042   0.91898   0.69406   0.00000  Uiso   1.00
H1456  H     0.79815   0.99865   0.79289   0.00000  Uiso   1.00
H1457  H     0.84277   0.73191   0.94012   0.00000  Uiso   1.00
H1458  H     0.78193   0.87737   0.55115   0.00000  Uiso   1.00
H1459  H     0.94606   0.73076   0.78689   0.00000  Uiso   1.00
H1460  H     0.91677   0.72237   0.66416   0.00000  Uiso   1.00
H1461  H     0.88634   0.98005   0.93402   0.00000  Uiso   1.00
H1462  H     0.90890   0.97085   0.97895   0.00000  Uiso   1.00
H1463  H     0.85682   0.94508   0.97584   0.00000  Uiso   1.00
O1464  O     0.83333   0.83333   0.75000   0.00000  Uiso   1.00
O1465  O     0.82118   0.79304   0.65458   0.00000  Uiso   1.00
O1466  O     0.79607   0.87058   0.84968   0.00000  Uiso   1.00
O1467  O     0.87491   0.84425   0.64606   0.00000  Uiso   1.00
O1468  O     0.84118   0.82546   0.84968   0.00000  Uiso   1.00
O1469  O     0.98335   0.78497   0.82744   0.00000  Uiso   1.00
O1470  O     0.96151   0.75340   0.76625   0.00000  Uiso   1.00
O1471  O     0.88668   0.98398   0.65712   0.00000  Uiso   1.00
O1472  O     0.89634   0.71455   0.69380   0.00000  Uiso   1.00
O1473  O     0.82981   0.89110   0.60964   0.00000  Uiso   1.00
O1474  O     0.87441   0.90838   0.54258   0.00000  Uiso   1.00
O1475  O     0.84597   0.74686   0.78213   0.00000  Uiso   1.00
O1476  O     0.74255   0.92434   0.91017   0.00000  Uiso   1.00
O1477  O     0.80945   0.95886   0.90507   0.00000  Uiso   1.00
O1478  O     0.72915   0.95074   0.50382   0.00000  Uiso   1.00
O1479  O     0.76109   0.94961   0.56025   0.00000  Uiso   1.00
O1480  O     0.80840   0.73088   0.87681   0.00000  Uiso   1.00
O1481  O     0.75744   0.77412   0.89360   0.00000  Uiso   1.00
O1482  O     0.68298   0.87709   0.66872   0.00000  Uiso   1.00
O1483  O     0.72319   0.90017   0.71828   0.00000  Uiso   1.00
O1484  O     0.81298   0.92751   0.77013   0.00000  Uiso   1.00
O1485  O     0.74078   0.79958   0.73413   0.00000  Uiso   1.00
O1486  O     0.93360   0.85939   0.71360   0.00000  Uiso   1.00
O1487  O     0.73738   0.85544   0.78213   0.00000  Uiso   1.00
O1488  O     0.92158   0.81892   0.77013   0.00000  Uiso   1.00
O1489  O     0.80426   0.73610   0.73413   0.00000  Uiso   1.00
O1490  O     0.87012   0.92286   0.71360   0.00000  Uiso   1.00
Zn1491 Zn    0.86005   0.80661   0.78734   0.00000  Uiso   1.00
Zn1492 Zn    0.80046   0.79124   0.71875   0.00000  Uiso   1.00
Zn1493 Zn    0.87723   0.86442   0.70657   0.00000  Uiso   1.00
Zn1494 Zn    0.79560   0.87106   0.78733   0.00000  Uiso   1.00
loop_
_geom_bond_atom_site_label_1
_geom_bond_atom_site_label_2
_geom_bond_distance
_geom_bond_site_symmetry_2
_ccdc_geom_bond_type
C1     O74     1.260   .     A
C1     C7      1.433   .     S
C1     O76     1.268   .     A
C2     C16     1.402   .     A
C2     C31     1.426   .     A
C2     C24     1.488   .     S
C3     H35     1.085   .     S
C3     C15     1.395   .     A
C3     C16     1.394   .     A
C4     O75     1.286   .     A
C4     C6      1.469   .     S
C4     O77     1.277   .     A
C5     C30     1.425   .     A
C5     C17     1.432   .     A
C5     C14     1.495   .     S
C6     C90     1.363   .     S
C6     C111    1.498   .     S
C7     C172    1.363   1_455 S
C7     C184    1.487   1_455 S
C8     C11     1.463   .     S
C8     C258    1.341   .     S
C8     C268    1.499   .     S
C9     C10     1.436   .     S
C9     C506    1.341   1_545 S
C9     H543    1.087   1_545 S
C10    O78     1.280   .     A
C10    O64     1.273   .     A
C11    O73     1.279   .     A
C11    O79     1.268   .     A
C12    C17     1.412   .     A
C12    C770    1.393   .     S
C12    C773    1.493   .     S
C13    O56     1.277   .     A
C13    O54     1.269   .     A
C13    C16     1.458   .     S
C14    O55     1.284   .     A
C14    O57     1.302   .     A
C15    C767    1.515   1_554 S
C15    C779    1.418   1_554 S
C17    C25     1.480   .     S
C18    O58     1.223   .     D
C18    O59     1.399   .     S
C18    C90     1.487   .     S
C19    O61     1.399   .     S
C19    C506    1.499   1_545 S
C19    O558    1.223   1_545 S
C20    H38     1.111   .     S
C20    C21     1.533   .     S
C20    C762    1.515   .     S
C20    H786    1.113   .     S
C21    H37     1.111   .     S
C21    C520    1.526   1_545 S
C21    H783    1.112   .     S
C22    H50     1.111   .     S
C22    H52     1.107   .     S
C22    H51     1.111   .     S
C22    C270    1.526   .     S
C23    H47     1.078   .     S
C23    C759    1.393   1_554 S
C23    C776    1.406   1_554 S
C24    O63     1.396   .     S
C24    O62     1.224   .     D
C25    O65     1.223   .     D
C25    O66     1.397   .     S
C26    O67     1.222   .     D
C26    O68     1.399   .     S
C26    C759    1.493   1_554 S
C27    O69     1.223   .     D
C27    C34     1.491   .     S
C27    O70     1.399   .     S
C28    O72     1.399   .     S
C28    O71     1.223   .     D
C28    C172    1.498   1_455 S
C29    C30     1.414   .     A
C29    C770    1.406   .     S
C29    C778    1.427   .     S
C30    C34     1.419   .     A
C31    C776    1.427   1_554 S
C31    C779    1.426   1_554 S
C32    C33     1.403   .     A
C32    C778    1.426   .     S
C32    C762    1.418   .     S
C33    H46     1.081   .     S
C33    C34     1.396   .     A
H36    C768    1.112   1_554 S
H39    C767    1.113   1_554 S
H40    O63     1.014   .     S
H41    O66     1.013   .     S
H42    O68     1.014   .     S
H43    O70     1.014   .     S
H44    O72     1.014   .     S
H45    C258    1.087   .     S
H48    O59     1.014   .     S
H49    O61     1.014   .     S
O53    Zn81    1.935   .     S
O53    Zn80    1.967   .     S
O53    Zn83    1.938   .     S
O53    Zn82    1.932   .     S
O54    Zn81    1.923   .     S
O55    Zn83    1.933   .     S
O56    Zn82    1.924   .     S
O57    Zn80    1.918   .     S
O60    C268    1.223   .     S
O64    Zn80    1.924   .     S
O73    Zn83    1.929   .     S
O74    Zn81    1.942   .     S
O75    Zn82    1.951   .     S
O76    Zn83    1.940   .     S
O77    Zn80    1.934   .     S
O78    Zn81    1.939   .     S
O79    Zn82    1.932   .     S
C84    O157    1.260   .     A
C84    C90     1.433   .     S
C84    O159    1.268   .     A
C85    C99     1.402   .     A
C85    C114    1.426   .     A
C85    C107    1.488   .     S
C86    H118    1.085   .     S
C86    C98     1.395   .     A
C86    C99     1.394   .     A
C87    O158    1.286   .     A
C87    C89     1.469   .     S
C87    O160    1.277   .     A
C88    C113    1.425   .     A
C88    C100    1.432   .     A
C88    C97     1.495   .     S
C89    C173    1.363   .     S
C89    C194    1.498   .     S
C91    C94     1.463   .     S
C91    C341    1.341   .     S
C91    C351    1.499   .     S
C92    C93     1.436   .     S
C92    C589    1.341   1_545 S
C92    H626    1.087   1_545 S
C93    O161    1.280   .     A
C93    O147    1.273   .     A
C94    O156    1.279   .     A
C94    O162    1.268   .     A
C95    C100    1.412   .     A
C95    C853    1.393   .     S
C95    C856    1.493   .     S
C96    O139    1.277   .     A
C96    O137    1.269   .     A
C96    C99     1.458   .     S
C97    O138    1.284   .     A
C97    O140    1.302   .     A
C98    C850    1.515   1_554 S
C98    C862    1.418   1_554 S
C100   C108    1.480   .     S
C101   O141    1.223   .     D
C101   O142    1.399   .     S
C101   C173    1.487   .     S
C102   O144    1.399   .     S
C102   C589    1.499   1_545 S
C102   O641    1.223   1_545 S
C103   H121    1.111   .     S
C103   C104    1.533   .     S
C103   C845    1.515   .     S
C103   H869    1.113   .     S
C104   H120    1.111   .     S
C104   C603    1.526   1_545 S
C104   H866    1.112   .     S
C105   H133    1.111   .     S
C105   H135    1.107   .     S
C105   H134    1.111   .     S
C105   C353    1.526   .     S
C106   H130    1.078   .     S
C106   C842    1.393   1_554 S
C106   C859    1.406   1_554 S
C107   O146    1.396   .     S
C107   O145    1.224   .     D
C108   O148    1.223   .     D
C108   O149    1.397   .     S
C109   O150    1.222   .     D
C109   O151    1.399   .     S
C109   C842    1.493   1_554 S
C110   O152    1.223   .     D
C110   C117    1.491   .     S
C110   O153    1.399   .     S
C111   O155    1.399   .     S
C111   O154    1.223   .     D
C112   C113    1.414   .     A
C112   C853    1.406   .     S
C112   C861    1.427   .     S
C113   C117    1.419   .     A
C114   C859    1.427   1_554 S
C114   C862    1.426   1_554 S
C115   C116    1.403   .     A
C115   C861    1.426   .     S
C115   C845    1.418   .     S
C116   H129    1.081   .     S
C116   C117    1.396   .     A
H119   C851    1.112   1_554 S
H122   C850    1.113   1_554 S
H123   O146    1.014   .     S
H124   O149    1.013   .     S
H125   O151    1.014   .     S
H126   O153    1.014   .     S
H127   O155    1.014   .     S
H128   C341    1.087   .     S
H131   O142    1.014   .     S
H132   O144    1.014   .     S
O136   Zn164   1.935   .     S
O136   Zn163   1.967   .     S
O136   Zn166   1.938   .     S
O136   Zn165   1.932   .     S
O137   Zn164   1.923   .     S
O138   Zn166   1.933   .     S
O139   Zn165   1.924   .     S
O140   Zn163   1.918   .     S
O143   C351    1.223   .     S
O147   Zn163   1.924   .     S
O156   Zn166   1.929   .     S
O157   Zn164   1.942   .     S
O158   Zn165   1.951   .     S
O159   Zn166   1.940   .     S
O160   Zn163   1.934   .     S
O161   Zn164   1.939   .     S
O162   Zn165   1.932   .     S
C167   O240    1.260   .     A
C167   C173    1.433   .     S
C167   O242    1.268   .     A
C168   C182    1.402   .     A
C168   C197    1.426   .     A
C168   C190    1.488   .     S
C169   H201    1.085   .     S
C169   C181    1.395   .     A
C169   C182    1.394   .     A
C170   O241    1.286   .     A
C170   C172    1.469   .     S
C170   O243    1.277   .     A
C171   C196    1.425   .     A
C171   C183    1.432   .     A
C171   C180    1.495   .     S
C172   C7      1.363   1_655 S
C172   C28     1.498   1_655 S
C174   C177    1.463   .     S
C174   C424    1.341   .     S
C174   C434    1.499   .     S
C175   C176    1.436   .     S
C175   C672    1.341   1_545 S
C175   H709    1.087   1_545 S
C176   O244    1.280   .     A
C176   O230    1.273   .     A
C177   O239    1.279   .     A
C177   O245    1.268   .     A
C178   C183    1.412   .     A
C178   C936    1.393   .     S
C178   C939    1.493   .     S
C179   O222    1.277   .     A
C179   O220    1.269   .     A
C179   C182    1.458   .     S
C180   O221    1.284   .     A
C180   O223    1.302   .     A
C181   C933    1.515   1_554 S
C181   C945    1.418   1_554 S
C183   C191    1.480   .     S
C184   O224    1.223   .     D
C184   O225    1.399   .     S
C184   C7      1.487   1_655 S
C185   O227    1.399   .     S
C185   C672    1.499   1_545 S
C185   O724    1.223   1_545 S
C186   H204    1.111   .     S
C186   C187    1.533   .     S
C186   C928    1.515   .     S
C186   H952    1.113   .     S
C187   H203    1.111   .     S
C187   C686    1.526   1_545 S
C187   H949    1.112   .     S
C188   H216    1.111   .     S
C188   H218    1.107   .     S
C188   H217    1.111   .     S
C188   C436    1.526   .     S
C189   H213    1.078   .     S
C189   C925    1.393   1_554 S
C189   C942    1.406   1_554 S
C190   O229    1.396   .     S
C190   O228    1.224   .     D
C191   O231    1.223   .     D
C191   O232    1.397   .     S
C192   O233    1.222   .     D
C192   O234    1.399   .     S
C192   C925    1.493   1_554 S
C193   O235    1.223   .     D
C193   C200    1.491   .     S
C193   O236    1.399   .     S
C194   O238    1.399   .     S
C194   O237    1.223   .     D
C195   C196    1.414   .     A
C195   C936    1.406   .     S
C195   C944    1.427   .     S
C196   C200    1.419   .     A
C197   C942    1.427   1_554 S
C197   C945    1.426   1_554 S
C198   C199    1.403   .     A
C198   C944    1.426   .     S
C198   C928    1.418   .     S
C199   H212    1.081   .     S
C199   C200    1.396   .     A
H202   C934    1.112   1_554 S
H205   C933    1.113   1_554 S
H206   O229    1.014   .     S
H207   O232    1.013   .     S
H208   O234    1.014   .     S
H209   O236    1.014   .     S
H210   O238    1.014   .     S
H211   C424    1.087   .     S
H214   O225    1.014   .     S
H215   O227    1.014   .     S
O219   Zn247   1.935   .     S
O219   Zn246   1.967   .     S
O219   Zn249   1.938   .     S
O219   Zn248   1.932   .     S
O220   Zn247   1.923   .     S
O221   Zn249   1.933   .     S
O222   Zn248   1.924   .     S
O223   Zn246   1.918   .     S
O226   C434    1.223   .     S
O230   Zn246   1.924   .     S
O239   Zn249   1.929   .     S
O240   Zn247   1.942   .     S
O241   Zn248   1.951   .     S
O242   Zn249   1.940   .     S
O243   Zn246   1.934   .     S
O244   Zn247   1.939   .     S
O245   Zn248   1.932   .     S
C250   O323    1.260   .     A
C250   C256    1.433   .     S
C250   O325    1.268   .     A
C251   C265    1.402   .     A
C251   C280    1.426   .     A
C251   C273    1.488   .     S
C252   H284    1.085   .     S
C252   C264    1.395   .     A
C252   C265    1.394   .     A
C253   O324    1.286   .     A
C253   C255    1.469   .     S
C253   O326    1.277   .     A
C254   C279    1.425   .     A
C254   C266    1.432   .     A
C254   C263    1.495   .     S
C255   C339    1.363   .     S
C255   C360    1.498   .     S
C256   C421    1.363   1_455 S
C256   C433    1.487   1_455 S
C257   C260    1.463   .     S
C257   C507    1.341   .     S
C257   C517    1.499   .     S
C258   C259    1.436   .     S
C259   O327    1.280   .     A
C259   O313    1.273   .     A
C260   O322    1.279   .     A
C260   O328    1.268   .     A
C261   C266    1.412   .     A
C261   C1019   1.393   .     S
C261   C1022   1.493   .     S
C262   O305    1.277   .     A
C262   O303    1.269   .     A
C262   C265    1.458   .     S
C263   O304    1.284   .     A
C263   O306    1.302   .     A
C264   C1016   1.515   1_554 S
C264   C1028   1.418   1_554 S
C266   C274    1.480   .     S
C267   O307    1.223   .     D
C267   O308    1.399   .     S
C267   C339    1.487   .     S
C268   O310    1.399   .     S
C269   H287    1.111   .     S
C269   C270    1.533   .     S
C269   C1011   1.515   .     S
C269   H1035   1.113   .     S
C270   H286    1.111   .     S
C270   H1032   1.112   .     S
C271   H299    1.111   .     S
C271   H301    1.107   .     S
C271   H300    1.111   .     S
C271   C519    1.526   .     S
C272   H296    1.078   .     S
C272   C1008   1.393   1_554 S
C272   C1025   1.406   1_554 S
C273   O312    1.396   .     S
C273   O311    1.224   .     D
C274   O314    1.223   .     D
C274   O315    1.397   .     S
C275   O316    1.222   .     D
C275   O317    1.399   .     S
C275   C1008   1.493   1_554 S
C276   O318    1.223   .     D
C276   C283    1.491   .     S
C276   O319    1.399   .     S
C277   O321    1.399   .     S
C277   O320    1.223   .     D
C277   C421    1.498   1_455 S
C278   C279    1.414   .     A
C278   C1019   1.406   .     S
C278   C1027   1.427   .     S
C279   C283    1.419   .     A
C280   C1025   1.427   1_554 S
C280   C1028   1.426   1_554 S
C281   C282    1.403   .     A
C281   C1027   1.426   .     S
C281   C1011   1.418   .     S
C282   H295    1.081   .     S
C282   C283    1.396   .     A
H285   C1017   1.112   1_554 S
H288   C1016   1.113   1_554 S
H289   O312    1.014   .     S
H290   O315    1.013   .     S
H291   O317    1.014   .     S
H292   O319    1.014   .     S
H293   O321    1.014   .     S
H294   C507    1.087   .     S
H297   O308    1.014   .     S
H298   O310    1.014   .     S
O302   Zn330   1.935   .     S
O302   Zn329   1.967   .     S
O302   Zn332   1.938   .     S
O302   Zn331   1.932   .     S
O303   Zn330   1.923   .     S
O304   Zn332   1.933   .     S
O305   Zn331   1.924   .     S
O306   Zn329   1.918   .     S
O309   C517    1.223   .     S
O313   Zn329   1.924   .     S
O322   Zn332   1.929   .     S
O323   Zn330   1.942   .     S
O324   Zn331   1.951   .     S
O325   Zn332   1.940   .     S
O326   Zn329   1.934   .     S
O327   Zn330   1.939   .     S
O328   Zn331   1.932   .     S
C333   O406    1.260   .     A
C333   C339    1.433   .     S
C333   O408    1.268   .     A
C334   C348    1.402   .     A
C334   C363    1.426   .     A
C334   C356    1.488   .     S
C335   H367    1.085   .     S
C335   C347    1.395   .     A
C335   C348    1.394   .     A
C336   O407    1.286   .     A
C336   C338    1.469   .     S
C336   O409    1.277   .     A
C337   C362    1.425   .     A
C337   C349    1.432   .     A
C337   C346    1.495   .     S
C338   C422    1.363   .     S
C338   C443    1.498   .     S
C340   C343    1.463   .     S
C340   C590    1.341   .     S
C340   C600    1.499   .     S
C341   C342    1.436   .     S
C342   O410    1.280   .     A
C342   O396    1.273   .     A
C343   O405    1.279   .     A
C343   O411    1.268   .     A
C344   C349    1.412   .     A
C344   C1102   1.393   .     S
C344   C1105   1.493   .     S
C345   O388    1.277   .     A
C345   O386    1.269   .     A
C345   C348    1.458   .     S
C346   O387    1.284   .     A
C346   O389    1.302   .     A
C347   C1099   1.515   1_554 S
C347   C1111   1.418   1_554 S
C349   C357    1.480   .     S
C350   O390    1.223   .     D
C350   O391    1.399   .     S
C350   C422    1.487   .     S
C351   O393    1.399   .     S
C352   H370    1.111   .     S
C352   C353    1.533   .     S
C352   C1094   1.515   .     S
C352   H1118   1.113   .     S
C353   H369    1.111   .     S
C353   H1115   1.112   .     S
C354   H382    1.111   .     S
C354   H384    1.107   .     S
C354   H383    1.111   .     S
C354   C602    1.526   .     S
C355   H379    1.078   .     S
C355   C1091   1.393   1_554 S
C355   C1108   1.406   1_554 S
C356   O395    1.396   .     S
C356   O394    1.224   .     D
C357   O397    1.223   .     D
C357   O398    1.397   .     S
C358   O399    1.222   .     D
C358   O400    1.399   .     S
C358   C1091   1.493   1_554 S
C359   O401    1.223   .     D
C359   C366    1.491   .     S
C359   O402    1.399   .     S
C360   O404    1.399   .     S
C360   O403    1.223   .     D
C361   C362    1.414   .     A
C361   C1102   1.406   .     S
C361   C1110   1.427   .     S
C362   C366    1.419   .     A
C363   C1108   1.427   1_554 S
C363   C1111   1.426   1_554 S
C364   C365    1.403   .     A
C364   C1110   1.426   .     S
C364   C1094   1.418   .     S
C365   H378    1.081   .     S
C365   C366    1.396   .     A
H368   C1100   1.112   1_554 S
H371   C1099   1.113   1_554 S
H372   O395    1.014   .     S
H373   O398    1.013   .     S
H374   O400    1.014   .     S
H375   O402    1.014   .     S
H376   O404    1.014   .     S
H377   C590    1.087   .     S
H380   O391    1.014   .     S
H381   O393    1.014   .     S
O385   Zn413   1.935   .     S
O385   Zn412   1.967   .     S
O385   Zn415   1.938   .     S
O385   Zn414   1.932   .     S
O386   Zn413   1.923   .     S
O387   Zn415   1.933   .     S
O388   Zn414   1.924   .     S
O389   Zn412   1.918   .     S
O392   C600    1.223   .     S
O396   Zn412   1.924   .     S
O405   Zn415   1.929   .     S
O406   Zn413   1.942   .     S
O407   Zn414   1.951   .     S
O408   Zn415   1.940   .     S
O409   Zn412   1.934   .     S
O410   Zn413   1.939   .     S
O411   Zn414   1.932   .     S
C416   O489    1.260   .     A
C416   C422    1.433   .     S
C416   O491    1.268   .     A
C417   C431    1.402   .     A
C417   C446    1.426   .     A
C417   C439    1.488   .     S
C418   H450    1.085   .     S
C418   C430    1.395   .     A
C418   C431    1.394   .     A
C419   O490    1.286   .     A
C419   C421    1.469   .     S
C419   O492    1.277   .     A
C420   C445    1.425   .     A
C420   C432    1.432   .     A
C420   C429    1.495   .     S
C421   C256    1.363   1_655 S
C421   C277    1.498   1_655 S
C423   C426    1.463   .     S
C423   C673    1.341   .     S
C423   C683    1.499   .     S
C424   C425    1.436   .     S
C425   O493    1.280   .     A
C425   O479    1.273   .     A
C426   O488    1.279   .     A
C426   O494    1.268   .     A
C427   C432    1.412   .     A
C427   C1185   1.393   .     S
C427   C1188   1.493   .     S
C428   O471    1.277   .     A
C428   O469    1.269   .     A
C428   C431    1.458   .     S
C429   O470    1.284   .     A
C429   O472    1.302   .     A
C430   C1182   1.515   1_554 S
C430   C1194   1.418   1_554 S
C432   C440    1.480   .     S
C433   O473    1.223   .     D
C433   O474    1.399   .     S
C433   C256    1.487   1_655 S
C434   O476    1.399   .     S
C435   H453    1.111   .     S
C435   C436    1.533   .     S
C435   C1177   1.515   .     S
C435   H1201   1.113   .     S
C436   H452    1.111   .     S
C436   H1198   1.112   .     S
C437   H465    1.111   .     S
C437   H467    1.107   .     S
C437   H466    1.111   .     S
C437   C685    1.526   .     S
C438   H462    1.078   .     S
C438   C1174   1.393   1_554 S
C438   C1191   1.406   1_554 S
C439   O478    1.396   .     S
C439   O477    1.224   .     D
C440   O480    1.223   .     D
C440   O481    1.397   .     S
C441   O482    1.222   .     D
C441   O483    1.399   .     S
C441   C1174   1.493   1_554 S
C442   O484    1.223   .     D
C442   C449    1.491   .     S
C442   O485    1.399   .     S
C443   O487    1.399   .     S
C443   O486    1.223   .     D
C444   C445    1.414   .     A
C444   C1185   1.406   .     S
C444   C1193   1.427   .     S
C445   C449    1.419   .     A
C446   C1191   1.427   1_554 S
C446   C1194   1.426   1_554 S
C447   C448    1.403   .     A
C447   C1193   1.426   .     S
C447   C1177   1.418   .     S
C448   H461    1.081   .     S
C448   C449    1.396   .     A
H451   C1183   1.112   1_554 S
H454   C1182   1.113   1_554 S
H455   O478    1.014   .     S
H456   O481    1.013   .     S
H457   O483    1.014   .     S
H458   O485    1.014   .     S
H459   O487    1.014   .     S
H460   C673    1.087   .     S
H463   O474    1.014   .     S
H464   O476    1.014   .     S
O468   Zn496   1.935   .     S
O468   Zn495   1.967   .     S
O468   Zn498   1.938   .     S
O468   Zn497   1.932   .     S
O469   Zn496   1.923   .     S
O470   Zn498   1.933   .     S
O471   Zn497   1.924   .     S
O472   Zn495   1.918   .     S
O475   C683    1.223   .     S
O479   Zn495   1.924   .     S
O488   Zn498   1.929   .     S
O489   Zn496   1.942   .     S
O490   Zn497   1.951   .     S
O491   Zn498   1.940   .     S
O492   Zn495   1.934   .     S
O493   Zn496   1.939   .     S
O494   Zn497   1.932   .     S
C499   O572    1.260   .     A
C499   C505    1.433   .     S
C499   O574    1.268   .     A
C500   C514    1.402   .     A
C500   C529    1.426   .     A
C500   C522    1.488   .     S
C501   H533    1.085   .     S
C501   C513    1.395   .     A
C501   C514    1.394   .     A
C502   O573    1.286   .     A
C502   C504    1.469   .     S
C502   O575    1.277   .     A
C503   C528    1.425   .     A
C503   C515    1.432   .     A
C503   C512    1.495   .     S
C504   C588    1.363   .     S
C504   C609    1.498   .     S
C505   C670    1.363   1_455 S
C505   C682    1.487   1_455 S
C506   C509    1.463   .     S
C506   C9      1.341   1_565 S
C506   C19     1.499   1_565 S
C507   C508    1.436   .     S
C508   O576    1.280   .     A
C508   O562    1.273   .     A
C509   O571    1.279   .     A
C509   O577    1.268   .     A
C510   C515    1.412   .     A
C510   C1268   1.393   .     S
C510   C1271   1.493   .     S
C511   O554    1.277   .     A
C511   O552    1.269   .     A
C511   C514    1.458   .     S
C512   O553    1.284   .     A
C512   O555    1.302   .     A
C513   C1265   1.515   1_554 S
C513   C1277   1.418   1_554 S
C515   C523    1.480   .     S
C516   O556    1.223   .     D
C516   O557    1.399   .     S
C516   C588    1.487   .     S
C517   O559    1.399   .     S
C518   H536    1.111   .     S
C518   C519    1.533   .     S
C518   C1260   1.515   .     S
C518   H1284   1.113   .     S
C519   H535    1.111   .     S
C519   H1281   1.112   .     S
C520   H548    1.111   .     S
C520   H550    1.107   .     S
C520   H549    1.111   .     S
C520   C21     1.526   1_565 S
C521   H545    1.078   .     S
C521   C1257   1.393   1_554 S
C521   C1274   1.406   1_554 S
C522   O561    1.396   .     S
C522   O560    1.224   .     D
C523   O563    1.223   .     D
C523   O564    1.397   .     S
C524   O565    1.222   .     D
C524   O566    1.399   .     S
C524   C1257   1.493   1_554 S
C525   O567    1.223   .     D
C525   C532    1.491   .     S
C525   O568    1.399   .     S
C526   O570    1.399   .     S
C526   O569    1.223   .     D
C526   C670    1.498   1_455 S
C527   C528    1.414   .     A
C527   C1268   1.406   .     S
C527   C1276   1.427   .     S
C528   C532    1.419   .     A
C529   C1274   1.427   1_554 S
C529   C1277   1.426   1_554 S
C530   C531    1.403   .     A
C530   C1276   1.426   .     S
C530   C1260   1.418   .     S
C531   H544    1.081   .     S
C531   C532    1.396   .     A
H534   C1266   1.112   1_554 S
H537   C1265   1.113   1_554 S
H538   O561    1.014   .     S
H539   O564    1.013   .     S
H540   O566    1.014   .     S
H541   O568    1.014   .     S
H542   O570    1.014   .     S
H543   C9      1.087   1_565 S
H546   O557    1.014   .     S
H547   O559    1.014   .     S
O551   Zn579   1.935   .     S
O551   Zn578   1.967   .     S
O551   Zn581   1.938   .     S
O551   Zn580   1.932   .     S
O552   Zn579   1.923   .     S
O553   Zn581   1.933   .     S
O554   Zn580   1.924   .     S
O555   Zn578   1.918   .     S
O558   C19     1.223   1_565 S
O562   Zn578   1.924   .     S
O571   Zn581   1.929   .     S
O572   Zn579   1.942   .     S
O573   Zn580   1.951   .     S
O574   Zn581   1.940   .     S
O575   Zn578   1.934   .     S
O576   Zn579   1.939   .     S
O577   Zn580   1.932   .     S
C582   O655    1.260   .     A
C582   C588    1.433   .     S
C582   O657    1.268   .     A
C583   C597    1.402   .     A
C583   C612    1.426   .     A
C583   C605    1.488   .     S
C584   H616    1.085   .     S
C584   C596    1.395   .     A
C584   C597    1.394   .     A
C585   O656    1.286   .     A
C585   C587    1.469   .     S
C585   O658    1.277   .     A
C586   C611    1.425   .     A
C586   C598    1.432   .     A
C586   C595    1.495   .     S
C587   C671    1.363   .     S
C587   C692    1.498   .     S
C589   C592    1.463   .     S
C589   C92     1.341   1_565 S
C589   C102    1.499   1_565 S
C590   C591    1.436   .     S
C591   O659    1.280   .     A
C591   O645    1.273   .     A
C592   O654    1.279   .     A
C592   O660    1.268   .     A
C593   C598    1.412   .     A
C593   C1351   1.393   .     S
C593   C1354   1.493   .     S
C594   O637    1.277   .     A
C594   O635    1.269   .     A
C594   C597    1.458   .     S
C595   O636    1.284   .     A
C595   O638    1.302   .     A
C596   C1348   1.515   1_554 S
C596   C1360   1.418   1_554 S
C598   C606    1.480   .     S
C599   O639    1.223   .     D
C599   O640    1.399   .     S
C599   C671    1.487   .     S
C600   O642    1.399   .     S
C601   H619    1.111   .     S
C601   C602    1.533   .     S
C601   C1343   1.515   .     S
C601   H1367   1.113   .     S
C602   H618    1.111   .     S
C602   H1364   1.112   .     S
C603   H631    1.111   .     S
C603   H633    1.107   .     S
C603   H632    1.111   .     S
C603   C104    1.526   1_565 S
C604   H628    1.078   .     S
C604   C1340   1.393   1_554 S
C604   C1357   1.406   1_554 S
C605   O644    1.396   .     S
C605   O643    1.224   .     D
C606   O646    1.223   .     D
C606   O647    1.397   .     S
C607   O648    1.222   .     D
C607   O649    1.399   .     S
C607   C1340   1.493   1_554 S
C608   O650    1.223   .     D
C608   C615    1.491   .     S
C608   O651    1.399   .     S
C609   O653    1.399   .     S
C609   O652    1.223   .     D
C610   C611    1.414   .     A
C610   C1351   1.406   .     S
C610   C1359   1.427   .     S
C611   C615    1.419   .     A
C612   C1357   1.427   1_554 S
C612   C1360   1.426   1_554 S
C613   C614    1.403   .     A
C613   C1359   1.426   .     S
C613   C1343   1.418   .     S
C614   H627    1.081   .     S
C614   C615    1.396   .     A
H617   C1349   1.112   1_554 S
H620   C1348   1.113   1_554 S
H621   O644    1.014   .     S
H622   O647    1.013   .     S
H623   O649    1.014   .     S
H624   O651    1.014   .     S
H625   O653    1.014   .     S
H626   C92     1.087   1_565 S
H629   O640    1.014   .     S
H630   O642    1.014   .     S
O634   Zn662   1.935   .     S
O634   Zn661   1.967   .     S
O634   Zn664   1.938   .     S
O634   Zn663   1.932   .     S
O635   Zn662   1.923   .     S
O636   Zn664   1.933   .     S
O637   Zn663   1.924   .     S
O638   Zn661   1.918   .     S
O641   C102    1.223   1_565 S
O645   Zn661   1.924   .     S
O654   Zn664   1.929   .     S
O655   Zn662   1.942   .     S
O656   Zn663   1.951   .     S
O657   Zn664   1.940   .     S
O658   Zn661   1.934   .     S
O659   Zn662   1.939   .     S
O660   Zn663   1.932   .     S
C665   O738    1.260   .     A
C665   C671    1.433   .     S
C665   O740    1.268   .     A
C666   C680    1.402   .     A
C666   C695    1.426   .     A
C666   C688    1.488   .     S
C667   H699    1.085   .     S
C667   C679    1.395   .     A
C667   C680    1.394   .     A
C668   O739    1.286   .     A
C668   C670    1.469   .     S
C668   O741    1.277   .     A
C669   C694    1.425   .     A
C669   C681    1.432   .     A
C669   C678    1.495   .     S
C670   C505    1.363   1_655 S
C670   C526    1.498   1_655 S
C672   C675    1.463   .     S
C672   C175    1.341   1_565 S
C672   C185    1.499   1_565 S
C673   C674    1.436   .     S
C674   O742    1.280   .     A
C674   O728    1.273   .     A
C675   O737    1.279   .     A
C675   O743    1.268   .     A
C676   C681    1.412   .     A
C676   C1434   1.393   .     S
C676   C1437   1.493   .     S
C677   O720    1.277   .     A
C677   O718    1.269   .     A
C677   C680    1.458   .     S
C678   O719    1.284   .     A
C678   O721    1.302   .     A
C679   C1431   1.515   1_554 S
C679   C1443   1.418   1_554 S
C681   C689    1.480   .     S
C682   O722    1.223   .     D
C682   O723    1.399   .     S
C682   C505    1.487   1_655 S
C683   O725    1.399   .     S
C684   H702    1.111   .     S
C684   C685    1.533   .     S
C684   C1426   1.515   .     S
C684   H1450   1.113   .     S
C685   H701    1.111   .     S
C685   H1447   1.112   .     S
C686   H714    1.111   .     S
C686   H716    1.107   .     S
C686   H715    1.111   .     S
C686   C187    1.526   1_565 S
C687   H711    1.078   .     S
C687   C1423   1.393   1_554 S
C687   C1440   1.406   1_554 S
C688   O727    1.396   .     S
C688   O726    1.224   .     D
C689   O729    1.223   .     D
C689   O730    1.397   .     S
C690   O731    1.222   .     D
C690   O732    1.399   .     S
C690   C1423   1.493   1_554 S
C691   O733    1.223   .     D
C691   C698    1.491   .     S
C691   O734    1.399   .     S
C692   O736    1.399   .     S
C692   O735    1.223   .     D
C693   C694    1.414   .     A
C693   C1434   1.406   .     S
C693   C1442   1.427   .     S
C694   C698    1.419   .     A
C695   C1440   1.427   1_554 S
C695   C1443   1.426   1_554 S
C696   C697    1.403   .     A
C696   C1442   1.426   .     S
C696   C1426   1.418   .     S
C697   H710    1.081   .     S
C697   C698    1.396   .     A
H700   C1432   1.112   1_554 S
H703   C1431   1.113   1_554 S
H704   O727    1.014   .     S
H705   O730    1.013   .     S
H706   O732    1.014   .     S
H707   O734    1.014   .     S
H708   O736    1.014   .     S
H709   C175    1.087   1_565 S
H712   O723    1.014   .     S
H713   O725    1.014   .     S
O717   Zn745   1.935   .     S
O717   Zn744   1.967   .     S
O717   Zn747   1.938   .     S
O717   Zn746   1.932   .     S
O718   Zn745   1.923   .     S
O719   Zn747   1.933   .     S
O720   Zn746   1.924   .     S
O721   Zn744   1.918   .     S
O724   C185    1.223   1_565 S
O728   Zn744   1.924   .     S
O737   Zn747   1.929   .     S
O738   Zn745   1.942   .     S
O739   Zn746   1.951   .     S
O740   Zn747   1.940   .     S
O741   Zn744   1.934   .     S
O742   Zn745   1.939   .     S
O743   Zn746   1.932   .     S
C748   O821    1.260   .     A
C748   C754    1.433   .     S
C748   O823    1.268   .     A
C749   C763    1.402   .     A
C749   C778    1.426   .     A
C749   C771    1.488   .     S
C750   H782    1.085   .     S
C750   C762    1.395   .     A
C750   C763    1.394   .     A
C751   O822    1.286   .     A
C751   C753    1.469   .     S
C751   O824    1.277   .     A
C752   C777    1.425   .     A
C752   C764    1.432   .     A
C752   C761    1.495   .     S
C753   C837    1.363   .     S
C753   C858    1.498   .     S
C754   C919    1.363   1_455 S
C754   C931    1.487   1_455 S
C755   C758    1.463   .     S
C755   C1005   1.341   .     S
C755   C1015   1.499   .     S
C756   C757    1.436   .     S
C756   C1253   1.341   1_545 S
C756   H1290   1.087   1_545 S
C757   O825    1.280   .     A
C757   O811    1.273   .     A
C758   O820    1.279   .     A
C758   O826    1.268   .     A
C759   C764    1.412   .     A
C759   C23     1.393   1_556 S
C759   C26     1.493   1_556 S
C760   O803    1.277   .     A
C760   O801    1.269   .     A
C760   C763    1.458   .     S
C761   O802    1.284   .     A
C761   O804    1.302   .     A
C764   C772    1.480   .     S
C765   O805    1.223   .     D
C765   O806    1.399   .     S
C765   C837    1.487   .     S
C766   O808    1.399   .     S
C766   C1253   1.499   1_545 S
C766   O1305   1.223   1_545 S
C767   H785    1.111   .     S
C767   C768    1.533   .     S
C767   C15     1.515   1_556 S
C767   H39     1.113   1_556 S
C768   H784    1.111   .     S
C768   C1267   1.526   1_545 S
C768   H36     1.112   1_556 S
C769   H797    1.111   .     S
C769   H799    1.107   .     S
C769   H798    1.111   .     S
C769   C1017   1.526   .     S
C770   H794    1.078   .     S
C771   O810    1.396   .     S
C771   O809    1.224   .     D
C772   O812    1.223   .     D
C772   O813    1.397   .     S
C773   O814    1.222   .     D
C773   O815    1.399   .     S
C774   O816    1.223   .     D
C774   C781    1.491   .     S
C774   O817    1.399   .     S
C775   O819    1.399   .     S
C775   O818    1.223   .     D
C775   C919    1.498   1_455 S
C776   C777    1.414   .     A
C776   C23     1.406   1_556 S
C776   C31     1.427   1_556 S
C777   C781    1.419   .     A
C779   C780    1.403   .     A
C779   C31     1.426   1_556 S
C779   C15     1.418   1_556 S
C780   H793    1.081   .     S
C780   C781    1.396   .     A
H787   O810    1.014   .     S
H788   O813    1.013   .     S
H789   O815    1.014   .     S
H790   O817    1.014   .     S
H791   O819    1.014   .     S
H792   C1005   1.087   .     S
H795   O806    1.014   .     S
H796   O808    1.014   .     S
O800   Zn828   1.935   .     S
O800   Zn827   1.967   .     S
O800   Zn830   1.938   .     S
O800   Zn829   1.932   .     S
O801   Zn828   1.923   .     S
O802   Zn830   1.933   .     S
O803   Zn829   1.924   .     S
O804   Zn827   1.918   .     S
O807   C1015   1.223   .     S
O811   Zn827   1.924   .     S
O820   Zn830   1.929   .     S
O821   Zn828   1.942   .     S
O822   Zn829   1.951   .     S
O823   Zn830   1.940   .     S
O824   Zn827   1.934   .     S
O825   Zn828   1.939   .     S
O826   Zn829   1.932   .     S
C831   O904    1.260   .     A
C831   C837    1.433   .     S
C831   O906    1.268   .     A
C832   C846    1.402   .     A
C832   C861    1.426   .     A
C832   C854    1.488   .     S
C833   H865    1.085   .     S
C833   C845    1.395   .     A
C833   C846    1.394   .     A
C834   O905    1.286   .     A
C834   C836    1.469   .     S
C834   O907    1.277   .     A
C835   C860    1.425   .     A
C835   C847    1.432   .     A
C835   C844    1.495   .     S
C836   C920    1.363   .     S
C836   C941    1.498   .     S
C838   C841    1.463   .     S
C838   C1088   1.341   .     S
C838   C1098   1.499   .     S
C839   C840    1.436   .     S
C839   C1336   1.341   1_545 S
C839   H1373   1.087   1_545 S
C840   O908    1.280   .     A
C840   O894    1.273   .     A
C841   O903    1.279   .     A
C841   O909    1.268   .     A
C842   C847    1.412   .     A
C842   C106    1.393   1_556 S
C842   C109    1.493   1_556 S
C843   O886    1.277   .     A
C843   O884    1.269   .     A
C843   C846    1.458   .     S
C844   O885    1.284   .     A
C844   O887    1.302   .     A
C847   C855    1.480   .     S
C848   O888    1.223   .     D
C848   O889    1.399   .     S
C848   C920    1.487   .     S
C849   O891    1.399   .     S
C849   C1336   1.499   1_545 S
C849   O1388   1.223   1_545 S
C850   H868    1.111   .     S
C850   C851    1.533   .     S
C850   C98     1.515   1_556 S
C850   H122    1.113   1_556 S
C851   H867    1.111   .     S
C851   C1350   1.526   1_545 S
C851   H119    1.112   1_556 S
C852   H880    1.111   .     S
C852   H882    1.107   .     S
C852   H881    1.111   .     S
C852   C1100   1.526   .     S
C853   H877    1.078   .     S
C854   O893    1.396   .     S
C854   O892    1.224   .     D
C855   O895    1.223   .     D
C855   O896    1.397   .     S
C856   O897    1.222   .     D
C856   O898    1.399   .     S
C857   O899    1.223   .     D
C857   C864    1.491   .     S
C857   O900    1.399   .     S
C858   O902    1.399   .     S
C858   O901    1.223   .     D
C859   C860    1.414   .     A
C859   C106    1.406   1_556 S
C859   C114    1.427   1_556 S
C860   C864    1.419   .     A
C862   C863    1.403   .     A
C862   C114    1.426   1_556 S
C862   C98     1.418   1_556 S
C863   H876    1.081   .     S
C863   C864    1.396   .     A
H870   O893    1.014   .     S
H871   O896    1.013   .     S
H872   O898    1.014   .     S
H873   O900    1.014   .     S
H874   O902    1.014   .     S
H875   C1088   1.087   .     S
H878   O889    1.014   .     S
H879   O891    1.014   .     S
O883   Zn911   1.935   .     S
O883   Zn910   1.967   .     S
O883   Zn913   1.938   .     S
O883   Zn912   1.932   .     S
O884   Zn911   1.923   .     S
O885   Zn913   1.933   .     S
O886   Zn912   1.924   .     S
O887   Zn910   1.918   .     S
O890   C1098   1.223   .     S
O894   Zn910   1.924   .     S
O903   Zn913   1.929   .     S
O904   Zn911   1.942   .     S
O905   Zn912   1.951   .     S
O906   Zn913   1.940   .     S
O907   Zn910   1.934   .     S
O908   Zn911   1.939   .     S
O909   Zn912   1.932   .     S
C914   O987    1.260   .     A
C914   C920    1.433   .     S
C914   O989    1.268   .     A
C915   C929    1.402   .     A
C915   C944    1.426   .     A
C915   C937    1.488   .     S
C916   H948    1.085   .     S
C916   C928    1.395   .     A
C916   C929    1.394   .     A
C917   O988    1.286   .     A
C917   C919    1.469   .     S
C917   O990    1.277   .     A
C918   C943    1.425   .     A
C918   C930    1.432   .     A
C918   C927    1.495   .     S
C919   C754    1.363   1_655 S
C919   C775    1.498   1_655 S
C921   C924    1.463   .     S
C921   C1171   1.341   .     S
C921   C1181   1.499   .     S
C922   C923    1.436   .     S
C922   C1419   1.341   1_545 S
C922   H1456   1.087   1_545 S
C923   O991    1.280   .     A
C923   O977    1.273   .     A
C924   O986    1.279   .     A
C924   O992    1.268   .     A
C925   C930    1.412   .     A
C925   C189    1.393   1_556 S
C925   C192    1.493   1_556 S
C926   O969    1.277   .     A
C926   O967    1.269   .     A
C926   C929    1.458   .     S
C927   O968    1.284   .     A
C927   O970    1.302   .     A
C930   C938    1.480   .     S
C931   O971    1.223   .     D
C931   O972    1.399   .     S
C931   C754    1.487   1_655 S
C932   O974    1.399   .     S
C932   C1419   1.499   1_545 S
C932   O1471   1.223   1_545 S
C933   H951    1.111   .     S
C933   C934    1.533   .     S
C933   C181    1.515   1_556 S
C933   H205    1.113   1_556 S
C934   H950    1.111   .     S
C934   C1433   1.526   1_545 S
C934   H202    1.112   1_556 S
C935   H963    1.111   .     S
C935   H965    1.107   .     S
C935   H964    1.111   .     S
C935   C1183   1.526   .     S
C936   H960    1.078   .     S
C937   O976    1.396   .     S
C937   O975    1.224   .     D
C938   O978    1.223   .     D
C938   O979    1.397   .     S
C939   O980    1.222   .     D
C939   O981    1.399   .     S
C940   O982    1.223   .     D
C940   C947    1.491   .     S
C940   O983    1.399   .     S
C941   O985    1.399   .     S
C941   O984    1.223   .     D
C942   C943    1.414   .     A
C942   C189    1.406   1_556 S
C942   C197    1.427   1_556 S
C943   C947    1.419   .     A
C945   C946    1.403   .     A
C945   C197    1.426   1_556 S
C945   C181    1.418   1_556 S
C946   H959    1.081   .     S
C946   C947    1.396   .     A
H953   O976    1.014   .     S
H954   O979    1.013   .     S
H955   O981    1.014   .     S
H956   O983    1.014   .     S
H957   O985    1.014   .     S
H958   C1171   1.087   .     S
H961   O972    1.014   .     S
H962   O974    1.014   .     S
O966   Zn994   1.935   .     S
O966   Zn993   1.967   .     S
O966   Zn996   1.938   .     S
O966   Zn995   1.932   .     S
O967   Zn994   1.923   .     S
O968   Zn996   1.933   .     S
O969   Zn995   1.924   .     S
O970   Zn993   1.918   .     S
O973   C1181   1.223   .     S
O977   Zn993   1.924   .     S
O986   Zn996   1.929   .     S
O987   Zn994   1.942   .     S
O988   Zn995   1.951   .     S
O989   Zn996   1.940   .     S
O990   Zn993   1.934   .     S
O991   Zn994   1.939   .     S
O992   Zn995   1.932   .     S
C997   O1070   1.260   .     A
C997   C1003   1.433   .     S
C997   O1072   1.268   .     A
C998   C1012   1.402   .     A
C998   C1027   1.426   .     A
C998   C1020   1.488   .     S
C999   H1031   1.085   .     S
C999   C1011   1.395   .     A
C999   C1012   1.394   .     A
C1000  O1071   1.286   .     A
C1000  C1002   1.469   .     S
C1000  O1073   1.277   .     A
C1001  C1026   1.425   .     A
C1001  C1013   1.432   .     A
C1001  C1010   1.495   .     S
C1002  C1086   1.363   .     S
C1002  C1107   1.498   .     S
C1003  C1168   1.363   1_455 S
C1003  C1180   1.487   1_455 S
C1004  C1007   1.463   .     S
C1004  C1254   1.341   .     S
C1004  C1264   1.499   .     S
C1005  C1006   1.436   .     S
C1006  O1074   1.280   .     A
C1006  O1060   1.273   .     A
C1007  O1069   1.279   .     A
C1007  O1075   1.268   .     A
C1008  C1013   1.412   .     A
C1008  C272    1.393   1_556 S
C1008  C275    1.493   1_556 S
C1009  O1052   1.277   .     A
C1009  O1050   1.269   .     A
C1009  C1012   1.458   .     S
C1010  O1051   1.284   .     A
C1010  O1053   1.302   .     A
C1013  C1021   1.480   .     S
C1014  O1054   1.223   .     D
C1014  O1055   1.399   .     S
C1014  C1086   1.487   .     S
C1015  O1057   1.399   .     S
C1016  H1034   1.111   .     S
C1016  C1017   1.533   .     S
C1016  C264    1.515   1_556 S
C1016  H288    1.113   1_556 S
C1017  H1033   1.111   .     S
C1017  H285    1.112   1_556 S
C1018  H1046   1.111   .     S
C1018  H1048   1.107   .     S
C1018  H1047   1.111   .     S
C1018  C1266   1.526   .     S
C1019  H1043   1.078   .     S
C1020  O1059   1.396   .     S
C1020  O1058   1.224   .     D
C1021  O1061   1.223   .     D
C1021  O1062   1.397   .     S
C1022  O1063   1.222   .     D
C1022  O1064   1.399   .     S
C1023  O1065   1.223   .     D
C1023  C1030   1.491   .     S
C1023  O1066   1.399   .     S
C1024  O1068   1.399   .     S
C1024  O1067   1.223   .     D
C1024  C1168   1.498   1_455 S
C1025  C1026   1.414   .     A
C1025  C272    1.406   1_556 S
C1025  C280    1.427   1_556 S
C1026  C1030   1.419   .     A
C1028  C1029   1.403   .     A
C1028  C280    1.426   1_556 S
C1028  C264    1.418   1_556 S
C1029  H1042   1.081   .     S
C1029  C1030   1.396   .     A
H1036  O1059   1.014   .     S
H1037  O1062   1.013   .     S
H1038  O1064   1.014   .     S
H1039  O1066   1.014   .     S
H1040  O1068   1.014   .     S
H1041  C1254   1.087   .     S
H1044  O1055   1.014   .     S
H1045  O1057   1.014   .     S
O1049  Zn1077  1.935   .     S
O1049  Zn1076  1.967   .     S
O1049  Zn1079  1.938   .     S
O1049  Zn1078  1.932   .     S
O1050  Zn1077  1.923   .     S
O1051  Zn1079  1.933   .     S
O1052  Zn1078  1.924   .     S
O1053  Zn1076  1.918   .     S
O1056  C1264   1.223   .     S
O1060  Zn1076  1.924   .     S
O1069  Zn1079  1.929   .     S
O1070  Zn1077  1.942   .     S
O1071  Zn1078  1.951   .     S
O1072  Zn1079  1.940   .     S
O1073  Zn1076  1.934   .     S
O1074  Zn1077  1.939   .     S
O1075  Zn1078  1.932   .     S
C1080  O1153   1.260   .     A
C1080  C1086   1.433   .     S
C1080  O1155   1.268   .     A
C1081  C1095   1.402   .     A
C1081  C1110   1.426   .     A
C1081  C1103   1.488   .     S
C1082  H1114   1.085   .     S
C1082  C1094   1.395   .     A
C1082  C1095   1.394   .     A
C1083  O1154   1.286   .     A
C1083  C1085   1.469   .     S
C1083  O1156   1.277   .     A
C1084  C1109   1.425   .     A
C1084  C1096   1.432   .     A
C1084  C1093   1.495   .     S
C1085  C1169   1.363   .     S
C1085  C1190   1.498   .     S
C1087  C1090   1.463   .     S
C1087  C1337   1.341   .     S
C1087  C1347   1.499   .     S
C1088  C1089   1.436   .     S
C1089  O1157   1.280   .     A
C1089  O1143   1.273   .     A
C1090  O1152   1.279   .     A
C1090  O1158   1.268   .     A
C1091  C1096   1.412   .     A
C1091  C355    1.393   1_556 S
C1091  C358    1.493   1_556 S
C1092  O1135   1.277   .     A
C1092  O1133   1.269   .     A
C1092  C1095   1.458   .     S
C1093  O1134   1.284   .     A
C1093  O1136   1.302   .     A
C1096  C1104   1.480   .     S
C1097  O1137   1.223   .     D
C1097  O1138   1.399   .     S
C1097  C1169   1.487   .     S
C1098  O1140   1.399   .     S
C1099  H1117   1.111   .     S
C1099  C1100   1.533   .     S
C1099  C347    1.515   1_556 S
C1099  H371    1.113   1_556 S
C1100  H1116   1.111   .     S
C1100  H368    1.112   1_556 S
C1101  H1129   1.111   .     S
C1101  H1131   1.107   .     S
C1101  H1130   1.111   .     S
C1101  C1349   1.526   .     S
C1102  H1126   1.078   .     S
C1103  O1142   1.396   .     S
C1103  O1141   1.224   .     D
C1104  O1144   1.223   .     D
C1104  O1145   1.397   .     S
C1105  O1146   1.222   .     D
C1105  O1147   1.399   .     S
C1106  O1148   1.223   .     D
C1106  C1113   1.491   .     S
C1106  O1149   1.399   .     S
C1107  O1151   1.399   .     S
C1107  O1150   1.223   .     D
C1108  C1109   1.414   .     A
C1108  C355    1.406   1_556 S
C1108  C363    1.427   1_556 S
C1109  C1113   1.419   .     A
C1111  C1112   1.403   .     A
C1111  C363    1.426   1_556 S
C1111  C347    1.418   1_556 S
C1112  H1125   1.081   .     S
C1112  C1113   1.396   .     A
H1119  O1142   1.014   .     S
H1120  O1145   1.013   .     S
H1121  O1147   1.014   .     S
H1122  O1149   1.014   .     S
H1123  O1151   1.014   .     S
H1124  C1337   1.087   .     S
H1127  O1138   1.014   .     S
H1128  O1140   1.014   .     S
O1132  Zn1160  1.935   .     S
O1132  Zn1159  1.967   .     S
O1132  Zn1162  1.938   .     S
O1132  Zn1161  1.932   .     S
O1133  Zn1160  1.923   .     S
O1134  Zn1162  1.933   .     S
O1135  Zn1161  1.924   .     S
O1136  Zn1159  1.918   .     S
O1139  C1347   1.223   .     S
O1143  Zn1159  1.924   .     S
O1152  Zn1162  1.929   .     S
O1153  Zn1160  1.942   .     S
O1154  Zn1161  1.951   .     S
O1155  Zn1162  1.940   .     S
O1156  Zn1159  1.934   .     S
O1157  Zn1160  1.939   .     S
O1158  Zn1161  1.932   .     S
C1163  O1236   1.260   .     A
C1163  C1169   1.433   .     S
C1163  O1238   1.268   .     A
C1164  C1178   1.402   .     A
C1164  C1193   1.426   .     A
C1164  C1186   1.488   .     S
C1165  H1197   1.085   .     S
C1165  C1177   1.395   .     A
C1165  C1178   1.394   .     A
C1166  O1237   1.286   .     A
C1166  C1168   1.469   .     S
C1166  O1239   1.277   .     A
C1167  C1192   1.425   .     A
C1167  C1179   1.432   .     A
C1167  C1176   1.495   .     S
C1168  C1003   1.363   1_655 S
C1168  C1024   1.498   1_655 S
C1170  C1173   1.463   .     S
C1170  C1420   1.341   .     S
C1170  C1430   1.499   .     S
C1171  C1172   1.436   .     S
C1172  O1240   1.280   .     A
C1172  O1226   1.273   .     A
C1173  O1235   1.279   .     A
C1173  O1241   1.268   .     A
C1174  C1179   1.412   .     A
C1174  C438    1.393   1_556 S
C1174  C441    1.493   1_556 S
C1175  O1218   1.277   .     A
C1175  O1216   1.269   .     A
C1175  C1178   1.458   .     S
C1176  O1217   1.284   .     A
C1176  O1219   1.302   .     A
C1179  C1187   1.480   .     S
C1180  O1220   1.223   .     D
C1180  O1221   1.399   .     S
C1180  C1003   1.487   1_655 S
C1181  O1223   1.399   .     S
C1182  H1200   1.111   .     S
C1182  C1183   1.533   .     S
C1182  C430    1.515   1_556 S
C1182  H454    1.113   1_556 S
C1183  H1199   1.111   .     S
C1183  H451    1.112   1_556 S
C1184  H1212   1.111   .     S
C1184  H1214   1.107   .     S
C1184  H1213   1.111   .     S
C1184  C1432   1.526   .     S
C1185  H1209   1.078   .     S
C1186  O1225   1.396   .     S
C1186  O1224   1.224   .     D
C1187  O1227   1.223   .     D
C1187  O1228   1.397   .     S
C1188  O1229   1.222   .     D
C1188  O1230   1.399   .     S
C1189  O1231   1.223   .     D
C1189  C1196   1.491   .     S
C1189  O1232   1.399   .     S
C1190  O1234   1.399   .     S
C1190  O1233   1.223   .     D
C1191  C1192   1.414   .     A
C1191  C438    1.406   1_556 S
C1191  C446    1.427   1_556 S
C1192  C1196   1.419   .     A
C1194  C1195   1.403   .     A
C1194  C446    1.426   1_556 S
C1194  C430    1.418   1_556 S
C1195  H1208   1.081   .     S
C1195  C1196   1.396   .     A
H1202  O1225   1.014   .     S
H1203  O1228   1.013   .     S
H1204  O1230   1.014   .     S
H1205  O1232   1.014   .     S
H1206  O1234   1.014   .     S
H1207  C1420   1.087   .     S
H1210  O1221   1.014   .     S
H1211  O1223   1.014   .     S
O1215  Zn1243  1.935   .     S
O1215  Zn1242  1.967   .     S
O1215  Zn1245  1.938   .     S
O1215  Zn1244  1.932   .     S
O1216  Zn1243  1.923   .     S
O1217  Zn1245  1.933   .     S
O1218  Zn1244  1.924   .     S
O1219  Zn1242  1.918   .     S
O1222  C1430   1.223   .     S
O1226  Zn1242  1.924   .     S
O1235  Zn1245  1.929   .     S
O1236  Zn1243  1.942   .     S
O1237  Zn1244  1.951   .     S
O1238  Zn1245  1.940   .     S
O1239  Zn1242  1.934   .     S
O1240  Zn1243  1.939   .     S
O1241  Zn1244  1.932   .     S
C1246  O1319   1.260   .     A
C1246  C1252   1.433   .     S
C1246  O1321   1.268   .     A
C1247  C1261   1.402   .     A
C1247  C1276   1.426   .     A
C1247  C1269   1.488   .     S
C1248  H1280   1.085   .     S
C1248  C1260   1.395   .     A
C1248  C1261   1.394   .     A
C1249  O1320   1.286   .     A
C1249  C1251   1.469   .     S
C1249  O1322   1.277   .     A
C1250  C1275   1.425   .     A
C1250  C1262   1.432   .     A
C1250  C1259   1.495   .     S
C1251  C1335   1.363   .     S
C1251  C1356   1.498   .     S
C1252  C1417   1.363   1_455 S
C1252  C1429   1.487   1_455 S
C1253  C1256   1.463   .     S
C1253  C756    1.341   1_565 S
C1253  C766    1.499   1_565 S
C1254  C1255   1.436   .     S
C1255  O1323   1.280   .     A
C1255  O1309   1.273   .     A
C1256  O1318   1.279   .     A
C1256  O1324   1.268   .     A
C1257  C1262   1.412   .     A
C1257  C521    1.393   1_556 S
C1257  C524    1.493   1_556 S
C1258  O1301   1.277   .     A
C1258  O1299   1.269   .     A
C1258  C1261   1.458   .     S
C1259  O1300   1.284   .     A
C1259  O1302   1.302   .     A
C1262  C1270   1.480   .     S
C1263  O1303   1.223   .     D
C1263  O1304   1.399   .     S
C1263  C1335   1.487   .     S
C1264  O1306   1.399   .     S
C1265  H1283   1.111   .     S
C1265  C1266   1.533   .     S
C1265  C513    1.515   1_556 S
C1265  H537    1.113   1_556 S
C1266  H1282   1.111   .     S
C1266  H534    1.112   1_556 S
C1267  H1295   1.111   .     S
C1267  H1297   1.107   .     S
C1267  H1296   1.111   .     S
C1267  C768    1.526   1_565 S
C1268  H1292   1.078   .     S
C1269  O1308   1.396   .     S
C1269  O1307   1.224   .     D
C1270  O1310   1.223   .     D
C1270  O1311   1.397   .     S
C1271  O1312   1.222   .     D
C1271  O1313   1.399   .     S
C1272  O1314   1.223   .     D
C1272  C1279   1.491   .     S
C1272  O1315   1.399   .     S
C1273  O1317   1.399   .     S
C1273  O1316   1.223   .     D
C1273  C1417   1.498   1_455 S
C1274  C1275   1.414   .     A
C1274  C521    1.406   1_556 S
C1274  C529    1.427   1_556 S
C1275  C1279   1.419   .     A
C1277  C1278   1.403   .     A
C1277  C529    1.426   1_556 S
C1277  C513    1.418   1_556 S
C1278  H1291   1.081   .     S
C1278  C1279   1.396   .     A
H1285  O1308   1.014   .     S
H1286  O1311   1.013   .     S
H1287  O1313   1.014   .     S
H1288  O1315   1.014   .     S
H1289  O1317   1.014   .     S
H1290  C756    1.087   1_565 S
H1293  O1304   1.014   .     S
H1294  O1306   1.014   .     S
O1298  Zn1326  1.935   .     S
O1298  Zn1325  1.967   .     S
O1298  Zn1328  1.938   .     S
O1298  Zn1327  1.932   .     S
O1299  Zn1326  1.923   .     S
O1300  Zn1328  1.933   .     S
O1301  Zn1327  1.924   .     S
O1302  Zn1325  1.918   .     S
O1305  C766    1.223   1_565 S
O1309  Zn1325  1.924   .     S
O1318  Zn1328  1.929   .     S
O1319  Zn1326  1.942   .     S
O1320  Zn1327  1.951   .     S
O1321  Zn1328  1.940   .     S
O1322  Zn1325  1.934   .     S
O1323  Zn1326  1.939   .     S
O1324  Zn1327  1.932   .     S
C1329  O1402   1.260   .     A
C1329  C1335   1.433   .     S
C1329  O1404   1.268   .     A
C1330  C1344   1.402   .     A
C1330  C1359   1.426   .     A
C1330  C1352   1.488   .     S
C1331  H1363   1.085   .     S
C1331  C1343   1.395   .     A
C1331  C1344   1.394   .     A
C1332  O1403   1.286   .     A
C1332  C1334   1.469   .     S
C1332  O1405   1.277   .     A
C1333  C1358   1.425   .     A
C1333  C1345   1.432   .     A
C1333  C1342   1.495   .     S
C1334  C1418   1.363   .     S
C1334  C1439   1.498   .     S
C1336  C1339   1.463   .     S
C1336  C839    1.341   1_565 S
C1336  C849    1.499   1_565 S
C1337  C1338   1.436   .     S
C1338  O1406   1.280   .     A
C1338  O1392   1.273   .     A
C1339  O1401   1.279   .     A
C1339  O1407   1.268   .     A
C1340  C1345   1.412   .     A
C1340  C604    1.393   1_556 S
C1340  C607    1.493   1_556 S
C1341  O1384   1.277   .     A
C1341  O1382   1.269   .     A
C1341  C1344   1.458   .     S
C1342  O1383   1.284   .     A
C1342  O1385   1.302   .     A
C1345  C1353   1.480   .     S
C1346  O1386   1.223   .     D
C1346  O1387   1.399   .     S
C1346  C1418   1.487   .     S
C1347  O1389   1.399   .     S
C1348  H1366   1.111   .     S
C1348  C1349   1.533   .     S
C1348  C596    1.515   1_556 S
C1348  H620    1.113   1_556 S
C1349  H1365   1.111   .     S
C1349  H617    1.112   1_556 S
C1350  H1378   1.111   .     S
C1350  H1380   1.107   .     S
C1350  H1379   1.111   .     S
C1350  C851    1.526   1_565 S
C1351  H1375   1.078   .     S
C1352  O1391   1.396   .     S
C1352  O1390   1.224   .     D
C1353  O1393   1.223   .     D
C1353  O1394   1.397   .     S
C1354  O1395   1.222   .     D
C1354  O1396   1.399   .     S
C1355  O1397   1.223   .     D
C1355  C1362   1.491   .     S
C1355  O1398   1.399   .     S
C1356  O1400   1.399   .     S
C1356  O1399   1.223   .     D
C1357  C1358   1.414   .     A
C1357  C604    1.406   1_556 S
C1357  C612    1.427   1_556 S
C1358  C1362   1.419   .     A
C1360  C1361   1.403   .     A
C1360  C612    1.426   1_556 S
C1360  C596    1.418   1_556 S
C1361  H1374   1.081   .     S
C1361  C1362   1.396   .     A
H1368  O1391   1.014   .     S
H1369  O1394   1.013   .     S
H1370  O1396   1.014   .     S
H1371  O1398   1.014   .     S
H1372  O1400   1.014   .     S
H1373  C839    1.087   1_565 S
H1376  O1387   1.014   .     S
H1377  O1389   1.014   .     S
O1381  Zn1409  1.935   .     S
O1381  Zn1408  1.967   .     S
O1381  Zn1411  1.938   .     S
O1381  Zn1410  1.932   .     S
O1382  Zn1409  1.923   .     S
O1383  Zn1411  1.933   .     S
O1384  Zn1410  1.924   .     S
O1385  Zn1408  1.918   .     S
O1388  C849    1.223   1_565 S
O1392  Zn1408  1.924   .     S
O1401  Zn1411  1.929   .     S
O1402  Zn1409  1.942   .     S
O1403  Zn1410  1.951   .     S
O1404  Zn1411  1.940   .     S
O1405  Zn1408  1.934   .     S
O1406  Zn1409  1.939   .     S
O1407  Zn1410  1.932   .     S
C1412  O1485   1.260   .     A
C1412  C1418   1.433   .     S
C1412  O1487   1.268   .     A
C1413  C1427   1.402   .     A
C1413  C1442   1.426   .     A
C1413  C1435   1.488   .     S
C1414  H1446   1.085   .     S
C1414  C1426   1.395   .     A
C1414  C1427   1.394   .     A
C1415  O1486   1.286   .     A
C1415  C1417   1.469   .     S
C1415  O1488   1.277   .     A
C1416  C1441   1.425   .     A
C1416  C1428   1.432   .     A
C1416  C1425   1.495   .     S
C1417  C1252   1.363   1_655 S
C1417  C1273   1.498   1_655 S
C1419  C1422   1.463   .     S
C1419  C922    1.341   1_565 S
C1419  C932    1.499   1_565 S
C1420  C1421   1.436   .     S
C1421  O1489   1.280   .     A
C1421  O1475   1.273   .     A
C1422  O1484   1.279   .     A
C1422  O1490   1.268   .     A
C1423  C1428   1.412   .     A
C1423  C687    1.393   1_556 S
C1423  C690    1.493   1_556 S
C1424  O1467   1.277   .     A
C1424  O1465   1.269   .     A
C1424  C1427   1.458   .     S
C1425  O1466   1.284   .     A
C1425  O1468   1.302   .     A
C1428  C1436   1.480   .     S
C1429  O1469   1.223   .     D
C1429  O1470   1.399   .     S
C1429  C1252   1.487   1_655 S
C1430  O1472   1.399   .     S
C1431  H1449   1.111   .     S
C1431  C1432   1.533   .     S
C1431  C679    1.515   1_556 S
C1431  H703    1.113   1_556 S
C1432  H1448   1.111   .     S
C1432  H700    1.112   1_556 S
C1433  H1461   1.111   .     S
C1433  H1463   1.107   .     S
C1433  H1462   1.111   .     S
C1433  C934    1.526   1_565 S
C1434  H1458   1.078   .     S
C1435  O1474   1.396   .     S
C1435  O1473   1.224   .     D
C1436  O1476   1.223   .     D
C1436  O1477   1.397   .     S
C1437  O1478   1.222   .     D
C1437  O1479   1.399   .     S
C1438  O1480   1.223   .     D
C1438  C1445   1.491   .     S
C1438  O1481   1.399   .     S
C1439  O1483   1.399   .     S
C1439  O1482   1.223   .     D
C1440  C1441   1.414   .     A
C1440  C687    1.406   1_556 S
C1440  C695    1.427   1_556 S
C1441  C1445   1.419   .     A
C1443  C1444   1.403   .     A
C1443  C695    1.426   1_556 S
C1443  C679    1.418   1_556 S
C1444  H1457   1.081   .     S
C1444  C1445   1.396   .     A
H1451  O1474   1.014   .     S
H1452  O1477   1.013   .     S
H1453  O1479   1.014   .     S
H1454  O1481   1.014   .     S
H1455  O1483   1.014   .     S
H1456  C922    1.087   1_565 S
H1459  O1470   1.014   .     S
H1460  O1472   1.014   .     S
O1464  Zn1492  1.935   .     S
O1464  Zn1491  1.967   .     S
O1464  Zn1494  1.938   .     S
O1464  Zn1493  1.932   .     S
O1465  Zn1492  1.923   .     S
O1466  Zn1494  1.933   .     S
O1467  Zn1493  1.924   .     S
O1468  Zn1491  1.918   .     S
O1471  C932    1.223   1_565 S
O1475  Zn1491  1.924   .     S
O1484  Zn1494  1.929   .     S
O1485  Zn1492  1.942   .     S
O1486  Zn1493  1.951   .     S
O1487  Zn1494  1.940   .     S
O1488  Zn1491  1.934   .     S
O1489  Zn1492  1.939   .     S
O1490  Zn1493  1.932   .     S
