data_str_m3_o1_o1_pcu_sym.89
_audit_creation_date              2020-01-03
_audit_creation_method            'Materials Studio'
_symmetry_space_group_name_H-M    'P1'
_symmetry_Int_Tables_number       1
_symmetry_cell_setting            triclinic
loop_
_symmetry_equiv_pos_as_xyz
  x,y,z
_cell_length_a                    31.5072
_cell_length_b                    29.4629
_cell_length_c                    29.8339
_cell_angle_alpha                 90.0000
_cell_angle_beta                  91.0076
_cell_angle_gamma                 90.0000
loop_
_atom_site_label
_atom_site_type_symbol
_atom_site_fract_x
_atom_site_fract_y
_atom_site_fract_z
_atom_site_U_iso_or_equiv
_atom_site_adp_type
_atom_site_occupancy
C1     C     0.06246   0.19298   0.16704   0.00000  Uiso   1.00
C2     C     0.43754   0.30702   0.16630   0.00000  Uiso   1.00
C3     C     0.43754   0.19298   0.16630   0.00000  Uiso   1.00
C4     C     0.06246   0.30702   0.16704   0.00000  Uiso   1.00
C5     C     0.31246   0.44298   0.16704   0.00000  Uiso   1.00
C6     C     0.18754   0.05702   0.16630   0.00000  Uiso   1.00
C7     C     0.18754   0.44298   0.16630   0.00000  Uiso   1.00
C8     C     0.31246   0.05702   0.16704   0.00000  Uiso   1.00
C9     C     0.00141   0.29008   0.02386   0.00000  Uiso   1.00
C10    C     0.49859   0.20992   0.30947   0.00000  Uiso   1.00
C11    C     0.00141   0.20992   0.02386   0.00000  Uiso   1.00
C12    C     0.49859   0.29008   0.30947   0.00000  Uiso   1.00
C13    C     0.25141   0.04008   0.02386   0.00000  Uiso   1.00
C14    C     0.24859   0.45992   0.30947   0.00000  Uiso   1.00
C15    C     0.25141   0.45992   0.02386   0.00000  Uiso   1.00
C16    C     0.24859   0.04008   0.30947   0.00000  Uiso   1.00
C17    C     0.38907   0.14110   0.12511   0.00000  Uiso   1.00
C18    C     0.11094   0.35891   0.20823   0.00000  Uiso   1.00
C19    C     0.11630   0.35106   0.12684   0.00000  Uiso   1.00
C20    C     0.38370   0.14894   0.20649   0.00000  Uiso   1.00
C21    C     0.11093   0.14109   0.20823   0.00000  Uiso   1.00
C22    C     0.38907   0.35891   0.12511   0.00000  Uiso   1.00
C23    C     0.38370   0.35106   0.20649   0.00000  Uiso   1.00
C24    C     0.11630   0.14894   0.12684   0.00000  Uiso   1.00
C25    C     0.13907   0.39110   0.12511   0.00000  Uiso   1.00
C26    C     0.36094   0.10891   0.20823   0.00000  Uiso   1.00
C27    C     0.36630   0.10106   0.12684   0.00000  Uiso   1.00
C28    C     0.13370   0.39894   0.20649   0.00000  Uiso   1.00
C29    C     0.36093   0.39109   0.20823   0.00000  Uiso   1.00
C30    C     0.13907   0.10891   0.12511   0.00000  Uiso   1.00
C31    C     0.13370   0.10106   0.20649   0.00000  Uiso   1.00
C32    C     0.36630   0.39894   0.12684   0.00000  Uiso   1.00
C33    C     0.09859   0.33750   0.16776   0.00000  Uiso   1.00
C34    C     0.40141   0.16250   0.16558   0.00000  Uiso   1.00
C35    C     0.40141   0.33750   0.16558   0.00000  Uiso   1.00
C36    C     0.09859   0.16250   0.16776   0.00000  Uiso   1.00
C37    C     0.34859   0.08750   0.16776   0.00000  Uiso   1.00
C38    C     0.15141   0.41250   0.16558   0.00000  Uiso   1.00
C39    C     0.15141   0.08750   0.16558   0.00000  Uiso   1.00
C40    C     0.34859   0.41250   0.16776   0.00000  Uiso   1.00
N41    N     0.00000   0.25000   0.28573   0.00000  Uiso   1.00
N42    N     0.00000   0.25000   0.04760   0.00000  Uiso   1.00
N43    N     0.25000   0.00000   0.28573   0.00000  Uiso   1.00
N44    N     0.25000   0.00000   0.04760   0.00000  Uiso   1.00
O45    O     0.04581   0.20419   0.20487   0.00000  Uiso   1.00
O46    O     0.45420   0.29581   0.12846   0.00000  Uiso   1.00
O47    O     0.45420   0.29581   0.20487   0.00000  Uiso   1.00
O48    O     0.04581   0.20419   0.12846   0.00000  Uiso   1.00
O49    O     0.45420   0.20419   0.12846   0.00000  Uiso   1.00
O50    O     0.04581   0.29581   0.20487   0.00000  Uiso   1.00
O51    O     0.04581   0.29581   0.12846   0.00000  Uiso   1.00
O52    O     0.45420   0.20419   0.20487   0.00000  Uiso   1.00
O53    O     0.29581   0.45419   0.20487   0.00000  Uiso   1.00
O54    O     0.20420   0.04581   0.12846   0.00000  Uiso   1.00
O55    O     0.20420   0.04581   0.20487   0.00000  Uiso   1.00
O56    O     0.29581   0.45419   0.12846   0.00000  Uiso   1.00
O57    O     0.20420   0.45419   0.12846   0.00000  Uiso   1.00
O58    O     0.29581   0.04581   0.20487   0.00000  Uiso   1.00
O59    O     0.29581   0.04581   0.12846   0.00000  Uiso   1.00
O60    O     0.20420   0.45419   0.20487   0.00000  Uiso   1.00
Zn61   Zn    0.00000   0.25000   0.21771   0.00000  Uiso   1.00
Zn62   Zn    0.00000   0.25000   0.11563   0.00000  Uiso   1.00
Zn63   Zn    0.25000   0.00000   0.21771   0.00000  Uiso   1.00
Zn64   Zn    0.25000   0.00000   0.11563   0.00000  Uiso   1.00
C65    C     0.01192   0.33399   0.04616   0.00000  Uiso   1.00
O66    O     0.49170   0.34788   0.07768   0.00000  Uiso   1.00
O67    O     0.04369   0.36143   0.02833   0.00000  Uiso   1.00
H68    H     0.04761   0.39095   0.04538   0.00000  Uiso   1.00
C69    C     0.48808   0.16601   0.28717   0.00000  Uiso   1.00
O70    O     0.00830   0.15212   0.25565   0.00000  Uiso   1.00
O71    O     0.45631   0.13857   0.30501   0.00000  Uiso   1.00
H72    H     0.45239   0.10905   0.28795   0.00000  Uiso   1.00
C73    C     0.01192   0.16601   0.04616   0.00000  Uiso   1.00
O74    O     0.49170   0.15212   0.07768   0.00000  Uiso   1.00
O75    O     0.04369   0.13857   0.02833   0.00000  Uiso   1.00
H76    H     0.04761   0.10905   0.04538   0.00000  Uiso   1.00
C77    C     0.48808   0.33399   0.28717   0.00000  Uiso   1.00
O78    O     0.00830   0.34788   0.25565   0.00000  Uiso   1.00
O79    O     0.45631   0.36143   0.30500   0.00000  Uiso   1.00
H80    H     0.45239   0.39095   0.28795   0.00000  Uiso   1.00
C81    C     0.26192   0.08399   0.04616   0.00000  Uiso   1.00
O82    O     0.24170   0.09788   0.07768   0.00000  Uiso   1.00
O83    O     0.29369   0.11143   0.02833   0.00000  Uiso   1.00
H84    H     0.29761   0.14095   0.04538   0.00000  Uiso   1.00
C85    C     0.23808   0.41601   0.28717   0.00000  Uiso   1.00
O86    O     0.25830   0.40212   0.25565   0.00000  Uiso   1.00
O87    O     0.20631   0.38857   0.30501   0.00000  Uiso   1.00
H88    H     0.20239   0.35905   0.28795   0.00000  Uiso   1.00
C89    C     0.26192   0.41601   0.04616   0.00000  Uiso   1.00
O90    O     0.24170   0.40212   0.07768   0.00000  Uiso   1.00
O91    O     0.29369   0.38857   0.02833   0.00000  Uiso   1.00
H92    H     0.29761   0.35905   0.04538   0.00000  Uiso   1.00
C93    C     0.23808   0.08399   0.28717   0.00000  Uiso   1.00
O94    O     0.25830   0.09788   0.25565   0.00000  Uiso   1.00
O95    O     0.20631   0.11143   0.30500   0.00000  Uiso   1.00
H96    H     0.20239   0.14095   0.28795   0.00000  Uiso   1.00
C97    C     0.39583   0.16162   0.08150   0.00000  Uiso   1.00
N98    N     0.40074   0.17805   0.04674   0.00000  Uiso   1.00
C99    C     0.10417   0.33838   0.25184   0.00000  Uiso   1.00
N100   N     0.09926   0.32195   0.28659   0.00000  Uiso   1.00
C101   C     0.11488   0.32236   0.08725   0.00000  Uiso   1.00
N102   N     0.11421   0.29967   0.05561   0.00000  Uiso   1.00
C103   C     0.38512   0.17764   0.24608   0.00000  Uiso   1.00
N104   N     0.38579   0.20033   0.27773   0.00000  Uiso   1.00
C105   C     0.10416   0.16162   0.25184   0.00000  Uiso   1.00
N106   N     0.09926   0.17805   0.28659   0.00000  Uiso   1.00
C107   C     0.39584   0.33838   0.08150   0.00000  Uiso   1.00
N108   N     0.40074   0.32195   0.04674   0.00000  Uiso   1.00
C109   C     0.38512   0.32236   0.24608   0.00000  Uiso   1.00
N110   N     0.38579   0.29967   0.27773   0.00000  Uiso   1.00
C111   C     0.11488   0.17764   0.08725   0.00000  Uiso   1.00
N112   N     0.11421   0.20033   0.05561   0.00000  Uiso   1.00
C113   C     0.14583   0.41162   0.08150   0.00000  Uiso   1.00
N114   N     0.15074   0.42805   0.04674   0.00000  Uiso   1.00
C115   C     0.35417   0.08838   0.25184   0.00000  Uiso   1.00
N116   N     0.34926   0.07195   0.28659   0.00000  Uiso   1.00
C117   C     0.36488   0.07236   0.08725   0.00000  Uiso   1.00
N118   N     0.36421   0.04967   0.05561   0.00000  Uiso   1.00
C119   C     0.13512   0.42764   0.24608   0.00000  Uiso   1.00
N120   N     0.13579   0.45033   0.27773   0.00000  Uiso   1.00
C121   C     0.35416   0.41162   0.25184   0.00000  Uiso   1.00
N122   N     0.34926   0.42805   0.28659   0.00000  Uiso   1.00
C123   C     0.14584   0.08838   0.08150   0.00000  Uiso   1.00
N124   N     0.15074   0.07195   0.04674   0.00000  Uiso   1.00
C125   C     0.13512   0.07236   0.24608   0.00000  Uiso   1.00
N126   N     0.13579   0.04967   0.27773   0.00000  Uiso   1.00
C127   C     0.36488   0.42764   0.08725   0.00000  Uiso   1.00
N128   N     0.36421   0.45033   0.05561   0.00000  Uiso   1.00
C129   C     0.56246   0.19298   0.16704   0.00000  Uiso   1.00
C130   C     0.93754   0.30702   0.16630   0.00000  Uiso   1.00
C131   C     0.93754   0.19298   0.16630   0.00000  Uiso   1.00
C132   C     0.56246   0.30702   0.16704   0.00000  Uiso   1.00
C133   C     0.81246   0.44298   0.16704   0.00000  Uiso   1.00
C134   C     0.68754   0.05702   0.16630   0.00000  Uiso   1.00
C135   C     0.68754   0.44298   0.16630   0.00000  Uiso   1.00
C136   C     0.81246   0.05702   0.16704   0.00000  Uiso   1.00
C137   C     0.50141   0.29008   0.02386   0.00000  Uiso   1.00
C138   C     0.99859   0.20992   0.30947   0.00000  Uiso   1.00
C139   C     0.50141   0.20992   0.02386   0.00000  Uiso   1.00
C140   C     0.99859   0.29008   0.30947   0.00000  Uiso   1.00
C141   C     0.75141   0.04008   0.02386   0.00000  Uiso   1.00
C142   C     0.74859   0.45992   0.30947   0.00000  Uiso   1.00
C143   C     0.75141   0.45992   0.02386   0.00000  Uiso   1.00
C144   C     0.74859   0.04008   0.30947   0.00000  Uiso   1.00
C145   C     0.88907   0.14110   0.12511   0.00000  Uiso   1.00
C146   C     0.61094   0.35891   0.20823   0.00000  Uiso   1.00
C147   C     0.61630   0.35106   0.12684   0.00000  Uiso   1.00
C148   C     0.88370   0.14894   0.20649   0.00000  Uiso   1.00
C149   C     0.61093   0.14109   0.20823   0.00000  Uiso   1.00
C150   C     0.88907   0.35891   0.12511   0.00000  Uiso   1.00
C151   C     0.88370   0.35106   0.20649   0.00000  Uiso   1.00
C152   C     0.61630   0.14894   0.12684   0.00000  Uiso   1.00
C153   C     0.63907   0.39110   0.12511   0.00000  Uiso   1.00
C154   C     0.86094   0.10891   0.20823   0.00000  Uiso   1.00
C155   C     0.86630   0.10106   0.12684   0.00000  Uiso   1.00
C156   C     0.63370   0.39894   0.20649   0.00000  Uiso   1.00
C157   C     0.86093   0.39109   0.20823   0.00000  Uiso   1.00
C158   C     0.63907   0.10891   0.12511   0.00000  Uiso   1.00
C159   C     0.63370   0.10106   0.20649   0.00000  Uiso   1.00
C160   C     0.86630   0.39894   0.12684   0.00000  Uiso   1.00
C161   C     0.59859   0.33750   0.16776   0.00000  Uiso   1.00
C162   C     0.90141   0.16250   0.16558   0.00000  Uiso   1.00
C163   C     0.90141   0.33750   0.16558   0.00000  Uiso   1.00
C164   C     0.59859   0.16250   0.16776   0.00000  Uiso   1.00
C165   C     0.84859   0.08750   0.16776   0.00000  Uiso   1.00
C166   C     0.65141   0.41250   0.16558   0.00000  Uiso   1.00
C167   C     0.65141   0.08750   0.16558   0.00000  Uiso   1.00
C168   C     0.84859   0.41250   0.16776   0.00000  Uiso   1.00
N169   N     0.50000   0.25000   0.28573   0.00000  Uiso   1.00
N170   N     0.50000   0.25000   0.04760   0.00000  Uiso   1.00
N171   N     0.75000   0.00000   0.28573   0.00000  Uiso   1.00
N172   N     0.75000   0.00000   0.04760   0.00000  Uiso   1.00
O173   O     0.54581   0.20419   0.20487   0.00000  Uiso   1.00
O174   O     0.95420   0.29581   0.12846   0.00000  Uiso   1.00
O175   O     0.95420   0.29581   0.20487   0.00000  Uiso   1.00
O176   O     0.54581   0.20419   0.12846   0.00000  Uiso   1.00
O177   O     0.95420   0.20419   0.12846   0.00000  Uiso   1.00
O178   O     0.54581   0.29581   0.20487   0.00000  Uiso   1.00
O179   O     0.54581   0.29581   0.12846   0.00000  Uiso   1.00
O180   O     0.95420   0.20419   0.20487   0.00000  Uiso   1.00
O181   O     0.79581   0.45419   0.20487   0.00000  Uiso   1.00
O182   O     0.70420   0.04581   0.12846   0.00000  Uiso   1.00
O183   O     0.70420   0.04581   0.20487   0.00000  Uiso   1.00
O184   O     0.79581   0.45419   0.12846   0.00000  Uiso   1.00
O185   O     0.70420   0.45419   0.12846   0.00000  Uiso   1.00
O186   O     0.79581   0.04581   0.20487   0.00000  Uiso   1.00
O187   O     0.79581   0.04581   0.12846   0.00000  Uiso   1.00
O188   O     0.70420   0.45419   0.20487   0.00000  Uiso   1.00
Zn189  Zn    0.50000   0.25000   0.21771   0.00000  Uiso   1.00
Zn190  Zn    0.50000   0.25000   0.11563   0.00000  Uiso   1.00
Zn191  Zn    0.75000   0.00000   0.21771   0.00000  Uiso   1.00
Zn192  Zn    0.75000   0.00000   0.11563   0.00000  Uiso   1.00
C193   C     0.51192   0.33399   0.04616   0.00000  Uiso   1.00
O194   O     0.99170   0.34788   0.07768   0.00000  Uiso   1.00
O195   O     0.54369   0.36143   0.02833   0.00000  Uiso   1.00
H196   H     0.54761   0.39095   0.04538   0.00000  Uiso   1.00
C197   C     0.98808   0.16601   0.28717   0.00000  Uiso   1.00
O198   O     0.50830   0.15212   0.25565   0.00000  Uiso   1.00
O199   O     0.95631   0.13857   0.30501   0.00000  Uiso   1.00
H200   H     0.95239   0.10905   0.28795   0.00000  Uiso   1.00
C201   C     0.51192   0.16601   0.04616   0.00000  Uiso   1.00
O202   O     0.99170   0.15212   0.07768   0.00000  Uiso   1.00
O203   O     0.54369   0.13857   0.02833   0.00000  Uiso   1.00
H204   H     0.54761   0.10905   0.04538   0.00000  Uiso   1.00
C205   C     0.98808   0.33399   0.28717   0.00000  Uiso   1.00
O206   O     0.50830   0.34788   0.25565   0.00000  Uiso   1.00
O207   O     0.95631   0.36143   0.30500   0.00000  Uiso   1.00
H208   H     0.95239   0.39095   0.28795   0.00000  Uiso   1.00
C209   C     0.76192   0.08399   0.04616   0.00000  Uiso   1.00
O210   O     0.74170   0.09788   0.07768   0.00000  Uiso   1.00
O211   O     0.79369   0.11143   0.02833   0.00000  Uiso   1.00
H212   H     0.79761   0.14095   0.04538   0.00000  Uiso   1.00
C213   C     0.73808   0.41601   0.28717   0.00000  Uiso   1.00
O214   O     0.75830   0.40212   0.25565   0.00000  Uiso   1.00
O215   O     0.70631   0.38857   0.30501   0.00000  Uiso   1.00
H216   H     0.70239   0.35905   0.28795   0.00000  Uiso   1.00
C217   C     0.76192   0.41601   0.04616   0.00000  Uiso   1.00
O218   O     0.74170   0.40212   0.07768   0.00000  Uiso   1.00
O219   O     0.79369   0.38857   0.02833   0.00000  Uiso   1.00
H220   H     0.79761   0.35905   0.04538   0.00000  Uiso   1.00
C221   C     0.73808   0.08399   0.28717   0.00000  Uiso   1.00
O222   O     0.75830   0.09788   0.25565   0.00000  Uiso   1.00
O223   O     0.70631   0.11143   0.30500   0.00000  Uiso   1.00
H224   H     0.70239   0.14095   0.28795   0.00000  Uiso   1.00
C225   C     0.89583   0.16162   0.08150   0.00000  Uiso   1.00
N226   N     0.90074   0.17805   0.04674   0.00000  Uiso   1.00
C227   C     0.60417   0.33838   0.25184   0.00000  Uiso   1.00
N228   N     0.59926   0.32195   0.28659   0.00000  Uiso   1.00
C229   C     0.61488   0.32236   0.08725   0.00000  Uiso   1.00
N230   N     0.61421   0.29967   0.05561   0.00000  Uiso   1.00
C231   C     0.88512   0.17764   0.24608   0.00000  Uiso   1.00
N232   N     0.88579   0.20033   0.27773   0.00000  Uiso   1.00
C233   C     0.60416   0.16162   0.25184   0.00000  Uiso   1.00
N234   N     0.59926   0.17805   0.28659   0.00000  Uiso   1.00
C235   C     0.89584   0.33838   0.08150   0.00000  Uiso   1.00
N236   N     0.90074   0.32195   0.04674   0.00000  Uiso   1.00
C237   C     0.88512   0.32236   0.24608   0.00000  Uiso   1.00
N238   N     0.88579   0.29967   0.27773   0.00000  Uiso   1.00
C239   C     0.61488   0.17764   0.08725   0.00000  Uiso   1.00
N240   N     0.61421   0.20033   0.05561   0.00000  Uiso   1.00
C241   C     0.64583   0.41162   0.08150   0.00000  Uiso   1.00
N242   N     0.65074   0.42805   0.04674   0.00000  Uiso   1.00
C243   C     0.85417   0.08838   0.25184   0.00000  Uiso   1.00
N244   N     0.84926   0.07195   0.28659   0.00000  Uiso   1.00
C245   C     0.86488   0.07236   0.08725   0.00000  Uiso   1.00
N246   N     0.86421   0.04967   0.05561   0.00000  Uiso   1.00
C247   C     0.63512   0.42764   0.24608   0.00000  Uiso   1.00
N248   N     0.63579   0.45033   0.27773   0.00000  Uiso   1.00
C249   C     0.85416   0.41162   0.25184   0.00000  Uiso   1.00
N250   N     0.84926   0.42805   0.28659   0.00000  Uiso   1.00
C251   C     0.64584   0.08838   0.08150   0.00000  Uiso   1.00
N252   N     0.65074   0.07195   0.04674   0.00000  Uiso   1.00
C253   C     0.63512   0.07236   0.24608   0.00000  Uiso   1.00
N254   N     0.63579   0.04967   0.27773   0.00000  Uiso   1.00
C255   C     0.86488   0.42764   0.08725   0.00000  Uiso   1.00
N256   N     0.86421   0.45033   0.05561   0.00000  Uiso   1.00
C257   C     0.06246   0.69298   0.16704   0.00000  Uiso   1.00
C258   C     0.43754   0.80702   0.16630   0.00000  Uiso   1.00
C259   C     0.43754   0.69298   0.16630   0.00000  Uiso   1.00
C260   C     0.06246   0.80702   0.16704   0.00000  Uiso   1.00
C261   C     0.31246   0.94298   0.16704   0.00000  Uiso   1.00
C262   C     0.18754   0.55702   0.16630   0.00000  Uiso   1.00
C263   C     0.18754   0.94298   0.16630   0.00000  Uiso   1.00
C264   C     0.31246   0.55702   0.16704   0.00000  Uiso   1.00
C265   C     0.00141   0.79008   0.02386   0.00000  Uiso   1.00
C266   C     0.49859   0.70992   0.30947   0.00000  Uiso   1.00
C267   C     0.00141   0.70992   0.02386   0.00000  Uiso   1.00
C268   C     0.49859   0.79008   0.30947   0.00000  Uiso   1.00
C269   C     0.25141   0.54008   0.02386   0.00000  Uiso   1.00
C270   C     0.24859   0.95992   0.30947   0.00000  Uiso   1.00
C271   C     0.25141   0.95992   0.02386   0.00000  Uiso   1.00
C272   C     0.24859   0.54008   0.30947   0.00000  Uiso   1.00
C273   C     0.38907   0.64110   0.12511   0.00000  Uiso   1.00
C274   C     0.11094   0.85891   0.20823   0.00000  Uiso   1.00
C275   C     0.11630   0.85106   0.12684   0.00000  Uiso   1.00
C276   C     0.38370   0.64894   0.20649   0.00000  Uiso   1.00
C277   C     0.11093   0.64109   0.20823   0.00000  Uiso   1.00
C278   C     0.38907   0.85891   0.12511   0.00000  Uiso   1.00
C279   C     0.38370   0.85106   0.20649   0.00000  Uiso   1.00
C280   C     0.11630   0.64894   0.12684   0.00000  Uiso   1.00
C281   C     0.13907   0.89110   0.12511   0.00000  Uiso   1.00
C282   C     0.36094   0.60891   0.20823   0.00000  Uiso   1.00
C283   C     0.36630   0.60106   0.12684   0.00000  Uiso   1.00
C284   C     0.13370   0.89894   0.20649   0.00000  Uiso   1.00
C285   C     0.36093   0.89109   0.20823   0.00000  Uiso   1.00
C286   C     0.13907   0.60891   0.12511   0.00000  Uiso   1.00
C287   C     0.13370   0.60106   0.20649   0.00000  Uiso   1.00
C288   C     0.36630   0.89894   0.12684   0.00000  Uiso   1.00
C289   C     0.09859   0.83750   0.16776   0.00000  Uiso   1.00
C290   C     0.40141   0.66250   0.16558   0.00000  Uiso   1.00
C291   C     0.40141   0.83750   0.16558   0.00000  Uiso   1.00
C292   C     0.09859   0.66250   0.16776   0.00000  Uiso   1.00
C293   C     0.34859   0.58750   0.16776   0.00000  Uiso   1.00
C294   C     0.15141   0.91250   0.16558   0.00000  Uiso   1.00
C295   C     0.15141   0.58750   0.16558   0.00000  Uiso   1.00
C296   C     0.34859   0.91250   0.16776   0.00000  Uiso   1.00
N297   N     0.00000   0.75000   0.28573   0.00000  Uiso   1.00
N298   N     0.00000   0.75000   0.04760   0.00000  Uiso   1.00
N299   N     0.25000   0.50000   0.28573   0.00000  Uiso   1.00
N300   N     0.25000   0.50000   0.04760   0.00000  Uiso   1.00
O301   O     0.04581   0.70419   0.20487   0.00000  Uiso   1.00
O302   O     0.45420   0.79581   0.12846   0.00000  Uiso   1.00
O303   O     0.45420   0.79581   0.20487   0.00000  Uiso   1.00
O304   O     0.04581   0.70419   0.12846   0.00000  Uiso   1.00
O305   O     0.45420   0.70419   0.12846   0.00000  Uiso   1.00
O306   O     0.04581   0.79581   0.20487   0.00000  Uiso   1.00
O307   O     0.04581   0.79581   0.12846   0.00000  Uiso   1.00
O308   O     0.45420   0.70419   0.20487   0.00000  Uiso   1.00
O309   O     0.29581   0.95419   0.20487   0.00000  Uiso   1.00
O310   O     0.20420   0.54581   0.12846   0.00000  Uiso   1.00
O311   O     0.20420   0.54581   0.20487   0.00000  Uiso   1.00
O312   O     0.29581   0.95419   0.12846   0.00000  Uiso   1.00
O313   O     0.20420   0.95419   0.12846   0.00000  Uiso   1.00
O314   O     0.29581   0.54581   0.20487   0.00000  Uiso   1.00
O315   O     0.29581   0.54581   0.12846   0.00000  Uiso   1.00
O316   O     0.20420   0.95419   0.20487   0.00000  Uiso   1.00
Zn317  Zn    0.00000   0.75000   0.21771   0.00000  Uiso   1.00
Zn318  Zn    0.00000   0.75000   0.11563   0.00000  Uiso   1.00
Zn319  Zn    0.25000   0.50000   0.21771   0.00000  Uiso   1.00
Zn320  Zn    0.25000   0.50000   0.11563   0.00000  Uiso   1.00
C321   C     0.01192   0.83399   0.04616   0.00000  Uiso   1.00
O322   O     0.49170   0.84788   0.07768   0.00000  Uiso   1.00
O323   O     0.04369   0.86143   0.02833   0.00000  Uiso   1.00
H324   H     0.04761   0.89095   0.04538   0.00000  Uiso   1.00
C325   C     0.48808   0.66601   0.28717   0.00000  Uiso   1.00
O326   O     0.00830   0.65212   0.25565   0.00000  Uiso   1.00
O327   O     0.45631   0.63857   0.30501   0.00000  Uiso   1.00
H328   H     0.45239   0.60905   0.28795   0.00000  Uiso   1.00
C329   C     0.01192   0.66601   0.04616   0.00000  Uiso   1.00
O330   O     0.49170   0.65212   0.07768   0.00000  Uiso   1.00
O331   O     0.04369   0.63857   0.02833   0.00000  Uiso   1.00
H332   H     0.04761   0.60905   0.04538   0.00000  Uiso   1.00
C333   C     0.48808   0.83399   0.28717   0.00000  Uiso   1.00
O334   O     0.00830   0.84788   0.25565   0.00000  Uiso   1.00
O335   O     0.45631   0.86143   0.30500   0.00000  Uiso   1.00
H336   H     0.45239   0.89095   0.28795   0.00000  Uiso   1.00
C337   C     0.26192   0.58399   0.04616   0.00000  Uiso   1.00
O338   O     0.24170   0.59788   0.07768   0.00000  Uiso   1.00
O339   O     0.29369   0.61143   0.02833   0.00000  Uiso   1.00
H340   H     0.29761   0.64095   0.04538   0.00000  Uiso   1.00
C341   C     0.23808   0.91601   0.28717   0.00000  Uiso   1.00
O342   O     0.25830   0.90212   0.25565   0.00000  Uiso   1.00
O343   O     0.20631   0.88857   0.30501   0.00000  Uiso   1.00
H344   H     0.20239   0.85905   0.28795   0.00000  Uiso   1.00
C345   C     0.26192   0.91601   0.04616   0.00000  Uiso   1.00
O346   O     0.24170   0.90212   0.07768   0.00000  Uiso   1.00
O347   O     0.29369   0.88857   0.02833   0.00000  Uiso   1.00
H348   H     0.29761   0.85905   0.04538   0.00000  Uiso   1.00
C349   C     0.23808   0.58399   0.28717   0.00000  Uiso   1.00
O350   O     0.25830   0.59788   0.25565   0.00000  Uiso   1.00
O351   O     0.20631   0.61143   0.30500   0.00000  Uiso   1.00
H352   H     0.20239   0.64095   0.28795   0.00000  Uiso   1.00
C353   C     0.39583   0.66162   0.08150   0.00000  Uiso   1.00
N354   N     0.40074   0.67805   0.04674   0.00000  Uiso   1.00
C355   C     0.10417   0.83838   0.25184   0.00000  Uiso   1.00
N356   N     0.09926   0.82195   0.28659   0.00000  Uiso   1.00
C357   C     0.11488   0.82236   0.08725   0.00000  Uiso   1.00
N358   N     0.11421   0.79967   0.05561   0.00000  Uiso   1.00
C359   C     0.38512   0.67764   0.24608   0.00000  Uiso   1.00
N360   N     0.38579   0.70033   0.27773   0.00000  Uiso   1.00
C361   C     0.10416   0.66162   0.25184   0.00000  Uiso   1.00
N362   N     0.09926   0.67805   0.28659   0.00000  Uiso   1.00
C363   C     0.39584   0.83838   0.08150   0.00000  Uiso   1.00
N364   N     0.40074   0.82195   0.04674   0.00000  Uiso   1.00
C365   C     0.38512   0.82236   0.24608   0.00000  Uiso   1.00
N366   N     0.38579   0.79967   0.27773   0.00000  Uiso   1.00
C367   C     0.11488   0.67764   0.08725   0.00000  Uiso   1.00
N368   N     0.11421   0.70033   0.05561   0.00000  Uiso   1.00
C369   C     0.14583   0.91162   0.08150   0.00000  Uiso   1.00
N370   N     0.15074   0.92805   0.04674   0.00000  Uiso   1.00
C371   C     0.35417   0.58838   0.25184   0.00000  Uiso   1.00
N372   N     0.34926   0.57195   0.28659   0.00000  Uiso   1.00
C373   C     0.36488   0.57236   0.08725   0.00000  Uiso   1.00
N374   N     0.36421   0.54967   0.05561   0.00000  Uiso   1.00
C375   C     0.13512   0.92764   0.24608   0.00000  Uiso   1.00
N376   N     0.13579   0.95033   0.27773   0.00000  Uiso   1.00
C377   C     0.35416   0.91162   0.25184   0.00000  Uiso   1.00
N378   N     0.34926   0.92805   0.28659   0.00000  Uiso   1.00
C379   C     0.14584   0.58838   0.08150   0.00000  Uiso   1.00
N380   N     0.15074   0.57195   0.04674   0.00000  Uiso   1.00
C381   C     0.13512   0.57236   0.24608   0.00000  Uiso   1.00
N382   N     0.13579   0.54967   0.27773   0.00000  Uiso   1.00
C383   C     0.36488   0.92764   0.08725   0.00000  Uiso   1.00
N384   N     0.36421   0.95033   0.05561   0.00000  Uiso   1.00
C385   C     0.56246   0.69298   0.16704   0.00000  Uiso   1.00
C386   C     0.93754   0.80702   0.16630   0.00000  Uiso   1.00
C387   C     0.93754   0.69298   0.16630   0.00000  Uiso   1.00
C388   C     0.56246   0.80702   0.16704   0.00000  Uiso   1.00
C389   C     0.81246   0.94298   0.16704   0.00000  Uiso   1.00
C390   C     0.68754   0.55702   0.16630   0.00000  Uiso   1.00
C391   C     0.68754   0.94298   0.16630   0.00000  Uiso   1.00
C392   C     0.81246   0.55702   0.16704   0.00000  Uiso   1.00
C393   C     0.50141   0.79008   0.02386   0.00000  Uiso   1.00
C394   C     0.99859   0.70992   0.30947   0.00000  Uiso   1.00
C395   C     0.50141   0.70992   0.02386   0.00000  Uiso   1.00
C396   C     0.99859   0.79008   0.30947   0.00000  Uiso   1.00
C397   C     0.75141   0.54008   0.02386   0.00000  Uiso   1.00
C398   C     0.74859   0.95992   0.30947   0.00000  Uiso   1.00
C399   C     0.75141   0.95992   0.02386   0.00000  Uiso   1.00
C400   C     0.74859   0.54008   0.30947   0.00000  Uiso   1.00
C401   C     0.88907   0.64110   0.12511   0.00000  Uiso   1.00
C402   C     0.61094   0.85891   0.20823   0.00000  Uiso   1.00
C403   C     0.61630   0.85106   0.12684   0.00000  Uiso   1.00
C404   C     0.88370   0.64894   0.20649   0.00000  Uiso   1.00
C405   C     0.61093   0.64109   0.20823   0.00000  Uiso   1.00
C406   C     0.88907   0.85891   0.12511   0.00000  Uiso   1.00
C407   C     0.88370   0.85106   0.20649   0.00000  Uiso   1.00
C408   C     0.61630   0.64894   0.12684   0.00000  Uiso   1.00
C409   C     0.63907   0.89110   0.12511   0.00000  Uiso   1.00
C410   C     0.86094   0.60891   0.20823   0.00000  Uiso   1.00
C411   C     0.86630   0.60106   0.12684   0.00000  Uiso   1.00
C412   C     0.63370   0.89894   0.20649   0.00000  Uiso   1.00
C413   C     0.86093   0.89109   0.20823   0.00000  Uiso   1.00
C414   C     0.63907   0.60891   0.12511   0.00000  Uiso   1.00
C415   C     0.63370   0.60106   0.20649   0.00000  Uiso   1.00
C416   C     0.86630   0.89894   0.12684   0.00000  Uiso   1.00
C417   C     0.59859   0.83750   0.16776   0.00000  Uiso   1.00
C418   C     0.90141   0.66250   0.16558   0.00000  Uiso   1.00
C419   C     0.90141   0.83750   0.16558   0.00000  Uiso   1.00
C420   C     0.59859   0.66250   0.16776   0.00000  Uiso   1.00
C421   C     0.84859   0.58750   0.16776   0.00000  Uiso   1.00
C422   C     0.65141   0.91250   0.16558   0.00000  Uiso   1.00
C423   C     0.65141   0.58750   0.16558   0.00000  Uiso   1.00
C424   C     0.84859   0.91250   0.16776   0.00000  Uiso   1.00
N425   N     0.50000   0.75000   0.28573   0.00000  Uiso   1.00
N426   N     0.50000   0.75000   0.04760   0.00000  Uiso   1.00
N427   N     0.75000   0.50000   0.28573   0.00000  Uiso   1.00
N428   N     0.75000   0.50000   0.04760   0.00000  Uiso   1.00
O429   O     0.54581   0.70419   0.20487   0.00000  Uiso   1.00
O430   O     0.95420   0.79581   0.12846   0.00000  Uiso   1.00
O431   O     0.95420   0.79581   0.20487   0.00000  Uiso   1.00
O432   O     0.54581   0.70419   0.12846   0.00000  Uiso   1.00
O433   O     0.95420   0.70419   0.12846   0.00000  Uiso   1.00
O434   O     0.54581   0.79581   0.20487   0.00000  Uiso   1.00
O435   O     0.54581   0.79581   0.12846   0.00000  Uiso   1.00
O436   O     0.95420   0.70419   0.20487   0.00000  Uiso   1.00
O437   O     0.79581   0.95419   0.20487   0.00000  Uiso   1.00
O438   O     0.70420   0.54581   0.12846   0.00000  Uiso   1.00
O439   O     0.70420   0.54581   0.20487   0.00000  Uiso   1.00
O440   O     0.79581   0.95419   0.12846   0.00000  Uiso   1.00
O441   O     0.70420   0.95419   0.12846   0.00000  Uiso   1.00
O442   O     0.79581   0.54581   0.20487   0.00000  Uiso   1.00
O443   O     0.79581   0.54581   0.12846   0.00000  Uiso   1.00
O444   O     0.70420   0.95419   0.20487   0.00000  Uiso   1.00
Zn445  Zn    0.50000   0.75000   0.21771   0.00000  Uiso   1.00
Zn446  Zn    0.50000   0.75000   0.11563   0.00000  Uiso   1.00
Zn447  Zn    0.75000   0.50000   0.21771   0.00000  Uiso   1.00
Zn448  Zn    0.75000   0.50000   0.11563   0.00000  Uiso   1.00
C449   C     0.51192   0.83399   0.04616   0.00000  Uiso   1.00
O450   O     0.99170   0.84788   0.07768   0.00000  Uiso   1.00
O451   O     0.54369   0.86143   0.02833   0.00000  Uiso   1.00
H452   H     0.54761   0.89095   0.04538   0.00000  Uiso   1.00
C453   C     0.98808   0.66601   0.28717   0.00000  Uiso   1.00
O454   O     0.50830   0.65212   0.25565   0.00000  Uiso   1.00
O455   O     0.95631   0.63857   0.30501   0.00000  Uiso   1.00
H456   H     0.95239   0.60905   0.28795   0.00000  Uiso   1.00
C457   C     0.51192   0.66601   0.04616   0.00000  Uiso   1.00
O458   O     0.99170   0.65212   0.07768   0.00000  Uiso   1.00
O459   O     0.54369   0.63857   0.02833   0.00000  Uiso   1.00
H460   H     0.54761   0.60905   0.04538   0.00000  Uiso   1.00
C461   C     0.98808   0.83399   0.28717   0.00000  Uiso   1.00
O462   O     0.50830   0.84788   0.25565   0.00000  Uiso   1.00
O463   O     0.95631   0.86143   0.30500   0.00000  Uiso   1.00
H464   H     0.95239   0.89095   0.28795   0.00000  Uiso   1.00
C465   C     0.76192   0.58399   0.04616   0.00000  Uiso   1.00
O466   O     0.74170   0.59788   0.07768   0.00000  Uiso   1.00
O467   O     0.79369   0.61143   0.02833   0.00000  Uiso   1.00
H468   H     0.79761   0.64095   0.04538   0.00000  Uiso   1.00
C469   C     0.73808   0.91601   0.28717   0.00000  Uiso   1.00
O470   O     0.75830   0.90212   0.25565   0.00000  Uiso   1.00
O471   O     0.70631   0.88857   0.30501   0.00000  Uiso   1.00
H472   H     0.70239   0.85905   0.28795   0.00000  Uiso   1.00
C473   C     0.76192   0.91601   0.04616   0.00000  Uiso   1.00
O474   O     0.74170   0.90212   0.07768   0.00000  Uiso   1.00
O475   O     0.79369   0.88857   0.02833   0.00000  Uiso   1.00
H476   H     0.79761   0.85905   0.04538   0.00000  Uiso   1.00
C477   C     0.73808   0.58399   0.28717   0.00000  Uiso   1.00
O478   O     0.75830   0.59788   0.25565   0.00000  Uiso   1.00
O479   O     0.70631   0.61143   0.30500   0.00000  Uiso   1.00
H480   H     0.70239   0.64095   0.28795   0.00000  Uiso   1.00
C481   C     0.89583   0.66162   0.08150   0.00000  Uiso   1.00
N482   N     0.90074   0.67805   0.04674   0.00000  Uiso   1.00
C483   C     0.60417   0.83838   0.25184   0.00000  Uiso   1.00
N484   N     0.59926   0.82195   0.28659   0.00000  Uiso   1.00
C485   C     0.61488   0.82236   0.08725   0.00000  Uiso   1.00
N486   N     0.61421   0.79967   0.05561   0.00000  Uiso   1.00
C487   C     0.88512   0.67764   0.24608   0.00000  Uiso   1.00
N488   N     0.88579   0.70033   0.27773   0.00000  Uiso   1.00
C489   C     0.60416   0.66162   0.25184   0.00000  Uiso   1.00
N490   N     0.59926   0.67805   0.28659   0.00000  Uiso   1.00
C491   C     0.89584   0.83838   0.08150   0.00000  Uiso   1.00
N492   N     0.90074   0.82195   0.04674   0.00000  Uiso   1.00
C493   C     0.88512   0.82236   0.24608   0.00000  Uiso   1.00
N494   N     0.88579   0.79967   0.27773   0.00000  Uiso   1.00
C495   C     0.61488   0.67764   0.08725   0.00000  Uiso   1.00
N496   N     0.61421   0.70033   0.05561   0.00000  Uiso   1.00
C497   C     0.64583   0.91162   0.08150   0.00000  Uiso   1.00
N498   N     0.65074   0.92805   0.04674   0.00000  Uiso   1.00
C499   C     0.85417   0.58838   0.25184   0.00000  Uiso   1.00
N500   N     0.84926   0.57195   0.28659   0.00000  Uiso   1.00
C501   C     0.86488   0.57236   0.08725   0.00000  Uiso   1.00
N502   N     0.86421   0.54967   0.05561   0.00000  Uiso   1.00
C503   C     0.63512   0.92764   0.24608   0.00000  Uiso   1.00
N504   N     0.63579   0.95033   0.27773   0.00000  Uiso   1.00
C505   C     0.85416   0.91162   0.25184   0.00000  Uiso   1.00
N506   N     0.84926   0.92805   0.28659   0.00000  Uiso   1.00
C507   C     0.64584   0.58838   0.08150   0.00000  Uiso   1.00
N508   N     0.65074   0.57195   0.04674   0.00000  Uiso   1.00
C509   C     0.63512   0.57236   0.24608   0.00000  Uiso   1.00
N510   N     0.63579   0.54967   0.27773   0.00000  Uiso   1.00
C511   C     0.86488   0.92764   0.08725   0.00000  Uiso   1.00
N512   N     0.86421   0.95033   0.05561   0.00000  Uiso   1.00
C513   C     0.06246   0.19298   0.50037   0.00000  Uiso   1.00
C514   C     0.43754   0.30702   0.49963   0.00000  Uiso   1.00
C515   C     0.43754   0.19298   0.49963   0.00000  Uiso   1.00
C516   C     0.06246   0.30702   0.50037   0.00000  Uiso   1.00
C517   C     0.31246   0.44298   0.50037   0.00000  Uiso   1.00
C518   C     0.18754   0.05702   0.49963   0.00000  Uiso   1.00
C519   C     0.18754   0.44298   0.49963   0.00000  Uiso   1.00
C520   C     0.31246   0.05702   0.50037   0.00000  Uiso   1.00
C521   C     0.00141   0.29008   0.35719   0.00000  Uiso   1.00
C522   C     0.49859   0.20992   0.64281   0.00000  Uiso   1.00
C523   C     0.00141   0.20992   0.35719   0.00000  Uiso   1.00
C524   C     0.49859   0.29008   0.64281   0.00000  Uiso   1.00
C525   C     0.25141   0.04008   0.35719   0.00000  Uiso   1.00
C526   C     0.24859   0.45992   0.64281   0.00000  Uiso   1.00
C527   C     0.25141   0.45992   0.35719   0.00000  Uiso   1.00
C528   C     0.24859   0.04008   0.64281   0.00000  Uiso   1.00
C529   C     0.38907   0.14110   0.45844   0.00000  Uiso   1.00
C530   C     0.11094   0.35891   0.54156   0.00000  Uiso   1.00
C531   C     0.11630   0.35106   0.46017   0.00000  Uiso   1.00
C532   C     0.38370   0.14894   0.53983   0.00000  Uiso   1.00
C533   C     0.11093   0.14109   0.54156   0.00000  Uiso   1.00
C534   C     0.38907   0.35891   0.45844   0.00000  Uiso   1.00
C535   C     0.38370   0.35106   0.53983   0.00000  Uiso   1.00
C536   C     0.11630   0.14894   0.46017   0.00000  Uiso   1.00
C537   C     0.13907   0.39110   0.45844   0.00000  Uiso   1.00
C538   C     0.36094   0.10891   0.54156   0.00000  Uiso   1.00
C539   C     0.36630   0.10106   0.46017   0.00000  Uiso   1.00
C540   C     0.13370   0.39894   0.53983   0.00000  Uiso   1.00
C541   C     0.36093   0.39109   0.54156   0.00000  Uiso   1.00
C542   C     0.13907   0.10891   0.45844   0.00000  Uiso   1.00
C543   C     0.13370   0.10106   0.53983   0.00000  Uiso   1.00
C544   C     0.36630   0.39894   0.46017   0.00000  Uiso   1.00
C545   C     0.09859   0.33750   0.50109   0.00000  Uiso   1.00
C546   C     0.40141   0.16250   0.49891   0.00000  Uiso   1.00
C547   C     0.40141   0.33750   0.49891   0.00000  Uiso   1.00
C548   C     0.09859   0.16250   0.50109   0.00000  Uiso   1.00
C549   C     0.34859   0.08750   0.50109   0.00000  Uiso   1.00
C550   C     0.15141   0.41250   0.49891   0.00000  Uiso   1.00
C551   C     0.15141   0.08750   0.49891   0.00000  Uiso   1.00
C552   C     0.34859   0.41250   0.50109   0.00000  Uiso   1.00
N553   N     0.00000   0.25000   0.61907   0.00000  Uiso   1.00
N554   N     0.00000   0.25000   0.38093   0.00000  Uiso   1.00
N555   N     0.25000   0.00000   0.61907   0.00000  Uiso   1.00
N556   N     0.25000   0.00000   0.38093   0.00000  Uiso   1.00
O557   O     0.04581   0.20419   0.53821   0.00000  Uiso   1.00
O558   O     0.45420   0.29581   0.46179   0.00000  Uiso   1.00
O559   O     0.45420   0.29581   0.53821   0.00000  Uiso   1.00
O560   O     0.04581   0.20419   0.46179   0.00000  Uiso   1.00
O561   O     0.45420   0.20419   0.46179   0.00000  Uiso   1.00
O562   O     0.04581   0.29581   0.53821   0.00000  Uiso   1.00
O563   O     0.04581   0.29581   0.46179   0.00000  Uiso   1.00
O564   O     0.45420   0.20419   0.53821   0.00000  Uiso   1.00
O565   O     0.29581   0.45419   0.53821   0.00000  Uiso   1.00
O566   O     0.20420   0.04581   0.46179   0.00000  Uiso   1.00
O567   O     0.20420   0.04581   0.53821   0.00000  Uiso   1.00
O568   O     0.29581   0.45419   0.46179   0.00000  Uiso   1.00
O569   O     0.20420   0.45419   0.46179   0.00000  Uiso   1.00
O570   O     0.29581   0.04581   0.53821   0.00000  Uiso   1.00
O571   O     0.29581   0.04581   0.46179   0.00000  Uiso   1.00
O572   O     0.20420   0.45419   0.53821   0.00000  Uiso   1.00
Zn573  Zn    0.00000   0.25000   0.55104   0.00000  Uiso   1.00
Zn574  Zn    0.00000   0.25000   0.44896   0.00000  Uiso   1.00
Zn575  Zn    0.25000   0.00000   0.55104   0.00000  Uiso   1.00
Zn576  Zn    0.25000   0.00000   0.44896   0.00000  Uiso   1.00
C577   C     0.01192   0.33399   0.37950   0.00000  Uiso   1.00
O578   O     0.49170   0.34788   0.41102   0.00000  Uiso   1.00
O579   O     0.04369   0.36143   0.36166   0.00000  Uiso   1.00
H580   H     0.04761   0.39095   0.37871   0.00000  Uiso   1.00
C581   C     0.48808   0.16601   0.62050   0.00000  Uiso   1.00
O582   O     0.00830   0.15212   0.58898   0.00000  Uiso   1.00
O583   O     0.45631   0.13857   0.63834   0.00000  Uiso   1.00
H584   H     0.45239   0.10905   0.62129   0.00000  Uiso   1.00
C585   C     0.01192   0.16601   0.37950   0.00000  Uiso   1.00
O586   O     0.49170   0.15212   0.41101   0.00000  Uiso   1.00
O587   O     0.04369   0.13857   0.36166   0.00000  Uiso   1.00
H588   H     0.04761   0.10905   0.37871   0.00000  Uiso   1.00
C589   C     0.48808   0.33399   0.62050   0.00000  Uiso   1.00
O590   O     0.00830   0.34788   0.58899   0.00000  Uiso   1.00
O591   O     0.45631   0.36143   0.63834   0.00000  Uiso   1.00
H592   H     0.45239   0.39095   0.62129   0.00000  Uiso   1.00
C593   C     0.26192   0.08399   0.37950   0.00000  Uiso   1.00
O594   O     0.24170   0.09788   0.41102   0.00000  Uiso   1.00
O595   O     0.29369   0.11143   0.36166   0.00000  Uiso   1.00
H596   H     0.29761   0.14095   0.37871   0.00000  Uiso   1.00
C597   C     0.23808   0.41601   0.62050   0.00000  Uiso   1.00
O598   O     0.25830   0.40212   0.58898   0.00000  Uiso   1.00
O599   O     0.20631   0.38857   0.63834   0.00000  Uiso   1.00
H600   H     0.20239   0.35905   0.62129   0.00000  Uiso   1.00
C601   C     0.26192   0.41601   0.37950   0.00000  Uiso   1.00
O602   O     0.24170   0.40212   0.41101   0.00000  Uiso   1.00
O603   O     0.29369   0.38857   0.36166   0.00000  Uiso   1.00
H604   H     0.29761   0.35905   0.37871   0.00000  Uiso   1.00
C605   C     0.23808   0.08399   0.62050   0.00000  Uiso   1.00
O606   O     0.25830   0.09788   0.58899   0.00000  Uiso   1.00
O607   O     0.20631   0.11143   0.63834   0.00000  Uiso   1.00
H608   H     0.20239   0.14095   0.62129   0.00000  Uiso   1.00
C609   C     0.39583   0.16162   0.41483   0.00000  Uiso   1.00
N610   N     0.40074   0.17805   0.38008   0.00000  Uiso   1.00
C611   C     0.10417   0.33838   0.58517   0.00000  Uiso   1.00
N612   N     0.09926   0.32195   0.61992   0.00000  Uiso   1.00
C613   C     0.11488   0.32236   0.42058   0.00000  Uiso   1.00
N614   N     0.11421   0.29967   0.38894   0.00000  Uiso   1.00
C615   C     0.38512   0.17764   0.57942   0.00000  Uiso   1.00
N616   N     0.38579   0.20033   0.61106   0.00000  Uiso   1.00
C617   C     0.10416   0.16162   0.58517   0.00000  Uiso   1.00
N618   N     0.09926   0.17805   0.61992   0.00000  Uiso   1.00
C619   C     0.39584   0.33838   0.41483   0.00000  Uiso   1.00
N620   N     0.40074   0.32195   0.38008   0.00000  Uiso   1.00
C621   C     0.38512   0.32236   0.57942   0.00000  Uiso   1.00
N622   N     0.38579   0.29967   0.61106   0.00000  Uiso   1.00
C623   C     0.11488   0.17764   0.42058   0.00000  Uiso   1.00
N624   N     0.11421   0.20033   0.38894   0.00000  Uiso   1.00
C625   C     0.14583   0.41162   0.41483   0.00000  Uiso   1.00
N626   N     0.15074   0.42805   0.38008   0.00000  Uiso   1.00
C627   C     0.35417   0.08838   0.58517   0.00000  Uiso   1.00
N628   N     0.34926   0.07195   0.61992   0.00000  Uiso   1.00
C629   C     0.36488   0.07236   0.42058   0.00000  Uiso   1.00
N630   N     0.36421   0.04967   0.38894   0.00000  Uiso   1.00
C631   C     0.13512   0.42764   0.57942   0.00000  Uiso   1.00
N632   N     0.13579   0.45033   0.61106   0.00000  Uiso   1.00
C633   C     0.35416   0.41162   0.58517   0.00000  Uiso   1.00
N634   N     0.34926   0.42805   0.61992   0.00000  Uiso   1.00
C635   C     0.14584   0.08838   0.41483   0.00000  Uiso   1.00
N636   N     0.15074   0.07195   0.38008   0.00000  Uiso   1.00
C637   C     0.13512   0.07236   0.57942   0.00000  Uiso   1.00
N638   N     0.13579   0.04967   0.61106   0.00000  Uiso   1.00
C639   C     0.36488   0.42764   0.42058   0.00000  Uiso   1.00
N640   N     0.36421   0.45033   0.38894   0.00000  Uiso   1.00
C641   C     0.56246   0.19298   0.50037   0.00000  Uiso   1.00
C642   C     0.93754   0.30702   0.49963   0.00000  Uiso   1.00
C643   C     0.93754   0.19298   0.49963   0.00000  Uiso   1.00
C644   C     0.56246   0.30702   0.50037   0.00000  Uiso   1.00
C645   C     0.81246   0.44298   0.50037   0.00000  Uiso   1.00
C646   C     0.68754   0.05702   0.49963   0.00000  Uiso   1.00
C647   C     0.68754   0.44298   0.49963   0.00000  Uiso   1.00
C648   C     0.81246   0.05702   0.50037   0.00000  Uiso   1.00
C649   C     0.50141   0.29008   0.35719   0.00000  Uiso   1.00
C650   C     0.99859   0.20992   0.64281   0.00000  Uiso   1.00
C651   C     0.50141   0.20992   0.35719   0.00000  Uiso   1.00
C652   C     0.99859   0.29008   0.64281   0.00000  Uiso   1.00
C653   C     0.75141   0.04008   0.35719   0.00000  Uiso   1.00
C654   C     0.74859   0.45992   0.64281   0.00000  Uiso   1.00
C655   C     0.75141   0.45992   0.35719   0.00000  Uiso   1.00
C656   C     0.74859   0.04008   0.64281   0.00000  Uiso   1.00
C657   C     0.88907   0.14110   0.45844   0.00000  Uiso   1.00
C658   C     0.61094   0.35891   0.54156   0.00000  Uiso   1.00
C659   C     0.61630   0.35106   0.46017   0.00000  Uiso   1.00
C660   C     0.88370   0.14894   0.53983   0.00000  Uiso   1.00
C661   C     0.61093   0.14109   0.54156   0.00000  Uiso   1.00
C662   C     0.88907   0.35891   0.45844   0.00000  Uiso   1.00
C663   C     0.88370   0.35106   0.53983   0.00000  Uiso   1.00
C664   C     0.61630   0.14894   0.46017   0.00000  Uiso   1.00
C665   C     0.63907   0.39110   0.45844   0.00000  Uiso   1.00
C666   C     0.86094   0.10891   0.54156   0.00000  Uiso   1.00
C667   C     0.86630   0.10106   0.46017   0.00000  Uiso   1.00
C668   C     0.63370   0.39894   0.53983   0.00000  Uiso   1.00
C669   C     0.86093   0.39109   0.54156   0.00000  Uiso   1.00
C670   C     0.63907   0.10891   0.45844   0.00000  Uiso   1.00
C671   C     0.63370   0.10106   0.53983   0.00000  Uiso   1.00
C672   C     0.86630   0.39894   0.46017   0.00000  Uiso   1.00
C673   C     0.59859   0.33750   0.50109   0.00000  Uiso   1.00
C674   C     0.90141   0.16250   0.49891   0.00000  Uiso   1.00
C675   C     0.90141   0.33750   0.49891   0.00000  Uiso   1.00
C676   C     0.59859   0.16250   0.50109   0.00000  Uiso   1.00
C677   C     0.84859   0.08750   0.50109   0.00000  Uiso   1.00
C678   C     0.65141   0.41250   0.49891   0.00000  Uiso   1.00
C679   C     0.65141   0.08750   0.49891   0.00000  Uiso   1.00
C680   C     0.84859   0.41250   0.50109   0.00000  Uiso   1.00
N681   N     0.50000   0.25000   0.61907   0.00000  Uiso   1.00
N682   N     0.50000   0.25000   0.38093   0.00000  Uiso   1.00
N683   N     0.75000   0.00000   0.61907   0.00000  Uiso   1.00
N684   N     0.75000   0.00000   0.38093   0.00000  Uiso   1.00
O685   O     0.54581   0.20419   0.53821   0.00000  Uiso   1.00
O686   O     0.95420   0.29581   0.46179   0.00000  Uiso   1.00
O687   O     0.95420   0.29581   0.53821   0.00000  Uiso   1.00
O688   O     0.54581   0.20419   0.46179   0.00000  Uiso   1.00
O689   O     0.95420   0.20419   0.46179   0.00000  Uiso   1.00
O690   O     0.54581   0.29581   0.53821   0.00000  Uiso   1.00
O691   O     0.54581   0.29581   0.46179   0.00000  Uiso   1.00
O692   O     0.95420   0.20419   0.53821   0.00000  Uiso   1.00
O693   O     0.79581   0.45419   0.53821   0.00000  Uiso   1.00
O694   O     0.70420   0.04581   0.46179   0.00000  Uiso   1.00
O695   O     0.70420   0.04581   0.53821   0.00000  Uiso   1.00
O696   O     0.79581   0.45419   0.46179   0.00000  Uiso   1.00
O697   O     0.70420   0.45419   0.46179   0.00000  Uiso   1.00
O698   O     0.79581   0.04581   0.53821   0.00000  Uiso   1.00
O699   O     0.79581   0.04581   0.46179   0.00000  Uiso   1.00
O700   O     0.70420   0.45419   0.53821   0.00000  Uiso   1.00
Zn701  Zn    0.50000   0.25000   0.55104   0.00000  Uiso   1.00
Zn702  Zn    0.50000   0.25000   0.44896   0.00000  Uiso   1.00
Zn703  Zn    0.75000   0.00000   0.55104   0.00000  Uiso   1.00
Zn704  Zn    0.75000   0.00000   0.44896   0.00000  Uiso   1.00
C705   C     0.51192   0.33399   0.37950   0.00000  Uiso   1.00
O706   O     0.99170   0.34788   0.41102   0.00000  Uiso   1.00
O707   O     0.54369   0.36143   0.36166   0.00000  Uiso   1.00
H708   H     0.54761   0.39095   0.37871   0.00000  Uiso   1.00
C709   C     0.98808   0.16601   0.62050   0.00000  Uiso   1.00
O710   O     0.50830   0.15212   0.58898   0.00000  Uiso   1.00
O711   O     0.95631   0.13857   0.63834   0.00000  Uiso   1.00
H712   H     0.95239   0.10905   0.62129   0.00000  Uiso   1.00
C713   C     0.51192   0.16601   0.37950   0.00000  Uiso   1.00
O714   O     0.99170   0.15212   0.41101   0.00000  Uiso   1.00
O715   O     0.54369   0.13857   0.36166   0.00000  Uiso   1.00
H716   H     0.54761   0.10905   0.37871   0.00000  Uiso   1.00
C717   C     0.98808   0.33399   0.62050   0.00000  Uiso   1.00
O718   O     0.50830   0.34788   0.58899   0.00000  Uiso   1.00
O719   O     0.95631   0.36143   0.63834   0.00000  Uiso   1.00
H720   H     0.95239   0.39095   0.62129   0.00000  Uiso   1.00
C721   C     0.76192   0.08399   0.37950   0.00000  Uiso   1.00
O722   O     0.74170   0.09788   0.41102   0.00000  Uiso   1.00
O723   O     0.79369   0.11143   0.36166   0.00000  Uiso   1.00
H724   H     0.79761   0.14095   0.37871   0.00000  Uiso   1.00
C725   C     0.73808   0.41601   0.62050   0.00000  Uiso   1.00
O726   O     0.75830   0.40212   0.58898   0.00000  Uiso   1.00
O727   O     0.70631   0.38857   0.63834   0.00000  Uiso   1.00
H728   H     0.70239   0.35905   0.62129   0.00000  Uiso   1.00
C729   C     0.76192   0.41601   0.37950   0.00000  Uiso   1.00
O730   O     0.74170   0.40212   0.41101   0.00000  Uiso   1.00
O731   O     0.79369   0.38857   0.36166   0.00000  Uiso   1.00
H732   H     0.79761   0.35905   0.37871   0.00000  Uiso   1.00
C733   C     0.73808   0.08399   0.62050   0.00000  Uiso   1.00
O734   O     0.75830   0.09788   0.58899   0.00000  Uiso   1.00
O735   O     0.70631   0.11143   0.63834   0.00000  Uiso   1.00
H736   H     0.70239   0.14095   0.62129   0.00000  Uiso   1.00
C737   C     0.89583   0.16162   0.41483   0.00000  Uiso   1.00
N738   N     0.90074   0.17805   0.38008   0.00000  Uiso   1.00
C739   C     0.60417   0.33838   0.58517   0.00000  Uiso   1.00
N740   N     0.59926   0.32195   0.61992   0.00000  Uiso   1.00
C741   C     0.61488   0.32236   0.42058   0.00000  Uiso   1.00
N742   N     0.61421   0.29967   0.38894   0.00000  Uiso   1.00
C743   C     0.88512   0.17764   0.57942   0.00000  Uiso   1.00
N744   N     0.88579   0.20033   0.61106   0.00000  Uiso   1.00
C745   C     0.60416   0.16162   0.58517   0.00000  Uiso   1.00
N746   N     0.59926   0.17805   0.61992   0.00000  Uiso   1.00
C747   C     0.89584   0.33838   0.41483   0.00000  Uiso   1.00
N748   N     0.90074   0.32195   0.38008   0.00000  Uiso   1.00
C749   C     0.88512   0.32236   0.57942   0.00000  Uiso   1.00
N750   N     0.88579   0.29967   0.61106   0.00000  Uiso   1.00
C751   C     0.61488   0.17764   0.42058   0.00000  Uiso   1.00
N752   N     0.61421   0.20033   0.38894   0.00000  Uiso   1.00
C753   C     0.64583   0.41162   0.41483   0.00000  Uiso   1.00
N754   N     0.65074   0.42805   0.38008   0.00000  Uiso   1.00
C755   C     0.85417   0.08838   0.58517   0.00000  Uiso   1.00
N756   N     0.84926   0.07195   0.61992   0.00000  Uiso   1.00
C757   C     0.86488   0.07236   0.42058   0.00000  Uiso   1.00
N758   N     0.86421   0.04967   0.38894   0.00000  Uiso   1.00
C759   C     0.63512   0.42764   0.57942   0.00000  Uiso   1.00
N760   N     0.63579   0.45033   0.61106   0.00000  Uiso   1.00
C761   C     0.85416   0.41162   0.58517   0.00000  Uiso   1.00
N762   N     0.84926   0.42805   0.61992   0.00000  Uiso   1.00
C763   C     0.64584   0.08838   0.41483   0.00000  Uiso   1.00
N764   N     0.65074   0.07195   0.38008   0.00000  Uiso   1.00
C765   C     0.63512   0.07236   0.57942   0.00000  Uiso   1.00
N766   N     0.63579   0.04967   0.61106   0.00000  Uiso   1.00
C767   C     0.86488   0.42764   0.42058   0.00000  Uiso   1.00
N768   N     0.86421   0.45033   0.38894   0.00000  Uiso   1.00
C769   C     0.06246   0.69298   0.50037   0.00000  Uiso   1.00
C770   C     0.43754   0.80702   0.49963   0.00000  Uiso   1.00
C771   C     0.43754   0.69298   0.49963   0.00000  Uiso   1.00
C772   C     0.06246   0.80702   0.50037   0.00000  Uiso   1.00
C773   C     0.31246   0.94298   0.50037   0.00000  Uiso   1.00
C774   C     0.18754   0.55702   0.49963   0.00000  Uiso   1.00
C775   C     0.18754   0.94298   0.49963   0.00000  Uiso   1.00
C776   C     0.31246   0.55702   0.50037   0.00000  Uiso   1.00
C777   C     0.00141   0.79008   0.35719   0.00000  Uiso   1.00
C778   C     0.49859   0.70992   0.64281   0.00000  Uiso   1.00
C779   C     0.00141   0.70992   0.35719   0.00000  Uiso   1.00
C780   C     0.49859   0.79008   0.64281   0.00000  Uiso   1.00
C781   C     0.25141   0.54008   0.35719   0.00000  Uiso   1.00
C782   C     0.24859   0.95992   0.64281   0.00000  Uiso   1.00
C783   C     0.25141   0.95992   0.35719   0.00000  Uiso   1.00
C784   C     0.24859   0.54008   0.64281   0.00000  Uiso   1.00
C785   C     0.38907   0.64110   0.45844   0.00000  Uiso   1.00
C786   C     0.11094   0.85891   0.54156   0.00000  Uiso   1.00
C787   C     0.11630   0.85106   0.46017   0.00000  Uiso   1.00
C788   C     0.38370   0.64894   0.53983   0.00000  Uiso   1.00
C789   C     0.11093   0.64109   0.54156   0.00000  Uiso   1.00
C790   C     0.38907   0.85891   0.45844   0.00000  Uiso   1.00
C791   C     0.38370   0.85106   0.53983   0.00000  Uiso   1.00
C792   C     0.11630   0.64894   0.46017   0.00000  Uiso   1.00
C793   C     0.13907   0.89110   0.45844   0.00000  Uiso   1.00
C794   C     0.36094   0.60891   0.54156   0.00000  Uiso   1.00
C795   C     0.36630   0.60106   0.46017   0.00000  Uiso   1.00
C796   C     0.13370   0.89894   0.53983   0.00000  Uiso   1.00
C797   C     0.36093   0.89109   0.54156   0.00000  Uiso   1.00
C798   C     0.13907   0.60891   0.45844   0.00000  Uiso   1.00
C799   C     0.13370   0.60106   0.53983   0.00000  Uiso   1.00
C800   C     0.36630   0.89894   0.46017   0.00000  Uiso   1.00
C801   C     0.09859   0.83750   0.50109   0.00000  Uiso   1.00
C802   C     0.40141   0.66250   0.49891   0.00000  Uiso   1.00
C803   C     0.40141   0.83750   0.49891   0.00000  Uiso   1.00
C804   C     0.09859   0.66250   0.50109   0.00000  Uiso   1.00
C805   C     0.34859   0.58750   0.50109   0.00000  Uiso   1.00
C806   C     0.15141   0.91250   0.49891   0.00000  Uiso   1.00
C807   C     0.15141   0.58750   0.49891   0.00000  Uiso   1.00
C808   C     0.34859   0.91250   0.50109   0.00000  Uiso   1.00
N809   N     0.00000   0.75000   0.61907   0.00000  Uiso   1.00
N810   N     0.00000   0.75000   0.38093   0.00000  Uiso   1.00
N811   N     0.25000   0.50000   0.61907   0.00000  Uiso   1.00
N812   N     0.25000   0.50000   0.38093   0.00000  Uiso   1.00
O813   O     0.04581   0.70419   0.53821   0.00000  Uiso   1.00
O814   O     0.45420   0.79581   0.46179   0.00000  Uiso   1.00
O815   O     0.45420   0.79581   0.53821   0.00000  Uiso   1.00
O816   O     0.04581   0.70419   0.46179   0.00000  Uiso   1.00
O817   O     0.45420   0.70419   0.46179   0.00000  Uiso   1.00
O818   O     0.04581   0.79581   0.53821   0.00000  Uiso   1.00
O819   O     0.04581   0.79581   0.46179   0.00000  Uiso   1.00
O820   O     0.45420   0.70419   0.53821   0.00000  Uiso   1.00
O821   O     0.29581   0.95419   0.53821   0.00000  Uiso   1.00
O822   O     0.20420   0.54581   0.46179   0.00000  Uiso   1.00
O823   O     0.20420   0.54581   0.53821   0.00000  Uiso   1.00
O824   O     0.29581   0.95419   0.46179   0.00000  Uiso   1.00
O825   O     0.20420   0.95419   0.46179   0.00000  Uiso   1.00
O826   O     0.29581   0.54581   0.53821   0.00000  Uiso   1.00
O827   O     0.29581   0.54581   0.46179   0.00000  Uiso   1.00
O828   O     0.20420   0.95419   0.53821   0.00000  Uiso   1.00
Zn829  Zn    0.00000   0.75000   0.55104   0.00000  Uiso   1.00
Zn830  Zn    0.00000   0.75000   0.44896   0.00000  Uiso   1.00
Zn831  Zn    0.25000   0.50000   0.55104   0.00000  Uiso   1.00
Zn832  Zn    0.25000   0.50000   0.44896   0.00000  Uiso   1.00
C833   C     0.01192   0.83399   0.37950   0.00000  Uiso   1.00
O834   O     0.49170   0.84788   0.41102   0.00000  Uiso   1.00
O835   O     0.04369   0.86143   0.36166   0.00000  Uiso   1.00
H836   H     0.04761   0.89095   0.37871   0.00000  Uiso   1.00
C837   C     0.48808   0.66601   0.62050   0.00000  Uiso   1.00
O838   O     0.00830   0.65212   0.58898   0.00000  Uiso   1.00
O839   O     0.45631   0.63857   0.63834   0.00000  Uiso   1.00
H840   H     0.45239   0.60905   0.62129   0.00000  Uiso   1.00
C841   C     0.01192   0.66601   0.37950   0.00000  Uiso   1.00
O842   O     0.49170   0.65212   0.41101   0.00000  Uiso   1.00
O843   O     0.04369   0.63857   0.36166   0.00000  Uiso   1.00
H844   H     0.04761   0.60905   0.37871   0.00000  Uiso   1.00
C845   C     0.48808   0.83399   0.62050   0.00000  Uiso   1.00
O846   O     0.00830   0.84788   0.58899   0.00000  Uiso   1.00
O847   O     0.45631   0.86143   0.63834   0.00000  Uiso   1.00
H848   H     0.45239   0.89095   0.62129   0.00000  Uiso   1.00
C849   C     0.26192   0.58399   0.37950   0.00000  Uiso   1.00
O850   O     0.24170   0.59788   0.41102   0.00000  Uiso   1.00
O851   O     0.29369   0.61143   0.36166   0.00000  Uiso   1.00
H852   H     0.29761   0.64095   0.37871   0.00000  Uiso   1.00
C853   C     0.23808   0.91601   0.62050   0.00000  Uiso   1.00
O854   O     0.25830   0.90212   0.58898   0.00000  Uiso   1.00
O855   O     0.20631   0.88857   0.63834   0.00000  Uiso   1.00
H856   H     0.20239   0.85905   0.62129   0.00000  Uiso   1.00
C857   C     0.26192   0.91601   0.37950   0.00000  Uiso   1.00
O858   O     0.24170   0.90212   0.41101   0.00000  Uiso   1.00
O859   O     0.29369   0.88857   0.36166   0.00000  Uiso   1.00
H860   H     0.29761   0.85905   0.37871   0.00000  Uiso   1.00
C861   C     0.23808   0.58399   0.62050   0.00000  Uiso   1.00
O862   O     0.25830   0.59788   0.58899   0.00000  Uiso   1.00
O863   O     0.20631   0.61143   0.63834   0.00000  Uiso   1.00
H864   H     0.20239   0.64095   0.62129   0.00000  Uiso   1.00
C865   C     0.39583   0.66162   0.41483   0.00000  Uiso   1.00
N866   N     0.40074   0.67805   0.38008   0.00000  Uiso   1.00
C867   C     0.10417   0.83838   0.58517   0.00000  Uiso   1.00
N868   N     0.09926   0.82195   0.61992   0.00000  Uiso   1.00
C869   C     0.11488   0.82236   0.42058   0.00000  Uiso   1.00
N870   N     0.11421   0.79967   0.38894   0.00000  Uiso   1.00
C871   C     0.38512   0.67764   0.57942   0.00000  Uiso   1.00
N872   N     0.38579   0.70033   0.61106   0.00000  Uiso   1.00
C873   C     0.10416   0.66162   0.58517   0.00000  Uiso   1.00
N874   N     0.09926   0.67805   0.61992   0.00000  Uiso   1.00
C875   C     0.39584   0.83838   0.41483   0.00000  Uiso   1.00
N876   N     0.40074   0.82195   0.38008   0.00000  Uiso   1.00
C877   C     0.38512   0.82236   0.57942   0.00000  Uiso   1.00
N878   N     0.38579   0.79967   0.61106   0.00000  Uiso   1.00
C879   C     0.11488   0.67764   0.42058   0.00000  Uiso   1.00
N880   N     0.11421   0.70033   0.38894   0.00000  Uiso   1.00
C881   C     0.14583   0.91162   0.41483   0.00000  Uiso   1.00
N882   N     0.15074   0.92805   0.38008   0.00000  Uiso   1.00
C883   C     0.35417   0.58838   0.58517   0.00000  Uiso   1.00
N884   N     0.34926   0.57195   0.61992   0.00000  Uiso   1.00
C885   C     0.36488   0.57236   0.42058   0.00000  Uiso   1.00
N886   N     0.36421   0.54967   0.38894   0.00000  Uiso   1.00
C887   C     0.13512   0.92764   0.57942   0.00000  Uiso   1.00
N888   N     0.13579   0.95033   0.61106   0.00000  Uiso   1.00
C889   C     0.35416   0.91162   0.58517   0.00000  Uiso   1.00
N890   N     0.34926   0.92805   0.61992   0.00000  Uiso   1.00
C891   C     0.14584   0.58838   0.41483   0.00000  Uiso   1.00
N892   N     0.15074   0.57195   0.38008   0.00000  Uiso   1.00
C893   C     0.13512   0.57236   0.57942   0.00000  Uiso   1.00
N894   N     0.13579   0.54967   0.61106   0.00000  Uiso   1.00
C895   C     0.36488   0.92764   0.42058   0.00000  Uiso   1.00
N896   N     0.36421   0.95033   0.38894   0.00000  Uiso   1.00
C897   C     0.56246   0.69298   0.50037   0.00000  Uiso   1.00
C898   C     0.93754   0.80702   0.49963   0.00000  Uiso   1.00
C899   C     0.93754   0.69298   0.49963   0.00000  Uiso   1.00
C900   C     0.56246   0.80702   0.50037   0.00000  Uiso   1.00
C901   C     0.81246   0.94298   0.50037   0.00000  Uiso   1.00
C902   C     0.68754   0.55702   0.49963   0.00000  Uiso   1.00
C903   C     0.68754   0.94298   0.49963   0.00000  Uiso   1.00
C904   C     0.81246   0.55702   0.50037   0.00000  Uiso   1.00
C905   C     0.50141   0.79008   0.35719   0.00000  Uiso   1.00
C906   C     0.99859   0.70992   0.64281   0.00000  Uiso   1.00
C907   C     0.50141   0.70992   0.35719   0.00000  Uiso   1.00
C908   C     0.99859   0.79008   0.64281   0.00000  Uiso   1.00
C909   C     0.75141   0.54008   0.35719   0.00000  Uiso   1.00
C910   C     0.74859   0.95992   0.64281   0.00000  Uiso   1.00
C911   C     0.75141   0.95992   0.35719   0.00000  Uiso   1.00
C912   C     0.74859   0.54008   0.64281   0.00000  Uiso   1.00
C913   C     0.88907   0.64110   0.45844   0.00000  Uiso   1.00
C914   C     0.61094   0.85891   0.54156   0.00000  Uiso   1.00
C915   C     0.61630   0.85106   0.46017   0.00000  Uiso   1.00
C916   C     0.88370   0.64894   0.53983   0.00000  Uiso   1.00
C917   C     0.61093   0.64109   0.54156   0.00000  Uiso   1.00
C918   C     0.88907   0.85891   0.45844   0.00000  Uiso   1.00
C919   C     0.88370   0.85106   0.53983   0.00000  Uiso   1.00
C920   C     0.61630   0.64894   0.46017   0.00000  Uiso   1.00
C921   C     0.63907   0.89110   0.45844   0.00000  Uiso   1.00
C922   C     0.86094   0.60891   0.54156   0.00000  Uiso   1.00
C923   C     0.86630   0.60106   0.46017   0.00000  Uiso   1.00
C924   C     0.63370   0.89894   0.53983   0.00000  Uiso   1.00
C925   C     0.86093   0.89109   0.54156   0.00000  Uiso   1.00
C926   C     0.63907   0.60891   0.45844   0.00000  Uiso   1.00
C927   C     0.63370   0.60106   0.53983   0.00000  Uiso   1.00
C928   C     0.86630   0.89894   0.46017   0.00000  Uiso   1.00
C929   C     0.59859   0.83750   0.50109   0.00000  Uiso   1.00
C930   C     0.90141   0.66250   0.49891   0.00000  Uiso   1.00
C931   C     0.90141   0.83750   0.49891   0.00000  Uiso   1.00
C932   C     0.59859   0.66250   0.50109   0.00000  Uiso   1.00
C933   C     0.84859   0.58750   0.50109   0.00000  Uiso   1.00
C934   C     0.65141   0.91250   0.49891   0.00000  Uiso   1.00
C935   C     0.65141   0.58750   0.49891   0.00000  Uiso   1.00
C936   C     0.84859   0.91250   0.50109   0.00000  Uiso   1.00
N937   N     0.50000   0.75000   0.61907   0.00000  Uiso   1.00
N938   N     0.50000   0.75000   0.38093   0.00000  Uiso   1.00
N939   N     0.75000   0.50000   0.61907   0.00000  Uiso   1.00
N940   N     0.75000   0.50000   0.38093   0.00000  Uiso   1.00
O941   O     0.54581   0.70419   0.53821   0.00000  Uiso   1.00
O942   O     0.95420   0.79581   0.46179   0.00000  Uiso   1.00
O943   O     0.95420   0.79581   0.53821   0.00000  Uiso   1.00
O944   O     0.54581   0.70419   0.46179   0.00000  Uiso   1.00
O945   O     0.95420   0.70419   0.46179   0.00000  Uiso   1.00
O946   O     0.54581   0.79581   0.53821   0.00000  Uiso   1.00
O947   O     0.54581   0.79581   0.46179   0.00000  Uiso   1.00
O948   O     0.95420   0.70419   0.53821   0.00000  Uiso   1.00
O949   O     0.79581   0.95419   0.53821   0.00000  Uiso   1.00
O950   O     0.70420   0.54581   0.46179   0.00000  Uiso   1.00
O951   O     0.70420   0.54581   0.53821   0.00000  Uiso   1.00
O952   O     0.79581   0.95419   0.46179   0.00000  Uiso   1.00
O953   O     0.70420   0.95419   0.46179   0.00000  Uiso   1.00
O954   O     0.79581   0.54581   0.53821   0.00000  Uiso   1.00
O955   O     0.79581   0.54581   0.46179   0.00000  Uiso   1.00
O956   O     0.70420   0.95419   0.53821   0.00000  Uiso   1.00
Zn957  Zn    0.50000   0.75000   0.55104   0.00000  Uiso   1.00
Zn958  Zn    0.50000   0.75000   0.44896   0.00000  Uiso   1.00
Zn959  Zn    0.75000   0.50000   0.55104   0.00000  Uiso   1.00
Zn960  Zn    0.75000   0.50000   0.44896   0.00000  Uiso   1.00
C961   C     0.51192   0.83399   0.37950   0.00000  Uiso   1.00
O962   O     0.99170   0.84788   0.41102   0.00000  Uiso   1.00
O963   O     0.54369   0.86143   0.36166   0.00000  Uiso   1.00
H964   H     0.54761   0.89095   0.37871   0.00000  Uiso   1.00
C965   C     0.98808   0.66601   0.62050   0.00000  Uiso   1.00
O966   O     0.50830   0.65212   0.58898   0.00000  Uiso   1.00
O967   O     0.95631   0.63857   0.63834   0.00000  Uiso   1.00
H968   H     0.95239   0.60905   0.62129   0.00000  Uiso   1.00
C969   C     0.51192   0.66601   0.37950   0.00000  Uiso   1.00
O970   O     0.99170   0.65212   0.41101   0.00000  Uiso   1.00
O971   O     0.54369   0.63857   0.36166   0.00000  Uiso   1.00
H972   H     0.54761   0.60905   0.37871   0.00000  Uiso   1.00
C973   C     0.98808   0.83399   0.62050   0.00000  Uiso   1.00
O974   O     0.50830   0.84788   0.58899   0.00000  Uiso   1.00
O975   O     0.95631   0.86143   0.63834   0.00000  Uiso   1.00
H976   H     0.95239   0.89095   0.62129   0.00000  Uiso   1.00
C977   C     0.76192   0.58399   0.37950   0.00000  Uiso   1.00
O978   O     0.74170   0.59788   0.41102   0.00000  Uiso   1.00
O979   O     0.79369   0.61143   0.36166   0.00000  Uiso   1.00
H980   H     0.79761   0.64095   0.37871   0.00000  Uiso   1.00
C981   C     0.73808   0.91601   0.62050   0.00000  Uiso   1.00
O982   O     0.75830   0.90212   0.58898   0.00000  Uiso   1.00
O983   O     0.70631   0.88857   0.63834   0.00000  Uiso   1.00
H984   H     0.70239   0.85905   0.62129   0.00000  Uiso   1.00
C985   C     0.76192   0.91601   0.37950   0.00000  Uiso   1.00
O986   O     0.74170   0.90212   0.41101   0.00000  Uiso   1.00
O987   O     0.79369   0.88857   0.36166   0.00000  Uiso   1.00
H988   H     0.79761   0.85905   0.37871   0.00000  Uiso   1.00
C989   C     0.73808   0.58399   0.62050   0.00000  Uiso   1.00
O990   O     0.75830   0.59788   0.58899   0.00000  Uiso   1.00
O991   O     0.70631   0.61143   0.63834   0.00000  Uiso   1.00
H992   H     0.70239   0.64095   0.62129   0.00000  Uiso   1.00
C993   C     0.89583   0.66162   0.41483   0.00000  Uiso   1.00
N994   N     0.90074   0.67805   0.38008   0.00000  Uiso   1.00
C995   C     0.60417   0.83838   0.58517   0.00000  Uiso   1.00
N996   N     0.59926   0.82195   0.61992   0.00000  Uiso   1.00
C997   C     0.61488   0.82236   0.42058   0.00000  Uiso   1.00
N998   N     0.61421   0.79967   0.38894   0.00000  Uiso   1.00
C999   C     0.88512   0.67764   0.57942   0.00000  Uiso   1.00
N1000  N     0.88579   0.70033   0.61106   0.00000  Uiso   1.00
C1001  C     0.60416   0.66162   0.58517   0.00000  Uiso   1.00
N1002  N     0.59926   0.67805   0.61992   0.00000  Uiso   1.00
C1003  C     0.89584   0.83838   0.41483   0.00000  Uiso   1.00
N1004  N     0.90074   0.82195   0.38008   0.00000  Uiso   1.00
C1005  C     0.88512   0.82236   0.57942   0.00000  Uiso   1.00
N1006  N     0.88579   0.79967   0.61106   0.00000  Uiso   1.00
C1007  C     0.61488   0.67764   0.42058   0.00000  Uiso   1.00
N1008  N     0.61421   0.70033   0.38894   0.00000  Uiso   1.00
C1009  C     0.64583   0.91162   0.41483   0.00000  Uiso   1.00
N1010  N     0.65074   0.92805   0.38008   0.00000  Uiso   1.00
C1011  C     0.85417   0.58838   0.58517   0.00000  Uiso   1.00
N1012  N     0.84926   0.57195   0.61992   0.00000  Uiso   1.00
C1013  C     0.86488   0.57236   0.42058   0.00000  Uiso   1.00
N1014  N     0.86421   0.54967   0.38894   0.00000  Uiso   1.00
C1015  C     0.63512   0.92764   0.57942   0.00000  Uiso   1.00
N1016  N     0.63579   0.95033   0.61106   0.00000  Uiso   1.00
C1017  C     0.85416   0.91162   0.58517   0.00000  Uiso   1.00
N1018  N     0.84926   0.92805   0.61992   0.00000  Uiso   1.00
C1019  C     0.64584   0.58838   0.41483   0.00000  Uiso   1.00
N1020  N     0.65074   0.57195   0.38008   0.00000  Uiso   1.00
C1021  C     0.63512   0.57236   0.57942   0.00000  Uiso   1.00
N1022  N     0.63579   0.54967   0.61106   0.00000  Uiso   1.00
C1023  C     0.86488   0.92764   0.42058   0.00000  Uiso   1.00
N1024  N     0.86421   0.95033   0.38894   0.00000  Uiso   1.00
C1025  C     0.06246   0.19298   0.83370   0.00000  Uiso   1.00
C1026  C     0.43754   0.30702   0.83296   0.00000  Uiso   1.00
C1027  C     0.43754   0.19298   0.83296   0.00000  Uiso   1.00
C1028  C     0.06246   0.30702   0.83370   0.00000  Uiso   1.00
C1029  C     0.31246   0.44298   0.83370   0.00000  Uiso   1.00
C1030  C     0.18754   0.05702   0.83296   0.00000  Uiso   1.00
C1031  C     0.18754   0.44298   0.83296   0.00000  Uiso   1.00
C1032  C     0.31246   0.05702   0.83370   0.00000  Uiso   1.00
C1033  C     0.00141   0.29008   0.69053   0.00000  Uiso   1.00
C1034  C     0.49859   0.20992   0.97614   0.00000  Uiso   1.00
C1035  C     0.00141   0.20992   0.69053   0.00000  Uiso   1.00
C1036  C     0.49859   0.29008   0.97614   0.00000  Uiso   1.00
C1037  C     0.25141   0.04008   0.69053   0.00000  Uiso   1.00
C1038  C     0.24859   0.45992   0.97614   0.00000  Uiso   1.00
C1039  C     0.25141   0.45992   0.69053   0.00000  Uiso   1.00
C1040  C     0.24859   0.04008   0.97614   0.00000  Uiso   1.00
C1041  C     0.38907   0.14110   0.79177   0.00000  Uiso   1.00
C1042  C     0.11094   0.35891   0.87489   0.00000  Uiso   1.00
C1043  C     0.11630   0.35106   0.79351   0.00000  Uiso   1.00
C1044  C     0.38370   0.14894   0.87316   0.00000  Uiso   1.00
C1045  C     0.11093   0.14109   0.87489   0.00000  Uiso   1.00
C1046  C     0.38907   0.35891   0.79177   0.00000  Uiso   1.00
C1047  C     0.38370   0.35106   0.87316   0.00000  Uiso   1.00
C1048  C     0.11630   0.14894   0.79351   0.00000  Uiso   1.00
C1049  C     0.13907   0.39110   0.79177   0.00000  Uiso   1.00
C1050  C     0.36094   0.10891   0.87489   0.00000  Uiso   1.00
C1051  C     0.36630   0.10106   0.79351   0.00000  Uiso   1.00
C1052  C     0.13370   0.39894   0.87316   0.00000  Uiso   1.00
C1053  C     0.36093   0.39109   0.87489   0.00000  Uiso   1.00
C1054  C     0.13907   0.10891   0.79177   0.00000  Uiso   1.00
C1055  C     0.13370   0.10106   0.87316   0.00000  Uiso   1.00
C1056  C     0.36630   0.39894   0.79351   0.00000  Uiso   1.00
C1057  C     0.09859   0.33750   0.83442   0.00000  Uiso   1.00
C1058  C     0.40141   0.16250   0.83224   0.00000  Uiso   1.00
C1059  C     0.40141   0.33750   0.83224   0.00000  Uiso   1.00
C1060  C     0.09859   0.16250   0.83442   0.00000  Uiso   1.00
C1061  C     0.34859   0.08750   0.83442   0.00000  Uiso   1.00
C1062  C     0.15141   0.41250   0.83224   0.00000  Uiso   1.00
C1063  C     0.15141   0.08750   0.83224   0.00000  Uiso   1.00
C1064  C     0.34859   0.41250   0.83442   0.00000  Uiso   1.00
N1065  N     0.00000   0.25000   0.95240   0.00000  Uiso   1.00
N1066  N     0.00000   0.25000   0.71427   0.00000  Uiso   1.00
N1067  N     0.25000   0.00000   0.95240   0.00000  Uiso   1.00
N1068  N     0.25000   0.00000   0.71427   0.00000  Uiso   1.00
O1069  O     0.04581   0.20419   0.87154   0.00000  Uiso   1.00
O1070  O     0.45420   0.29581   0.79513   0.00000  Uiso   1.00
O1071  O     0.45420   0.29581   0.87154   0.00000  Uiso   1.00
O1072  O     0.04581   0.20419   0.79513   0.00000  Uiso   1.00
O1073  O     0.45420   0.20419   0.79513   0.00000  Uiso   1.00
O1074  O     0.04581   0.29581   0.87154   0.00000  Uiso   1.00
O1075  O     0.04581   0.29581   0.79513   0.00000  Uiso   1.00
O1076  O     0.45420   0.20419   0.87154   0.00000  Uiso   1.00
O1077  O     0.29581   0.45419   0.87154   0.00000  Uiso   1.00
O1078  O     0.20420   0.04581   0.79513   0.00000  Uiso   1.00
O1079  O     0.20420   0.04581   0.87154   0.00000  Uiso   1.00
O1080  O     0.29581   0.45419   0.79513   0.00000  Uiso   1.00
O1081  O     0.20420   0.45419   0.79513   0.00000  Uiso   1.00
O1082  O     0.29581   0.04581   0.87154   0.00000  Uiso   1.00
O1083  O     0.29581   0.04581   0.79513   0.00000  Uiso   1.00
O1084  O     0.20420   0.45419   0.87154   0.00000  Uiso   1.00
Zn1085 Zn    0.00000   0.25000   0.88437   0.00000  Uiso   1.00
Zn1086 Zn    0.00000   0.25000   0.78229   0.00000  Uiso   1.00
Zn1087 Zn    0.25000   0.00000   0.88437   0.00000  Uiso   1.00
Zn1088 Zn    0.25000   0.00000   0.78229   0.00000  Uiso   1.00
C1089  C     0.01192   0.33399   0.71283   0.00000  Uiso   1.00
O1090  O     0.49170   0.34788   0.74435   0.00000  Uiso   1.00
O1091  O     0.04369   0.36143   0.69500   0.00000  Uiso   1.00
H1092  H     0.04761   0.39095   0.71205   0.00000  Uiso   1.00
C1093  C     0.48808   0.16601   0.95384   0.00000  Uiso   1.00
O1094  O     0.00830   0.15212   0.92232   0.00000  Uiso   1.00
O1095  O     0.45631   0.13857   0.97167   0.00000  Uiso   1.00
H1096  H     0.45239   0.10905   0.95462   0.00000  Uiso   1.00
C1097  C     0.01192   0.16601   0.71283   0.00000  Uiso   1.00
O1098  O     0.49170   0.15212   0.74435   0.00000  Uiso   1.00
O1099  O     0.04369   0.13857   0.69500   0.00000  Uiso   1.00
H1100  H     0.04761   0.10905   0.71205   0.00000  Uiso   1.00
C1101  C     0.48808   0.33399   0.95384   0.00000  Uiso   1.00
O1102  O     0.00830   0.34788   0.92232   0.00000  Uiso   1.00
O1103  O     0.45631   0.36143   0.97167   0.00000  Uiso   1.00
H1104  H     0.45239   0.39095   0.95462   0.00000  Uiso   1.00
C1105  C     0.26192   0.08399   0.71283   0.00000  Uiso   1.00
O1106  O     0.24170   0.09788   0.74435   0.00000  Uiso   1.00
O1107  O     0.29369   0.11143   0.69499   0.00000  Uiso   1.00
H1108  H     0.29761   0.14095   0.71205   0.00000  Uiso   1.00
C1109  C     0.23808   0.41601   0.95384   0.00000  Uiso   1.00
O1110  O     0.25830   0.40212   0.92232   0.00000  Uiso   1.00
O1111  O     0.20631   0.38857   0.97167   0.00000  Uiso   1.00
H1112  H     0.20239   0.35905   0.95462   0.00000  Uiso   1.00
C1113  C     0.26192   0.41601   0.71283   0.00000  Uiso   1.00
O1114  O     0.24170   0.40212   0.74435   0.00000  Uiso   1.00
O1115  O     0.29369   0.38857   0.69500   0.00000  Uiso   1.00
H1116  H     0.29761   0.35905   0.71205   0.00000  Uiso   1.00
C1117  C     0.23808   0.08399   0.95384   0.00000  Uiso   1.00
O1118  O     0.25830   0.09788   0.92232   0.00000  Uiso   1.00
O1119  O     0.20631   0.11143   0.97167   0.00000  Uiso   1.00
H1120  H     0.20239   0.14095   0.95462   0.00000  Uiso   1.00
C1121  C     0.39583   0.16162   0.74816   0.00000  Uiso   1.00
N1122  N     0.40074   0.17805   0.71341   0.00000  Uiso   1.00
C1123  C     0.10417   0.33838   0.91850   0.00000  Uiso   1.00
N1124  N     0.09926   0.32195   0.95326   0.00000  Uiso   1.00
C1125  C     0.11488   0.32236   0.75392   0.00000  Uiso   1.00
N1126  N     0.11421   0.29967   0.72227   0.00000  Uiso   1.00
C1127  C     0.38512   0.17764   0.91275   0.00000  Uiso   1.00
N1128  N     0.38579   0.20033   0.94439   0.00000  Uiso   1.00
C1129  C     0.10416   0.16162   0.91850   0.00000  Uiso   1.00
N1130  N     0.09926   0.17805   0.95326   0.00000  Uiso   1.00
C1131  C     0.39584   0.33838   0.74816   0.00000  Uiso   1.00
N1132  N     0.40074   0.32195   0.71341   0.00000  Uiso   1.00
C1133  C     0.38512   0.32236   0.91275   0.00000  Uiso   1.00
N1134  N     0.38579   0.29967   0.94439   0.00000  Uiso   1.00
C1135  C     0.11488   0.17764   0.75392   0.00000  Uiso   1.00
N1136  N     0.11421   0.20033   0.72227   0.00000  Uiso   1.00
C1137  C     0.14583   0.41162   0.74816   0.00000  Uiso   1.00
N1138  N     0.15074   0.42805   0.71341   0.00000  Uiso   1.00
C1139  C     0.35417   0.08838   0.91850   0.00000  Uiso   1.00
N1140  N     0.34926   0.07195   0.95326   0.00000  Uiso   1.00
C1141  C     0.36488   0.07236   0.75392   0.00000  Uiso   1.00
N1142  N     0.36421   0.04967   0.72227   0.00000  Uiso   1.00
C1143  C     0.13512   0.42764   0.91275   0.00000  Uiso   1.00
N1144  N     0.13579   0.45033   0.94439   0.00000  Uiso   1.00
C1145  C     0.35416   0.41162   0.91850   0.00000  Uiso   1.00
N1146  N     0.34926   0.42805   0.95326   0.00000  Uiso   1.00
C1147  C     0.14584   0.08838   0.74816   0.00000  Uiso   1.00
N1148  N     0.15074   0.07195   0.71341   0.00000  Uiso   1.00
C1149  C     0.13512   0.07236   0.91275   0.00000  Uiso   1.00
N1150  N     0.13579   0.04967   0.94439   0.00000  Uiso   1.00
C1151  C     0.36488   0.42764   0.75392   0.00000  Uiso   1.00
N1152  N     0.36421   0.45033   0.72227   0.00000  Uiso   1.00
C1153  C     0.56246   0.19298   0.83370   0.00000  Uiso   1.00
C1154  C     0.93754   0.30702   0.83296   0.00000  Uiso   1.00
C1155  C     0.93754   0.19298   0.83296   0.00000  Uiso   1.00
C1156  C     0.56246   0.30702   0.83370   0.00000  Uiso   1.00
C1157  C     0.81246   0.44298   0.83370   0.00000  Uiso   1.00
C1158  C     0.68754   0.05702   0.83296   0.00000  Uiso   1.00
C1159  C     0.68754   0.44298   0.83296   0.00000  Uiso   1.00
C1160  C     0.81246   0.05702   0.83370   0.00000  Uiso   1.00
C1161  C     0.50141   0.29008   0.69053   0.00000  Uiso   1.00
C1162  C     0.99859   0.20992   0.97614   0.00000  Uiso   1.00
C1163  C     0.50141   0.20992   0.69053   0.00000  Uiso   1.00
C1164  C     0.99859   0.29008   0.97614   0.00000  Uiso   1.00
C1165  C     0.75141   0.04008   0.69053   0.00000  Uiso   1.00
C1166  C     0.74859   0.45992   0.97614   0.00000  Uiso   1.00
C1167  C     0.75141   0.45992   0.69053   0.00000  Uiso   1.00
C1168  C     0.74859   0.04008   0.97614   0.00000  Uiso   1.00
C1169  C     0.88907   0.14110   0.79177   0.00000  Uiso   1.00
C1170  C     0.61094   0.35891   0.87489   0.00000  Uiso   1.00
C1171  C     0.61630   0.35106   0.79351   0.00000  Uiso   1.00
C1172  C     0.88370   0.14894   0.87316   0.00000  Uiso   1.00
C1173  C     0.61093   0.14109   0.87489   0.00000  Uiso   1.00
C1174  C     0.88907   0.35891   0.79177   0.00000  Uiso   1.00
C1175  C     0.88370   0.35106   0.87316   0.00000  Uiso   1.00
C1176  C     0.61630   0.14894   0.79351   0.00000  Uiso   1.00
C1177  C     0.63907   0.39110   0.79177   0.00000  Uiso   1.00
C1178  C     0.86094   0.10891   0.87489   0.00000  Uiso   1.00
C1179  C     0.86630   0.10106   0.79351   0.00000  Uiso   1.00
C1180  C     0.63370   0.39894   0.87316   0.00000  Uiso   1.00
C1181  C     0.86093   0.39109   0.87489   0.00000  Uiso   1.00
C1182  C     0.63907   0.10891   0.79177   0.00000  Uiso   1.00
C1183  C     0.63370   0.10106   0.87316   0.00000  Uiso   1.00
C1184  C     0.86630   0.39894   0.79351   0.00000  Uiso   1.00
C1185  C     0.59859   0.33750   0.83442   0.00000  Uiso   1.00
C1186  C     0.90141   0.16250   0.83224   0.00000  Uiso   1.00
C1187  C     0.90141   0.33750   0.83224   0.00000  Uiso   1.00
C1188  C     0.59859   0.16250   0.83442   0.00000  Uiso   1.00
C1189  C     0.84859   0.08750   0.83442   0.00000  Uiso   1.00
C1190  C     0.65141   0.41250   0.83224   0.00000  Uiso   1.00
C1191  C     0.65141   0.08750   0.83224   0.00000  Uiso   1.00
C1192  C     0.84859   0.41250   0.83442   0.00000  Uiso   1.00
N1193  N     0.50000   0.25000   0.95240   0.00000  Uiso   1.00
N1194  N     0.50000   0.25000   0.71427   0.00000  Uiso   1.00
N1195  N     0.75000   0.00000   0.95240   0.00000  Uiso   1.00
N1196  N     0.75000   0.00000   0.71427   0.00000  Uiso   1.00
O1197  O     0.54581   0.20419   0.87154   0.00000  Uiso   1.00
O1198  O     0.95420   0.29581   0.79513   0.00000  Uiso   1.00
O1199  O     0.95420   0.29581   0.87154   0.00000  Uiso   1.00
O1200  O     0.54581   0.20419   0.79513   0.00000  Uiso   1.00
O1201  O     0.95420   0.20419   0.79513   0.00000  Uiso   1.00
O1202  O     0.54581   0.29581   0.87154   0.00000  Uiso   1.00
O1203  O     0.54581   0.29581   0.79513   0.00000  Uiso   1.00
O1204  O     0.95420   0.20419   0.87154   0.00000  Uiso   1.00
O1205  O     0.79581   0.45419   0.87154   0.00000  Uiso   1.00
O1206  O     0.70420   0.04581   0.79513   0.00000  Uiso   1.00
O1207  O     0.70420   0.04581   0.87154   0.00000  Uiso   1.00
O1208  O     0.79581   0.45419   0.79513   0.00000  Uiso   1.00
O1209  O     0.70420   0.45419   0.79513   0.00000  Uiso   1.00
O1210  O     0.79581   0.04581   0.87154   0.00000  Uiso   1.00
O1211  O     0.79581   0.04581   0.79513   0.00000  Uiso   1.00
O1212  O     0.70420   0.45419   0.87154   0.00000  Uiso   1.00
Zn1213 Zn    0.50000   0.25000   0.88437   0.00000  Uiso   1.00
Zn1214 Zn    0.50000   0.25000   0.78229   0.00000  Uiso   1.00
Zn1215 Zn    0.75000   0.00000   0.88437   0.00000  Uiso   1.00
Zn1216 Zn    0.75000   0.00000   0.78229   0.00000  Uiso   1.00
C1217  C     0.51192   0.33399   0.71283   0.00000  Uiso   1.00
O1218  O     0.99170   0.34788   0.74435   0.00000  Uiso   1.00
O1219  O     0.54369   0.36143   0.69500   0.00000  Uiso   1.00
H1220  H     0.54761   0.39095   0.71205   0.00000  Uiso   1.00
C1221  C     0.98808   0.16601   0.95384   0.00000  Uiso   1.00
O1222  O     0.50830   0.15212   0.92232   0.00000  Uiso   1.00
O1223  O     0.95631   0.13857   0.97167   0.00000  Uiso   1.00
H1224  H     0.95239   0.10905   0.95462   0.00000  Uiso   1.00
C1225  C     0.51192   0.16601   0.71283   0.00000  Uiso   1.00
O1226  O     0.99170   0.15212   0.74435   0.00000  Uiso   1.00
O1227  O     0.54369   0.13857   0.69500   0.00000  Uiso   1.00
H1228  H     0.54761   0.10905   0.71205   0.00000  Uiso   1.00
C1229  C     0.98808   0.33399   0.95384   0.00000  Uiso   1.00
O1230  O     0.50830   0.34788   0.92232   0.00000  Uiso   1.00
O1231  O     0.95631   0.36143   0.97167   0.00000  Uiso   1.00
H1232  H     0.95239   0.39095   0.95462   0.00000  Uiso   1.00
C1233  C     0.76192   0.08399   0.71283   0.00000  Uiso   1.00
O1234  O     0.74170   0.09788   0.74435   0.00000  Uiso   1.00
O1235  O     0.79369   0.11143   0.69499   0.00000  Uiso   1.00
H1236  H     0.79761   0.14095   0.71205   0.00000  Uiso   1.00
C1237  C     0.73808   0.41601   0.95384   0.00000  Uiso   1.00
O1238  O     0.75830   0.40212   0.92232   0.00000  Uiso   1.00
O1239  O     0.70631   0.38857   0.97167   0.00000  Uiso   1.00
H1240  H     0.70239   0.35905   0.95462   0.00000  Uiso   1.00
C1241  C     0.76192   0.41601   0.71283   0.00000  Uiso   1.00
O1242  O     0.74170   0.40212   0.74435   0.00000  Uiso   1.00
O1243  O     0.79369   0.38857   0.69500   0.00000  Uiso   1.00
H1244  H     0.79761   0.35905   0.71205   0.00000  Uiso   1.00
C1245  C     0.73808   0.08399   0.95384   0.00000  Uiso   1.00
O1246  O     0.75830   0.09788   0.92232   0.00000  Uiso   1.00
O1247  O     0.70631   0.11143   0.97167   0.00000  Uiso   1.00
H1248  H     0.70239   0.14095   0.95462   0.00000  Uiso   1.00
C1249  C     0.89583   0.16162   0.74816   0.00000  Uiso   1.00
N1250  N     0.90074   0.17805   0.71341   0.00000  Uiso   1.00
C1251  C     0.60417   0.33838   0.91850   0.00000  Uiso   1.00
N1252  N     0.59926   0.32195   0.95326   0.00000  Uiso   1.00
C1253  C     0.61488   0.32236   0.75392   0.00000  Uiso   1.00
N1254  N     0.61421   0.29967   0.72227   0.00000  Uiso   1.00
C1255  C     0.88512   0.17764   0.91275   0.00000  Uiso   1.00
N1256  N     0.88579   0.20033   0.94439   0.00000  Uiso   1.00
C1257  C     0.60416   0.16162   0.91850   0.00000  Uiso   1.00
N1258  N     0.59926   0.17805   0.95326   0.00000  Uiso   1.00
C1259  C     0.89584   0.33838   0.74816   0.00000  Uiso   1.00
N1260  N     0.90074   0.32195   0.71341   0.00000  Uiso   1.00
C1261  C     0.88512   0.32236   0.91275   0.00000  Uiso   1.00
N1262  N     0.88579   0.29967   0.94439   0.00000  Uiso   1.00
C1263  C     0.61488   0.17764   0.75392   0.00000  Uiso   1.00
N1264  N     0.61421   0.20033   0.72227   0.00000  Uiso   1.00
C1265  C     0.64583   0.41162   0.74816   0.00000  Uiso   1.00
N1266  N     0.65074   0.42805   0.71341   0.00000  Uiso   1.00
C1267  C     0.85417   0.08838   0.91850   0.00000  Uiso   1.00
N1268  N     0.84926   0.07195   0.95326   0.00000  Uiso   1.00
C1269  C     0.86488   0.07236   0.75392   0.00000  Uiso   1.00
N1270  N     0.86421   0.04967   0.72227   0.00000  Uiso   1.00
C1271  C     0.63512   0.42764   0.91275   0.00000  Uiso   1.00
N1272  N     0.63579   0.45033   0.94439   0.00000  Uiso   1.00
C1273  C     0.85416   0.41162   0.91850   0.00000  Uiso   1.00
N1274  N     0.84926   0.42805   0.95326   0.00000  Uiso   1.00
C1275  C     0.64584   0.08838   0.74816   0.00000  Uiso   1.00
N1276  N     0.65074   0.07195   0.71341   0.00000  Uiso   1.00
C1277  C     0.63512   0.07236   0.91275   0.00000  Uiso   1.00
N1278  N     0.63579   0.04967   0.94439   0.00000  Uiso   1.00
C1279  C     0.86488   0.42764   0.75392   0.00000  Uiso   1.00
N1280  N     0.86421   0.45033   0.72227   0.00000  Uiso   1.00
C1281  C     0.06246   0.69298   0.83370   0.00000  Uiso   1.00
C1282  C     0.43754   0.80702   0.83296   0.00000  Uiso   1.00
C1283  C     0.43754   0.69298   0.83296   0.00000  Uiso   1.00
C1284  C     0.06246   0.80702   0.83370   0.00000  Uiso   1.00
C1285  C     0.31246   0.94298   0.83370   0.00000  Uiso   1.00
C1286  C     0.18754   0.55702   0.83296   0.00000  Uiso   1.00
C1287  C     0.18754   0.94298   0.83296   0.00000  Uiso   1.00
C1288  C     0.31246   0.55702   0.83370   0.00000  Uiso   1.00
C1289  C     0.00141   0.79008   0.69053   0.00000  Uiso   1.00
C1290  C     0.49859   0.70992   0.97614   0.00000  Uiso   1.00
C1291  C     0.00141   0.70992   0.69053   0.00000  Uiso   1.00
C1292  C     0.49859   0.79008   0.97614   0.00000  Uiso   1.00
C1293  C     0.25141   0.54008   0.69053   0.00000  Uiso   1.00
C1294  C     0.24859   0.95992   0.97614   0.00000  Uiso   1.00
C1295  C     0.25141   0.95992   0.69053   0.00000  Uiso   1.00
C1296  C     0.24859   0.54008   0.97614   0.00000  Uiso   1.00
C1297  C     0.38907   0.64110   0.79177   0.00000  Uiso   1.00
C1298  C     0.11094   0.85891   0.87489   0.00000  Uiso   1.00
C1299  C     0.11630   0.85106   0.79351   0.00000  Uiso   1.00
C1300  C     0.38370   0.64894   0.87316   0.00000  Uiso   1.00
C1301  C     0.11093   0.64109   0.87489   0.00000  Uiso   1.00
C1302  C     0.38907   0.85891   0.79177   0.00000  Uiso   1.00
C1303  C     0.38370   0.85106   0.87316   0.00000  Uiso   1.00
C1304  C     0.11630   0.64894   0.79351   0.00000  Uiso   1.00
C1305  C     0.13907   0.89110   0.79177   0.00000  Uiso   1.00
C1306  C     0.36094   0.60891   0.87489   0.00000  Uiso   1.00
C1307  C     0.36630   0.60106   0.79351   0.00000  Uiso   1.00
C1308  C     0.13370   0.89894   0.87316   0.00000  Uiso   1.00
C1309  C     0.36093   0.89109   0.87489   0.00000  Uiso   1.00
C1310  C     0.13907   0.60891   0.79177   0.00000  Uiso   1.00
C1311  C     0.13370   0.60106   0.87316   0.00000  Uiso   1.00
C1312  C     0.36630   0.89894   0.79351   0.00000  Uiso   1.00
C1313  C     0.09859   0.83750   0.83442   0.00000  Uiso   1.00
C1314  C     0.40141   0.66250   0.83224   0.00000  Uiso   1.00
C1315  C     0.40141   0.83750   0.83224   0.00000  Uiso   1.00
C1316  C     0.09859   0.66250   0.83442   0.00000  Uiso   1.00
C1317  C     0.34859   0.58750   0.83442   0.00000  Uiso   1.00
C1318  C     0.15141   0.91250   0.83224   0.00000  Uiso   1.00
C1319  C     0.15141   0.58750   0.83224   0.00000  Uiso   1.00
C1320  C     0.34859   0.91250   0.83442   0.00000  Uiso   1.00
N1321  N     0.00000   0.75000   0.95240   0.00000  Uiso   1.00
N1322  N     0.00000   0.75000   0.71427   0.00000  Uiso   1.00
N1323  N     0.25000   0.50000   0.95240   0.00000  Uiso   1.00
N1324  N     0.25000   0.50000   0.71427   0.00000  Uiso   1.00
O1325  O     0.04581   0.70419   0.87154   0.00000  Uiso   1.00
O1326  O     0.45420   0.79581   0.79513   0.00000  Uiso   1.00
O1327  O     0.45420   0.79581   0.87154   0.00000  Uiso   1.00
O1328  O     0.04581   0.70419   0.79513   0.00000  Uiso   1.00
O1329  O     0.45420   0.70419   0.79513   0.00000  Uiso   1.00
O1330  O     0.04581   0.79581   0.87154   0.00000  Uiso   1.00
O1331  O     0.04581   0.79581   0.79513   0.00000  Uiso   1.00
O1332  O     0.45420   0.70419   0.87154   0.00000  Uiso   1.00
O1333  O     0.29581   0.95419   0.87154   0.00000  Uiso   1.00
O1334  O     0.20420   0.54581   0.79513   0.00000  Uiso   1.00
O1335  O     0.20420   0.54581   0.87154   0.00000  Uiso   1.00
O1336  O     0.29581   0.95419   0.79513   0.00000  Uiso   1.00
O1337  O     0.20420   0.95419   0.79513   0.00000  Uiso   1.00
O1338  O     0.29581   0.54581   0.87154   0.00000  Uiso   1.00
O1339  O     0.29581   0.54581   0.79513   0.00000  Uiso   1.00
O1340  O     0.20420   0.95419   0.87154   0.00000  Uiso   1.00
Zn1341 Zn    0.00000   0.75000   0.88437   0.00000  Uiso   1.00
Zn1342 Zn    0.00000   0.75000   0.78229   0.00000  Uiso   1.00
Zn1343 Zn    0.25000   0.50000   0.88437   0.00000  Uiso   1.00
Zn1344 Zn    0.25000   0.50000   0.78229   0.00000  Uiso   1.00
C1345  C     0.01192   0.83399   0.71283   0.00000  Uiso   1.00
O1346  O     0.49170   0.84788   0.74435   0.00000  Uiso   1.00
O1347  O     0.04369   0.86143   0.69500   0.00000  Uiso   1.00
H1348  H     0.04761   0.89095   0.71205   0.00000  Uiso   1.00
C1349  C     0.48808   0.66601   0.95384   0.00000  Uiso   1.00
O1350  O     0.00830   0.65212   0.92232   0.00000  Uiso   1.00
O1351  O     0.45631   0.63857   0.97167   0.00000  Uiso   1.00
H1352  H     0.45239   0.60905   0.95462   0.00000  Uiso   1.00
C1353  C     0.01192   0.66601   0.71283   0.00000  Uiso   1.00
O1354  O     0.49170   0.65212   0.74435   0.00000  Uiso   1.00
O1355  O     0.04369   0.63857   0.69500   0.00000  Uiso   1.00
H1356  H     0.04761   0.60905   0.71205   0.00000  Uiso   1.00
C1357  C     0.48808   0.83399   0.95384   0.00000  Uiso   1.00
O1358  O     0.00830   0.84788   0.92232   0.00000  Uiso   1.00
O1359  O     0.45631   0.86143   0.97167   0.00000  Uiso   1.00
H1360  H     0.45239   0.89095   0.95462   0.00000  Uiso   1.00
C1361  C     0.26192   0.58399   0.71283   0.00000  Uiso   1.00
O1362  O     0.24170   0.59788   0.74435   0.00000  Uiso   1.00
O1363  O     0.29369   0.61143   0.69499   0.00000  Uiso   1.00
H1364  H     0.29761   0.64095   0.71205   0.00000  Uiso   1.00
C1365  C     0.23808   0.91601   0.95384   0.00000  Uiso   1.00
O1366  O     0.25830   0.90212   0.92232   0.00000  Uiso   1.00
O1367  O     0.20631   0.88857   0.97167   0.00000  Uiso   1.00
H1368  H     0.20239   0.85905   0.95462   0.00000  Uiso   1.00
C1369  C     0.26192   0.91601   0.71283   0.00000  Uiso   1.00
O1370  O     0.24170   0.90212   0.74435   0.00000  Uiso   1.00
O1371  O     0.29369   0.88857   0.69500   0.00000  Uiso   1.00
H1372  H     0.29761   0.85905   0.71205   0.00000  Uiso   1.00
C1373  C     0.23808   0.58399   0.95384   0.00000  Uiso   1.00
O1374  O     0.25830   0.59788   0.92232   0.00000  Uiso   1.00
O1375  O     0.20631   0.61143   0.97167   0.00000  Uiso   1.00
H1376  H     0.20239   0.64095   0.95462   0.00000  Uiso   1.00
C1377  C     0.39583   0.66162   0.74816   0.00000  Uiso   1.00
N1378  N     0.40074   0.67805   0.71341   0.00000  Uiso   1.00
C1379  C     0.10417   0.83838   0.91850   0.00000  Uiso   1.00
N1380  N     0.09926   0.82195   0.95326   0.00000  Uiso   1.00
C1381  C     0.11488   0.82236   0.75392   0.00000  Uiso   1.00
N1382  N     0.11421   0.79967   0.72227   0.00000  Uiso   1.00
C1383  C     0.38512   0.67764   0.91275   0.00000  Uiso   1.00
N1384  N     0.38579   0.70033   0.94439   0.00000  Uiso   1.00
C1385  C     0.10416   0.66162   0.91850   0.00000  Uiso   1.00
N1386  N     0.09926   0.67805   0.95326   0.00000  Uiso   1.00
C1387  C     0.39584   0.83838   0.74816   0.00000  Uiso   1.00
N1388  N     0.40074   0.82195   0.71341   0.00000  Uiso   1.00
C1389  C     0.38512   0.82236   0.91275   0.00000  Uiso   1.00
N1390  N     0.38579   0.79967   0.94439   0.00000  Uiso   1.00
C1391  C     0.11488   0.67764   0.75392   0.00000  Uiso   1.00
N1392  N     0.11421   0.70033   0.72227   0.00000  Uiso   1.00
C1393  C     0.14583   0.91162   0.74816   0.00000  Uiso   1.00
N1394  N     0.15074   0.92805   0.71341   0.00000  Uiso   1.00
C1395  C     0.35417   0.58838   0.91850   0.00000  Uiso   1.00
N1396  N     0.34926   0.57195   0.95326   0.00000  Uiso   1.00
C1397  C     0.36488   0.57236   0.75392   0.00000  Uiso   1.00
N1398  N     0.36421   0.54967   0.72227   0.00000  Uiso   1.00
C1399  C     0.13512   0.92764   0.91275   0.00000  Uiso   1.00
N1400  N     0.13579   0.95033   0.94439   0.00000  Uiso   1.00
C1401  C     0.35416   0.91162   0.91850   0.00000  Uiso   1.00
N1402  N     0.34926   0.92805   0.95326   0.00000  Uiso   1.00
C1403  C     0.14584   0.58838   0.74816   0.00000  Uiso   1.00
N1404  N     0.15074   0.57195   0.71341   0.00000  Uiso   1.00
C1405  C     0.13512   0.57236   0.91275   0.00000  Uiso   1.00
N1406  N     0.13579   0.54967   0.94439   0.00000  Uiso   1.00
C1407  C     0.36488   0.92764   0.75392   0.00000  Uiso   1.00
N1408  N     0.36421   0.95033   0.72227   0.00000  Uiso   1.00
C1409  C     0.56246   0.69298   0.83370   0.00000  Uiso   1.00
C1410  C     0.93754   0.80702   0.83296   0.00000  Uiso   1.00
C1411  C     0.93754   0.69298   0.83296   0.00000  Uiso   1.00
C1412  C     0.56246   0.80702   0.83370   0.00000  Uiso   1.00
C1413  C     0.81246   0.94298   0.83370   0.00000  Uiso   1.00
C1414  C     0.68754   0.55702   0.83296   0.00000  Uiso   1.00
C1415  C     0.68754   0.94298   0.83296   0.00000  Uiso   1.00
C1416  C     0.81246   0.55702   0.83370   0.00000  Uiso   1.00
C1417  C     0.50141   0.79008   0.69053   0.00000  Uiso   1.00
C1418  C     0.99859   0.70992   0.97614   0.00000  Uiso   1.00
C1419  C     0.50141   0.70992   0.69053   0.00000  Uiso   1.00
C1420  C     0.99859   0.79008   0.97614   0.00000  Uiso   1.00
C1421  C     0.75141   0.54008   0.69053   0.00000  Uiso   1.00
C1422  C     0.74859   0.95992   0.97614   0.00000  Uiso   1.00
C1423  C     0.75141   0.95992   0.69053   0.00000  Uiso   1.00
C1424  C     0.74859   0.54008   0.97614   0.00000  Uiso   1.00
C1425  C     0.88907   0.64110   0.79177   0.00000  Uiso   1.00
C1426  C     0.61094   0.85891   0.87489   0.00000  Uiso   1.00
C1427  C     0.61630   0.85106   0.79351   0.00000  Uiso   1.00
C1428  C     0.88370   0.64894   0.87316   0.00000  Uiso   1.00
C1429  C     0.61093   0.64109   0.87489   0.00000  Uiso   1.00
C1430  C     0.88907   0.85891   0.79177   0.00000  Uiso   1.00
C1431  C     0.88370   0.85106   0.87316   0.00000  Uiso   1.00
C1432  C     0.61630   0.64894   0.79351   0.00000  Uiso   1.00
C1433  C     0.63907   0.89110   0.79177   0.00000  Uiso   1.00
C1434  C     0.86094   0.60891   0.87489   0.00000  Uiso   1.00
C1435  C     0.86630   0.60106   0.79351   0.00000  Uiso   1.00
C1436  C     0.63370   0.89894   0.87316   0.00000  Uiso   1.00
C1437  C     0.86093   0.89109   0.87489   0.00000  Uiso   1.00
C1438  C     0.63907   0.60891   0.79177   0.00000  Uiso   1.00
C1439  C     0.63370   0.60106   0.87316   0.00000  Uiso   1.00
C1440  C     0.86630   0.89894   0.79351   0.00000  Uiso   1.00
C1441  C     0.59859   0.83750   0.83442   0.00000  Uiso   1.00
C1442  C     0.90141   0.66250   0.83224   0.00000  Uiso   1.00
C1443  C     0.90141   0.83750   0.83224   0.00000  Uiso   1.00
C1444  C     0.59859   0.66250   0.83442   0.00000  Uiso   1.00
C1445  C     0.84859   0.58750   0.83442   0.00000  Uiso   1.00
C1446  C     0.65141   0.91250   0.83224   0.00000  Uiso   1.00
C1447  C     0.65141   0.58750   0.83224   0.00000  Uiso   1.00
C1448  C     0.84859   0.91250   0.83442   0.00000  Uiso   1.00
N1449  N     0.50000   0.75000   0.95240   0.00000  Uiso   1.00
N1450  N     0.50000   0.75000   0.71427   0.00000  Uiso   1.00
N1451  N     0.75000   0.50000   0.95240   0.00000  Uiso   1.00
N1452  N     0.75000   0.50000   0.71427   0.00000  Uiso   1.00
O1453  O     0.54581   0.70419   0.87154   0.00000  Uiso   1.00
O1454  O     0.95420   0.79581   0.79513   0.00000  Uiso   1.00
O1455  O     0.95420   0.79581   0.87154   0.00000  Uiso   1.00
O1456  O     0.54581   0.70419   0.79513   0.00000  Uiso   1.00
O1457  O     0.95420   0.70419   0.79513   0.00000  Uiso   1.00
O1458  O     0.54581   0.79581   0.87154   0.00000  Uiso   1.00
O1459  O     0.54581   0.79581   0.79513   0.00000  Uiso   1.00
O1460  O     0.95420   0.70419   0.87154   0.00000  Uiso   1.00
O1461  O     0.79581   0.95419   0.87154   0.00000  Uiso   1.00
O1462  O     0.70420   0.54581   0.79513   0.00000  Uiso   1.00
O1463  O     0.70420   0.54581   0.87154   0.00000  Uiso   1.00
O1464  O     0.79581   0.95419   0.79513   0.00000  Uiso   1.00
O1465  O     0.70420   0.95419   0.79513   0.00000  Uiso   1.00
O1466  O     0.79581   0.54581   0.87154   0.00000  Uiso   1.00
O1467  O     0.79581   0.54581   0.79513   0.00000  Uiso   1.00
O1468  O     0.70420   0.95419   0.87154   0.00000  Uiso   1.00
Zn1469 Zn    0.50000   0.75000   0.88437   0.00000  Uiso   1.00
Zn1470 Zn    0.50000   0.75000   0.78229   0.00000  Uiso   1.00
Zn1471 Zn    0.75000   0.50000   0.88437   0.00000  Uiso   1.00
Zn1472 Zn    0.75000   0.50000   0.78229   0.00000  Uiso   1.00
C1473  C     0.51192   0.83399   0.71283   0.00000  Uiso   1.00
O1474  O     0.99170   0.84788   0.74435   0.00000  Uiso   1.00
O1475  O     0.54369   0.86143   0.69500   0.00000  Uiso   1.00
H1476  H     0.54761   0.89095   0.71205   0.00000  Uiso   1.00
C1477  C     0.98808   0.66601   0.95384   0.00000  Uiso   1.00
O1478  O     0.50830   0.65212   0.92232   0.00000  Uiso   1.00
O1479  O     0.95631   0.63857   0.97167   0.00000  Uiso   1.00
H1480  H     0.95239   0.60905   0.95462   0.00000  Uiso   1.00
C1481  C     0.51192   0.66601   0.71283   0.00000  Uiso   1.00
O1482  O     0.99170   0.65212   0.74435   0.00000  Uiso   1.00
O1483  O     0.54369   0.63857   0.69500   0.00000  Uiso   1.00
H1484  H     0.54761   0.60905   0.71205   0.00000  Uiso   1.00
C1485  C     0.98808   0.83399   0.95384   0.00000  Uiso   1.00
O1486  O     0.50830   0.84788   0.92232   0.00000  Uiso   1.00
O1487  O     0.95631   0.86143   0.97167   0.00000  Uiso   1.00
H1488  H     0.95239   0.89095   0.95462   0.00000  Uiso   1.00
C1489  C     0.76192   0.58399   0.71283   0.00000  Uiso   1.00
O1490  O     0.74170   0.59788   0.74435   0.00000  Uiso   1.00
O1491  O     0.79369   0.61143   0.69499   0.00000  Uiso   1.00
H1492  H     0.79761   0.64095   0.71205   0.00000  Uiso   1.00
C1493  C     0.73808   0.91601   0.95384   0.00000  Uiso   1.00
O1494  O     0.75830   0.90212   0.92232   0.00000  Uiso   1.00
O1495  O     0.70631   0.88857   0.97167   0.00000  Uiso   1.00
H1496  H     0.70239   0.85905   0.95462   0.00000  Uiso   1.00
C1497  C     0.76192   0.91601   0.71283   0.00000  Uiso   1.00
O1498  O     0.74170   0.90212   0.74435   0.00000  Uiso   1.00
O1499  O     0.79369   0.88857   0.69500   0.00000  Uiso   1.00
H1500  H     0.79761   0.85905   0.71205   0.00000  Uiso   1.00
C1501  C     0.73808   0.58399   0.95384   0.00000  Uiso   1.00
O1502  O     0.75830   0.59788   0.92232   0.00000  Uiso   1.00
O1503  O     0.70631   0.61143   0.97167   0.00000  Uiso   1.00
H1504  H     0.70239   0.64095   0.95462   0.00000  Uiso   1.00
C1505  C     0.89583   0.66162   0.74816   0.00000  Uiso   1.00
N1506  N     0.90074   0.67805   0.71341   0.00000  Uiso   1.00
C1507  C     0.60417   0.83838   0.91850   0.00000  Uiso   1.00
N1508  N     0.59926   0.82195   0.95326   0.00000  Uiso   1.00
C1509  C     0.61488   0.82236   0.75392   0.00000  Uiso   1.00
N1510  N     0.61421   0.79967   0.72227   0.00000  Uiso   1.00
C1511  C     0.88512   0.67764   0.91275   0.00000  Uiso   1.00
N1512  N     0.88579   0.70033   0.94439   0.00000  Uiso   1.00
C1513  C     0.60416   0.66162   0.91850   0.00000  Uiso   1.00
N1514  N     0.59926   0.67805   0.95326   0.00000  Uiso   1.00
C1515  C     0.89584   0.83838   0.74816   0.00000  Uiso   1.00
N1516  N     0.90074   0.82195   0.71341   0.00000  Uiso   1.00
C1517  C     0.88512   0.82236   0.91275   0.00000  Uiso   1.00
N1518  N     0.88579   0.79967   0.94439   0.00000  Uiso   1.00
C1519  C     0.61488   0.67764   0.75392   0.00000  Uiso   1.00
N1520  N     0.61421   0.70033   0.72227   0.00000  Uiso   1.00
C1521  C     0.64583   0.91162   0.74816   0.00000  Uiso   1.00
N1522  N     0.65074   0.92805   0.71341   0.00000  Uiso   1.00
C1523  C     0.85417   0.58838   0.91850   0.00000  Uiso   1.00
N1524  N     0.84926   0.57195   0.95326   0.00000  Uiso   1.00
C1525  C     0.86488   0.57236   0.75392   0.00000  Uiso   1.00
N1526  N     0.86421   0.54967   0.72227   0.00000  Uiso   1.00
C1527  C     0.63512   0.92764   0.91275   0.00000  Uiso   1.00
N1528  N     0.63579   0.95033   0.94439   0.00000  Uiso   1.00
C1529  C     0.85416   0.91162   0.91850   0.00000  Uiso   1.00
N1530  N     0.84926   0.92805   0.95326   0.00000  Uiso   1.00
C1531  C     0.64584   0.58838   0.74816   0.00000  Uiso   1.00
N1532  N     0.65074   0.57195   0.71341   0.00000  Uiso   1.00
C1533  C     0.63512   0.57236   0.91275   0.00000  Uiso   1.00
N1534  N     0.63579   0.54967   0.94439   0.00000  Uiso   1.00
C1535  C     0.86488   0.92764   0.75392   0.00000  Uiso   1.00
N1536  N     0.86421   0.95033   0.72227   0.00000  Uiso   1.00
loop_
_geom_bond_atom_site_label_1
_geom_bond_atom_site_label_2
_geom_bond_distance
_geom_bond_site_symmetry_2
_ccdc_geom_bond_type
C1     O48     1.299   .     A
C1     O45     1.296   .     A
C1     C36     1.450   .     S
C2     C35     1.450   .     S
C2     O46     1.296   .     A
C2     O47     1.299   .     A
C3     O49     1.296   .     A
C3     C34     1.450   .     S
C3     O52     1.299   .     A
C4     O51     1.299   .     A
C4     O50     1.296   .     A
C4     C33     1.450   .     S
C5     O56     1.299   .     A
C5     O53     1.296   .     A
C5     C40     1.450   .     S
C6     O55     1.299   .     A
C6     O54     1.296   .     A
C6     C39     1.450   .     S
C7     O60     1.299   .     A
C7     C38     1.450   .     S
C7     O57     1.296   .     A
C8     O59     1.299   .     A
C8     O58     1.296   .     A
C8     C37     1.450   .     S
C9     N42     1.378   .     A
C9     C65     1.489   .     S
C9     C1164   1.425   1_454 S
C10    C69     1.489   .     S
C10    C651    1.425   .     S
C10    N169    1.378   .     S
C11    N42     1.378   .     A
C11    C73     1.489   .     S
C11    C1162   1.425   1_454 S
C12    C77     1.489   .     S
C12    C649    1.425   .     S
C12    N169    1.378   .     S
C13    C81     1.489   .     S
C13    N44     1.378   .     A
C13    C1040   1.425   1_554 S
C14    C85     1.489   .     S
C14    N299    1.378   .     A
C14    C527    1.425   .     S
C15    C89     1.489   .     S
C15    C1038   1.425   1_554 S
C15    N300    1.378   .     S
C16    C93     1.489   .     S
C16    C525    1.425   .     S
C16    N43     1.378   .     S
C17    C27     1.382   .     A
C17    C34     1.411   .     A
C17    C97     1.454   .     S
C18    C28     1.382   .     A
C18    C33     1.411   .     A
C18    C99     1.454   .     S
C19    C33     1.409   .     A
C19    C101    1.453   .     S
C19    C25     1.382   .     A
C20    C103    1.453   .     S
C20    C34     1.409   .     A
C20    C26     1.382   .     A
C21    C31     1.382   .     A
C21    C36     1.411   .     A
C21    C105    1.454   .     S
C22    C35     1.411   .     A
C22    C32     1.382   .     A
C22    C107    1.454   .     S
C23    C29     1.382   .     A
C23    C109    1.453   .     S
C23    C35     1.409   .     A
C24    C36     1.409   .     A
C24    C111    1.453   .     S
C24    C30     1.382   .     A
C25    C113    1.454   .     S
C25    C38     1.411   .     A
C26    C115    1.454   .     S
C26    C37     1.411   .     A
C27    C117    1.453   .     S
C27    C37     1.409   .     A
C28    C38     1.409   .     A
C28    C119    1.453   .     S
C29    C121    1.454   .     S
C29    C40     1.411   .     A
C30    C39     1.411   .     A
C30    C123    1.454   .     S
C31    C125    1.453   .     S
C31    C39     1.409   .     A
C32    C127    1.453   .     S
C32    C40     1.409   .     A
N41    Zn61    2.030   .     S
N41    C138    1.378   1_455 S
N41    C140    1.378   1_455 S
N42    Zn62    2.030   .     S
N43    C270    1.378   1_545 A
N43    Zn63    2.030   .     S
N44    Zn64    2.030   .     S
N44    C271    1.378   1_545 S
O45    Zn61    2.018   .     S
O46    Zn190   2.018   .     S
O47    Zn189   2.008   .     S
O48    Zn62    2.008   .     S
O49    Zn190   2.018   .     S
O50    Zn61    2.018   .     S
O51    Zn62    2.008   .     S
O52    Zn189   2.008   .     S
O53    Zn319   2.018   .     S
O54    Zn64    2.018   .     S
O55    Zn63    2.008   .     S
O56    Zn320   2.008   .     S
O57    Zn320   2.018   .     S
O58    Zn63    2.018   .     S
O59    Zn64    2.008   .     S
O60    Zn319   2.008   .     S
Zn61   O180    2.008   1_455 S
Zn61   O175    2.008   1_455 S
Zn62   O177    2.018   1_455 S
Zn62   O174    2.018   1_455 S
Zn63   O316    2.008   1_545 S
Zn63   O309    2.018   1_545 S
Zn64   O313    2.018   1_545 S
Zn64   O312    2.008   1_545 S
C65    O67     1.399   .     S
C65    O194    1.216   1_455 S
O66    C193    1.216   .     S
O67    H68     1.014   .     S
C69    O71     1.399   .     S
C69    O198    1.216   .     S
O70    C197    1.216   1_455 S
O71    H72     1.014   .     S
C73    O75     1.399   .     S
C73    O202    1.216   1_455 S
O74    C201    1.216   .     S
O75    H76     1.014   .     S
C77    O79     1.399   .     S
C77    O206    1.216   .     S
O78    C205    1.216   1_455 S
O79    H80     1.014   .     S
C81    O83     1.399   .     S
C81    O82     1.216   .     D
O83    H84     1.014   .     S
C85    O87     1.399   .     S
C85    O86     1.216   .     D
O87    H88     1.014   .     S
C89    O91     1.399   .     S
C89    O90     1.216   .     D
O91    H92     1.014   .     S
C93    O94     1.216   .     D
C93    O95     1.399   .     S
O95    H96     1.014   .     S
C97    N98     1.157   .     T
C99    N100    1.157   .     T
C101   N102    1.157   .     T
C103   N104    1.157   .     T
C105   N106    1.157   .     T
C107   N108    1.157   .     T
C109   N110    1.157   .     T
C111   N112    1.157   .     T
C113   N114    1.157   .     T
C115   N116    1.157   .     T
C117   N118    1.157   .     T
C119   N120    1.157   .     T
C121   N122    1.157   .     T
C123   N124    1.157   .     T
C125   N126    1.157   .     T
C127   N128    1.157   .     T
C129   O176    1.299   .     A
C129   O173    1.296   .     A
C129   C164    1.450   .     S
C130   C163    1.450   .     S
C130   O174    1.296   .     A
C130   O175    1.299   .     A
C131   O177    1.296   .     A
C131   C162    1.450   .     S
C131   O180    1.299   .     A
C132   O179    1.299   .     A
C132   O178    1.296   .     A
C132   C161    1.450   .     S
C133   O184    1.299   .     A
C133   O181    1.296   .     A
C133   C168    1.450   .     S
C134   O183    1.299   .     A
C134   O182    1.296   .     A
C134   C167    1.450   .     S
C135   O188    1.299   .     A
C135   C166    1.450   .     S
C135   O185    1.296   .     A
C136   O187    1.299   .     A
C136   O186    1.296   .     A
C136   C165    1.450   .     S
C137   N170    1.378   .     A
C137   C193    1.489   .     S
C137   C1036   1.425   1_554 S
C138   C197    1.489   .     S
C138   C523    1.425   1_655 S
C138   N41     1.378   1_655 S
C139   N170    1.378   .     A
C139   C201    1.489   .     S
C139   C1034   1.425   1_554 S
C140   C205    1.489   .     S
C140   C521    1.425   1_655 S
C140   N41     1.378   1_655 S
C141   C209    1.489   .     S
C141   N172    1.378   .     A
C141   C1168   1.425   1_554 S
C142   C213    1.489   .     S
C142   N427    1.378   .     A
C142   C655    1.425   .     S
C143   C217    1.489   .     S
C143   C1166   1.425   1_554 S
C143   N428    1.378   .     S
C144   C221    1.489   .     S
C144   C653    1.425   .     S
C144   N171    1.378   .     S
C145   C155    1.382   .     A
C145   C162    1.411   .     A
C145   C225    1.454   .     S
C146   C156    1.382   .     A
C146   C161    1.411   .     A
C146   C227    1.454   .     S
C147   C161    1.409   .     A
C147   C229    1.453   .     S
C147   C153    1.382   .     A
C148   C231    1.453   .     S
C148   C162    1.409   .     A
C148   C154    1.382   .     A
C149   C159    1.382   .     A
C149   C164    1.411   .     A
C149   C233    1.454   .     S
C150   C163    1.411   .     A
C150   C160    1.382   .     A
C150   C235    1.454   .     S
C151   C157    1.382   .     A
C151   C237    1.453   .     S
C151   C163    1.409   .     A
C152   C164    1.409   .     A
C152   C239    1.453   .     S
C152   C158    1.382   .     A
C153   C241    1.454   .     S
C153   C166    1.411   .     A
C154   C243    1.454   .     S
C154   C165    1.411   .     A
C155   C245    1.453   .     S
C155   C165    1.409   .     A
C156   C166    1.409   .     A
C156   C247    1.453   .     S
C157   C249    1.454   .     S
C157   C168    1.411   .     A
C158   C167    1.411   .     A
C158   C251    1.454   .     S
C159   C253    1.453   .     S
C159   C167    1.409   .     A
C160   C255    1.453   .     S
C160   C168    1.409   .     A
N169   Zn189   2.030   .     S
N170   Zn190   2.030   .     S
N171   C398    1.378   1_545 A
N171   Zn191   2.030   .     S
N172   Zn192   2.030   .     S
N172   C399    1.378   1_545 S
O173   Zn189   2.018   .     S
O174   Zn62    2.018   1_655 S
O175   Zn61    2.008   1_655 S
O176   Zn190   2.008   .     S
O177   Zn62    2.018   1_655 S
O178   Zn189   2.018   .     S
O179   Zn190   2.008   .     S
O180   Zn61    2.008   1_655 S
O181   Zn447   2.018   .     S
O182   Zn192   2.018   .     S
O183   Zn191   2.008   .     S
O184   Zn448   2.008   .     S
O185   Zn448   2.018   .     S
O186   Zn191   2.018   .     S
O187   Zn192   2.008   .     S
O188   Zn447   2.008   .     S
Zn191  O444    2.008   1_545 S
Zn191  O437    2.018   1_545 S
Zn192  O441    2.018   1_545 S
Zn192  O440    2.008   1_545 S
C193   O195    1.399   .     S
O194   C65     1.216   1_655 S
O195   H196    1.014   .     S
C197   O199    1.399   .     S
C197   O70     1.216   1_655 S
O199   H200    1.014   .     S
C201   O203    1.399   .     S
O202   C73     1.216   1_655 S
O203   H204    1.014   .     S
C205   O207    1.399   .     S
C205   O78     1.216   1_655 S
O207   H208    1.014   .     S
C209   O211    1.399   .     S
C209   O210    1.216   .     D
O211   H212    1.014   .     S
C213   O215    1.399   .     S
C213   O214    1.216   .     D
O215   H216    1.014   .     S
C217   O219    1.399   .     S
C217   O218    1.216   .     D
O219   H220    1.014   .     S
C221   O222    1.216   .     D
C221   O223    1.399   .     S
O223   H224    1.014   .     S
C225   N226    1.157   .     T
C227   N228    1.157   .     T
C229   N230    1.157   .     T
C231   N232    1.157   .     T
C233   N234    1.157   .     T
C235   N236    1.157   .     T
C237   N238    1.157   .     T
C239   N240    1.157   .     T
C241   N242    1.157   .     T
C243   N244    1.157   .     T
C245   N246    1.157   .     T
C247   N248    1.157   .     T
C249   N250    1.157   .     T
C251   N252    1.157   .     T
C253   N254    1.157   .     T
C255   N256    1.157   .     T
C257   O304    1.299   .     A
C257   O301    1.296   .     A
C257   C292    1.450   .     S
C258   C291    1.450   .     S
C258   O302    1.296   .     A
C258   O303    1.299   .     A
C259   O305    1.296   .     A
C259   C290    1.450   .     S
C259   O308    1.299   .     A
C260   O307    1.299   .     A
C260   O306    1.296   .     A
C260   C289    1.450   .     S
C261   O312    1.299   .     A
C261   O309    1.296   .     A
C261   C296    1.450   .     S
C262   O311    1.299   .     A
C262   O310    1.296   .     A
C262   C295    1.450   .     S
C263   O316    1.299   .     A
C263   C294    1.450   .     S
C263   O313    1.296   .     A
C264   O315    1.299   .     A
C264   O314    1.296   .     A
C264   C293    1.450   .     S
C265   N298    1.378   .     A
C265   C321    1.489   .     S
C265   C1420   1.425   1_454 S
C266   C325    1.489   .     S
C266   C907    1.425   .     S
C266   N425    1.378   .     S
C267   N298    1.378   .     A
C267   C329    1.489   .     S
C267   C1418   1.425   1_454 S
C268   C333    1.489   .     S
C268   C905    1.425   .     S
C268   N425    1.378   .     S
C269   C337    1.489   .     S
C269   N300    1.378   .     A
C269   C1296   1.425   1_554 S
C270   C341    1.489   .     S
C270   N43     1.378   1_565 A
C270   C783    1.425   .     S
C271   C345    1.489   .     S
C271   C1294   1.425   1_554 S
C271   N44     1.378   1_565 S
C272   C349    1.489   .     S
C272   C781    1.425   .     S
C272   N299    1.378   .     S
C273   C283    1.382   .     A
C273   C290    1.411   .     A
C273   C353    1.454   .     S
C274   C284    1.382   .     A
C274   C289    1.411   .     A
C274   C355    1.454   .     S
C275   C289    1.409   .     A
C275   C357    1.453   .     S
C275   C281    1.382   .     A
C276   C359    1.453   .     S
C276   C290    1.409   .     A
C276   C282    1.382   .     A
C277   C287    1.382   .     A
C277   C292    1.411   .     A
C277   C361    1.454   .     S
C278   C291    1.411   .     A
C278   C288    1.382   .     A
C278   C363    1.454   .     S
C279   C285    1.382   .     A
C279   C365    1.453   .     S
C279   C291    1.409   .     A
C280   C292    1.409   .     A
C280   C367    1.453   .     S
C280   C286    1.382   .     A
C281   C369    1.454   .     S
C281   C294    1.411   .     A
C282   C371    1.454   .     S
C282   C293    1.411   .     A
C283   C373    1.453   .     S
C283   C293    1.409   .     A
C284   C294    1.409   .     A
C284   C375    1.453   .     S
C285   C377    1.454   .     S
C285   C296    1.411   .     A
C286   C295    1.411   .     A
C286   C379    1.454   .     S
C287   C381    1.453   .     S
C287   C295    1.409   .     A
C288   C383    1.453   .     S
C288   C296    1.409   .     A
N297   Zn317   2.030   .     S
N297   C394    1.378   1_455 S
N297   C396    1.378   1_455 S
N298   Zn318   2.030   .     S
N299   Zn319   2.030   .     S
N300   Zn320   2.030   .     S
O301   Zn317   2.018   .     S
O302   Zn446   2.018   .     S
O303   Zn445   2.008   .     S
O304   Zn318   2.008   .     S
O305   Zn446   2.018   .     S
O306   Zn317   2.018   .     S
O307   Zn318   2.008   .     S
O308   Zn445   2.008   .     S
O309   Zn63    2.018   1_565 S
O310   Zn320   2.018   .     S
O311   Zn319   2.008   .     S
O312   Zn64    2.008   1_565 S
O313   Zn64    2.018   1_565 S
O314   Zn319   2.018   .     S
O315   Zn320   2.008   .     S
O316   Zn63    2.008   1_565 S
Zn317  O436    2.008   1_455 S
Zn317  O431    2.008   1_455 S
Zn318  O433    2.018   1_455 S
Zn318  O430    2.018   1_455 S
C321   O323    1.399   .     S
C321   O450    1.216   1_455 S
O322   C449    1.216   .     S
O323   H324    1.014   .     S
C325   O327    1.399   .     S
C325   O454    1.216   .     S
O326   C453    1.216   1_455 S
O327   H328    1.014   .     S
C329   O331    1.399   .     S
C329   O458    1.216   1_455 S
O330   C457    1.216   .     S
O331   H332    1.014   .     S
C333   O335    1.399   .     S
C333   O462    1.216   .     S
O334   C461    1.216   1_455 S
O335   H336    1.014   .     S
C337   O339    1.399   .     S
C337   O338    1.216   .     D
O339   H340    1.014   .     S
C341   O343    1.399   .     S
C341   O342    1.216   .     D
O343   H344    1.014   .     S
C345   O347    1.399   .     S
C345   O346    1.216   .     D
O347   H348    1.014   .     S
C349   O350    1.216   .     D
C349   O351    1.399   .     S
O351   H352    1.014   .     S
C353   N354    1.157   .     T
C355   N356    1.157   .     T
C357   N358    1.157   .     T
C359   N360    1.157   .     T
C361   N362    1.157   .     T
C363   N364    1.157   .     T
C365   N366    1.157   .     T
C367   N368    1.157   .     T
C369   N370    1.157   .     T
C371   N372    1.157   .     T
C373   N374    1.157   .     T
C375   N376    1.157   .     T
C377   N378    1.157   .     T
C379   N380    1.157   .     T
C381   N382    1.157   .     T
C383   N384    1.157   .     T
C385   O432    1.299   .     A
C385   O429    1.296   .     A
C385   C420    1.450   .     S
C386   C419    1.450   .     S
C386   O430    1.296   .     A
C386   O431    1.299   .     A
C387   O433    1.296   .     A
C387   C418    1.450   .     S
C387   O436    1.299   .     A
C388   O435    1.299   .     A
C388   O434    1.296   .     A
C388   C417    1.450   .     S
C389   O440    1.299   .     A
C389   O437    1.296   .     A
C389   C424    1.450   .     S
C390   O439    1.299   .     A
C390   O438    1.296   .     A
C390   C423    1.450   .     S
C391   O444    1.299   .     A
C391   C422    1.450   .     S
C391   O441    1.296   .     A
C392   O443    1.299   .     A
C392   O442    1.296   .     A
C392   C421    1.450   .     S
C393   N426    1.378   .     A
C393   C449    1.489   .     S
C393   C1292   1.425   1_554 S
C394   C453    1.489   .     S
C394   C779    1.425   1_655 S
C394   N297    1.378   1_655 S
C395   N426    1.378   .     A
C395   C457    1.489   .     S
C395   C1290   1.425   1_554 S
C396   C461    1.489   .     S
C396   C777    1.425   1_655 S
C396   N297    1.378   1_655 S
C397   C465    1.489   .     S
C397   N428    1.378   .     A
C397   C1424   1.425   1_554 S
C398   C469    1.489   .     S
C398   N171    1.378   1_565 A
C398   C911    1.425   .     S
C399   C473    1.489   .     S
C399   C1422   1.425   1_554 S
C399   N172    1.378   1_565 S
C400   C477    1.489   .     S
C400   C909    1.425   .     S
C400   N427    1.378   .     S
C401   C411    1.382   .     A
C401   C418    1.411   .     A
C401   C481    1.454   .     S
C402   C412    1.382   .     A
C402   C417    1.411   .     A
C402   C483    1.454   .     S
C403   C417    1.409   .     A
C403   C485    1.453   .     S
C403   C409    1.382   .     A
C404   C487    1.453   .     S
C404   C418    1.409   .     A
C404   C410    1.382   .     A
C405   C415    1.382   .     A
C405   C420    1.411   .     A
C405   C489    1.454   .     S
C406   C419    1.411   .     A
C406   C416    1.382   .     A
C406   C491    1.454   .     S
C407   C413    1.382   .     A
C407   C493    1.453   .     S
C407   C419    1.409   .     A
C408   C420    1.409   .     A
C408   C495    1.453   .     S
C408   C414    1.382   .     A
C409   C497    1.454   .     S
C409   C422    1.411   .     A
C410   C499    1.454   .     S
C410   C421    1.411   .     A
C411   C501    1.453   .     S
C411   C421    1.409   .     A
C412   C422    1.409   .     A
C412   C503    1.453   .     S
C413   C505    1.454   .     S
C413   C424    1.411   .     A
C414   C423    1.411   .     A
C414   C507    1.454   .     S
C415   C509    1.453   .     S
C415   C423    1.409   .     A
C416   C511    1.453   .     S
C416   C424    1.409   .     A
N425   Zn445   2.030   .     S
N426   Zn446   2.030   .     S
N427   Zn447   2.030   .     S
N428   Zn448   2.030   .     S
O429   Zn445   2.018   .     S
O430   Zn318   2.018   1_655 S
O431   Zn317   2.008   1_655 S
O432   Zn446   2.008   .     S
O433   Zn318   2.018   1_655 S
O434   Zn445   2.018   .     S
O435   Zn446   2.008   .     S
O436   Zn317   2.008   1_655 S
O437   Zn191   2.018   1_565 S
O438   Zn448   2.018   .     S
O439   Zn447   2.008   .     S
O440   Zn192   2.008   1_565 S
O441   Zn192   2.018   1_565 S
O442   Zn447   2.018   .     S
O443   Zn448   2.008   .     S
O444   Zn191   2.008   1_565 S
C449   O451    1.399   .     S
O450   C321    1.216   1_655 S
O451   H452    1.014   .     S
C453   O455    1.399   .     S
C453   O326    1.216   1_655 S
O455   H456    1.014   .     S
C457   O459    1.399   .     S
O458   C329    1.216   1_655 S
O459   H460    1.014   .     S
C461   O463    1.399   .     S
C461   O334    1.216   1_655 S
O463   H464    1.014   .     S
C465   O467    1.399   .     S
C465   O466    1.216   .     D
O467   H468    1.014   .     S
C469   O471    1.399   .     S
C469   O470    1.216   .     D
O471   H472    1.014   .     S
C473   O475    1.399   .     S
C473   O474    1.216   .     D
O475   H476    1.014   .     S
C477   O478    1.216   .     D
C477   O479    1.399   .     S
O479   H480    1.014   .     S
C481   N482    1.157   .     T
C483   N484    1.157   .     T
C485   N486    1.157   .     T
C487   N488    1.157   .     T
C489   N490    1.157   .     T
C491   N492    1.157   .     T
C493   N494    1.157   .     T
C495   N496    1.157   .     T
C497   N498    1.157   .     T
C499   N500    1.157   .     T
C501   N502    1.157   .     T
C503   N504    1.157   .     T
C505   N506    1.157   .     T
C507   N508    1.157   .     T
C509   N510    1.157   .     T
C511   N512    1.157   .     T
C513   O560    1.299   .     A
C513   O557    1.296   .     A
C513   C548    1.450   .     S
C514   C547    1.450   .     S
C514   O558    1.296   .     A
C514   O559    1.299   .     A
C515   O561    1.296   .     A
C515   C546    1.450   .     S
C515   O564    1.299   .     A
C516   O563    1.299   .     A
C516   O562    1.296   .     A
C516   C545    1.450   .     S
C517   O568    1.299   .     A
C517   O565    1.296   .     A
C517   C552    1.450   .     S
C518   O567    1.299   .     A
C518   O566    1.296   .     A
C518   C551    1.450   .     S
C519   O572    1.299   .     A
C519   C550    1.450   .     S
C519   O569    1.296   .     A
C520   O571    1.299   .     A
C520   O570    1.296   .     A
C520   C549    1.450   .     S
C521   N554    1.378   .     A
C521   C577    1.489   .     S
C521   C140    1.425   1_455 S
C522   C581    1.489   .     S
C522   C1163   1.425   .     S
C522   N681    1.378   .     S
C523   N554    1.378   .     A
C523   C585    1.489   .     S
C523   C138    1.425   1_455 S
C524   C589    1.489   .     S
C524   C1161   1.425   .     S
C524   N681    1.378   .     S
C525   C593    1.489   .     S
C525   N556    1.378   .     A
C526   C597    1.489   .     S
C526   N811    1.378   .     A
C526   C1039   1.425   .     S
C527   C601    1.489   .     S
C527   N812    1.378   .     S
C528   C605    1.489   .     S
C528   C1037   1.425   .     S
C528   N555    1.378   .     S
C529   C539    1.382   .     A
C529   C546    1.411   .     A
C529   C609    1.454   .     S
C530   C540    1.382   .     A
C530   C545    1.411   .     A
C530   C611    1.454   .     S
C531   C545    1.409   .     A
C531   C613    1.453   .     S
C531   C537    1.382   .     A
C532   C615    1.453   .     S
C532   C546    1.409   .     A
C532   C538    1.382   .     A
C533   C543    1.382   .     A
C533   C548    1.411   .     A
C533   C617    1.454   .     S
C534   C547    1.411   .     A
C534   C544    1.382   .     A
C534   C619    1.454   .     S
C535   C541    1.382   .     A
C535   C621    1.453   .     S
C535   C547    1.409   .     A
C536   C548    1.409   .     A
C536   C623    1.453   .     S
C536   C542    1.382   .     A
C537   C625    1.454   .     S
C537   C550    1.411   .     A
C538   C627    1.454   .     S
C538   C549    1.411   .     A
C539   C629    1.453   .     S
C539   C549    1.409   .     A
C540   C550    1.409   .     A
C540   C631    1.453   .     S
C541   C633    1.454   .     S
C541   C552    1.411   .     A
C542   C551    1.411   .     A
C542   C635    1.454   .     S
C543   C637    1.453   .     S
C543   C551    1.409   .     A
C544   C639    1.453   .     S
C544   C552    1.409   .     A
N553   Zn573   2.030   .     S
N553   C650    1.378   1_455 S
N553   C652    1.378   1_455 S
N554   Zn574   2.030   .     S
N555   C782    1.378   1_545 A
N555   Zn575   2.030   .     S
N556   Zn576   2.030   .     S
N556   C783    1.378   1_545 S
O557   Zn573   2.018   .     S
O558   Zn702   2.018   .     S
O559   Zn701   2.008   .     S
O560   Zn574   2.008   .     S
O561   Zn702   2.018   .     S
O562   Zn573   2.018   .     S
O563   Zn574   2.008   .     S
O564   Zn701   2.008   .     S
O565   Zn831   2.018   .     S
O566   Zn576   2.018   .     S
O567   Zn575   2.008   .     S
O568   Zn832   2.008   .     S
O569   Zn832   2.018   .     S
O570   Zn575   2.018   .     S
O571   Zn576   2.008   .     S
O572   Zn831   2.008   .     S
Zn573  O692    2.008   1_455 S
Zn573  O687    2.008   1_455 S
Zn574  O689    2.018   1_455 S
Zn574  O686    2.018   1_455 S
Zn575  O828    2.008   1_545 S
Zn575  O821    2.018   1_545 S
Zn576  O825    2.018   1_545 S
Zn576  O824    2.008   1_545 S
C577   O579    1.399   .     S
C577   O706    1.216   1_455 S
O578   C705    1.216   .     S
O579   H580    1.014   .     S
C581   O583    1.399   .     S
C581   O710    1.216   .     S
O582   C709    1.216   1_455 S
O583   H584    1.014   .     S
C585   O587    1.399   .     S
C585   O714    1.216   1_455 S
O586   C713    1.216   .     S
O587   H588    1.014   .     S
C589   O591    1.399   .     S
C589   O718    1.216   .     S
O590   C717    1.216   1_455 S
O591   H592    1.014   .     S
C593   O595    1.399   .     S
C593   O594    1.216   .     D
O595   H596    1.014   .     S
C597   O599    1.399   .     S
C597   O598    1.216   .     D
O599   H600    1.014   .     S
C601   O603    1.399   .     S
C601   O602    1.216   .     D
O603   H604    1.014   .     S
C605   O606    1.216   .     D
C605   O607    1.399   .     S
O607   H608    1.014   .     S
C609   N610    1.157   .     T
C611   N612    1.157   .     T
C613   N614    1.157   .     T
C615   N616    1.157   .     T
C617   N618    1.157   .     T
C619   N620    1.157   .     T
C621   N622    1.157   .     T
C623   N624    1.157   .     T
C625   N626    1.157   .     T
C627   N628    1.157   .     T
C629   N630    1.157   .     T
C631   N632    1.157   .     T
C633   N634    1.157   .     T
C635   N636    1.157   .     T
C637   N638    1.157   .     T
C639   N640    1.157   .     T
C641   O688    1.299   .     A
C641   O685    1.296   .     A
C641   C676    1.450   .     S
C642   C675    1.450   .     S
C642   O686    1.296   .     A
C642   O687    1.299   .     A
C643   O689    1.296   .     A
C643   C674    1.450   .     S
C643   O692    1.299   .     A
C644   O691    1.299   .     A
C644   O690    1.296   .     A
C644   C673    1.450   .     S
C645   O696    1.299   .     A
C645   O693    1.296   .     A
C645   C680    1.450   .     S
C646   O695    1.299   .     A
C646   O694    1.296   .     A
C646   C679    1.450   .     S
C647   O700    1.299   .     A
C647   C678    1.450   .     S
C647   O697    1.296   .     A
C648   O699    1.299   .     A
C648   O698    1.296   .     A
C648   C677    1.450   .     S
C649   N682    1.378   .     A
C649   C705    1.489   .     S
C650   C709    1.489   .     S
C650   C1035   1.425   1_655 S
C650   N553    1.378   1_655 S
C651   N682    1.378   .     A
C651   C713    1.489   .     S
C652   C717    1.489   .     S
C652   C1033   1.425   1_655 S
C652   N553    1.378   1_655 S
C653   C721    1.489   .     S
C653   N684    1.378   .     A
C654   C725    1.489   .     S
C654   N939    1.378   .     A
C654   C1167   1.425   .     S
C655   C729    1.489   .     S
C655   N940    1.378   .     S
C656   C733    1.489   .     S
C656   C1165   1.425   .     S
C656   N683    1.378   .     S
C657   C667    1.382   .     A
C657   C674    1.411   .     A
C657   C737    1.454   .     S
C658   C668    1.382   .     A
C658   C673    1.411   .     A
C658   C739    1.454   .     S
C659   C673    1.409   .     A
C659   C741    1.453   .     S
C659   C665    1.382   .     A
C660   C743    1.453   .     S
C660   C674    1.409   .     A
C660   C666    1.382   .     A
C661   C671    1.382   .     A
C661   C676    1.411   .     A
C661   C745    1.454   .     S
C662   C675    1.411   .     A
C662   C672    1.382   .     A
C662   C747    1.454   .     S
C663   C669    1.382   .     A
C663   C749    1.453   .     S
C663   C675    1.409   .     A
C664   C676    1.409   .     A
C664   C751    1.453   .     S
C664   C670    1.382   .     A
C665   C753    1.454   .     S
C665   C678    1.411   .     A
C666   C755    1.454   .     S
C666   C677    1.411   .     A
C667   C757    1.453   .     S
C667   C677    1.409   .     A
C668   C678    1.409   .     A
C668   C759    1.453   .     S
C669   C761    1.454   .     S
C669   C680    1.411   .     A
C670   C679    1.411   .     A
C670   C763    1.454   .     S
C671   C765    1.453   .     S
C671   C679    1.409   .     A
C672   C767    1.453   .     S
C672   C680    1.409   .     A
N681   Zn701   2.030   .     S
N682   Zn702   2.030   .     S
N683   C910    1.378   1_545 A
N683   Zn703   2.030   .     S
N684   Zn704   2.030   .     S
N684   C911    1.378   1_545 S
O685   Zn701   2.018   .     S
O686   Zn574   2.018   1_655 S
O687   Zn573   2.008   1_655 S
O688   Zn702   2.008   .     S
O689   Zn574   2.018   1_655 S
O690   Zn701   2.018   .     S
O691   Zn702   2.008   .     S
O692   Zn573   2.008   1_655 S
O693   Zn959   2.018   .     S
O694   Zn704   2.018   .     S
O695   Zn703   2.008   .     S
O696   Zn960   2.008   .     S
O697   Zn960   2.018   .     S
O698   Zn703   2.018   .     S
O699   Zn704   2.008   .     S
O700   Zn959   2.008   .     S
Zn703  O956    2.008   1_545 S
Zn703  O949    2.018   1_545 S
Zn704  O953    2.018   1_545 S
Zn704  O952    2.008   1_545 S
C705   O707    1.399   .     S
O706   C577    1.216   1_655 S
O707   H708    1.014   .     S
C709   O711    1.399   .     S
C709   O582    1.216   1_655 S
O711   H712    1.014   .     S
C713   O715    1.399   .     S
O714   C585    1.216   1_655 S
O715   H716    1.014   .     S
C717   O719    1.399   .     S
C717   O590    1.216   1_655 S
O719   H720    1.014   .     S
C721   O723    1.399   .     S
C721   O722    1.216   .     D
O723   H724    1.014   .     S
C725   O727    1.399   .     S
C725   O726    1.216   .     D
O727   H728    1.014   .     S
C729   O731    1.399   .     S
C729   O730    1.216   .     D
O731   H732    1.014   .     S
C733   O734    1.216   .     D
C733   O735    1.399   .     S
O735   H736    1.014   .     S
C737   N738    1.157   .     T
C739   N740    1.157   .     T
C741   N742    1.157   .     T
C743   N744    1.157   .     T
C745   N746    1.157   .     T
C747   N748    1.157   .     T
C749   N750    1.157   .     T
C751   N752    1.157   .     T
C753   N754    1.157   .     T
C755   N756    1.157   .     T
C757   N758    1.157   .     T
C759   N760    1.157   .     T
C761   N762    1.157   .     T
C763   N764    1.157   .     T
C765   N766    1.157   .     T
C767   N768    1.157   .     T
C769   O816    1.299   .     A
C769   O813    1.296   .     A
C769   C804    1.450   .     S
C770   C803    1.450   .     S
C770   O814    1.296   .     A
C770   O815    1.299   .     A
C771   O817    1.296   .     A
C771   C802    1.450   .     S
C771   O820    1.299   .     A
C772   O819    1.299   .     A
C772   O818    1.296   .     A
C772   C801    1.450   .     S
C773   O824    1.299   .     A
C773   O821    1.296   .     A
C773   C808    1.450   .     S
C774   O823    1.299   .     A
C774   O822    1.296   .     A
C774   C807    1.450   .     S
C775   O828    1.299   .     A
C775   C806    1.450   .     S
C775   O825    1.296   .     A
C776   O827    1.299   .     A
C776   O826    1.296   .     A
C776   C805    1.450   .     S
C777   N810    1.378   .     A
C777   C833    1.489   .     S
C777   C396    1.425   1_455 S
C778   C837    1.489   .     S
C778   C1419   1.425   .     S
C778   N937    1.378   .     S
C779   N810    1.378   .     A
C779   C841    1.489   .     S
C779   C394    1.425   1_455 S
C780   C845    1.489   .     S
C780   C1417   1.425   .     S
C780   N937    1.378   .     S
C781   C849    1.489   .     S
C781   N812    1.378   .     A
C782   C853    1.489   .     S
C782   N555    1.378   1_565 A
C782   C1295   1.425   .     S
C783   C857    1.489   .     S
C783   N556    1.378   1_565 S
C784   C861    1.489   .     S
C784   C1293   1.425   .     S
C784   N811    1.378   .     S
C785   C795    1.382   .     A
C785   C802    1.411   .     A
C785   C865    1.454   .     S
C786   C796    1.382   .     A
C786   C801    1.411   .     A
C786   C867    1.454   .     S
C787   C801    1.409   .     A
C787   C869    1.453   .     S
C787   C793    1.382   .     A
C788   C871    1.453   .     S
C788   C802    1.409   .     A
C788   C794    1.382   .     A
C789   C799    1.382   .     A
C789   C804    1.411   .     A
C789   C873    1.454   .     S
C790   C803    1.411   .     A
C790   C800    1.382   .     A
C790   C875    1.454   .     S
C791   C797    1.382   .     A
C791   C877    1.453   .     S
C791   C803    1.409   .     A
C792   C804    1.409   .     A
C792   C879    1.453   .     S
C792   C798    1.382   .     A
C793   C881    1.454   .     S
C793   C806    1.411   .     A
C794   C883    1.454   .     S
C794   C805    1.411   .     A
C795   C885    1.453   .     S
C795   C805    1.409   .     A
C796   C806    1.409   .     A
C796   C887    1.453   .     S
C797   C889    1.454   .     S
C797   C808    1.411   .     A
C798   C807    1.411   .     A
C798   C891    1.454   .     S
C799   C893    1.453   .     S
C799   C807    1.409   .     A
C800   C895    1.453   .     S
C800   C808    1.409   .     A
N809   Zn829   2.030   .     S
N809   C906    1.378   1_455 S
N809   C908    1.378   1_455 S
N810   Zn830   2.030   .     S
N811   Zn831   2.030   .     S
N812   Zn832   2.030   .     S
O813   Zn829   2.018   .     S
O814   Zn958   2.018   .     S
O815   Zn957   2.008   .     S
O816   Zn830   2.008   .     S
O817   Zn958   2.018   .     S
O818   Zn829   2.018   .     S
O819   Zn830   2.008   .     S
O820   Zn957   2.008   .     S
O821   Zn575   2.018   1_565 S
O822   Zn832   2.018   .     S
O823   Zn831   2.008   .     S
O824   Zn576   2.008   1_565 S
O825   Zn576   2.018   1_565 S
O826   Zn831   2.018   .     S
O827   Zn832   2.008   .     S
O828   Zn575   2.008   1_565 S
Zn829  O948    2.008   1_455 S
Zn829  O943    2.008   1_455 S
Zn830  O945    2.018   1_455 S
Zn830  O942    2.018   1_455 S
C833   O835    1.399   .     S
C833   O962    1.216   1_455 S
O834   C961    1.216   .     S
O835   H836    1.014   .     S
C837   O839    1.399   .     S
C837   O966    1.216   .     S
O838   C965    1.216   1_455 S
O839   H840    1.014   .     S
C841   O843    1.399   .     S
C841   O970    1.216   1_455 S
O842   C969    1.216   .     S
O843   H844    1.014   .     S
C845   O847    1.399   .     S
C845   O974    1.216   .     S
O846   C973    1.216   1_455 S
O847   H848    1.014   .     S
C849   O851    1.399   .     S
C849   O850    1.216   .     D
O851   H852    1.014   .     S
C853   O855    1.399   .     S
C853   O854    1.216   .     D
O855   H856    1.014   .     S
C857   O859    1.399   .     S
C857   O858    1.216   .     D
O859   H860    1.014   .     S
C861   O862    1.216   .     D
C861   O863    1.399   .     S
O863   H864    1.014   .     S
C865   N866    1.157   .     T
C867   N868    1.157   .     T
C869   N870    1.157   .     T
C871   N872    1.157   .     T
C873   N874    1.157   .     T
C875   N876    1.157   .     T
C877   N878    1.157   .     T
C879   N880    1.157   .     T
C881   N882    1.157   .     T
C883   N884    1.157   .     T
C885   N886    1.157   .     T
C887   N888    1.157   .     T
C889   N890    1.157   .     T
C891   N892    1.157   .     T
C893   N894    1.157   .     T
C895   N896    1.157   .     T
C897   O944    1.299   .     A
C897   O941    1.296   .     A
C897   C932    1.450   .     S
C898   C931    1.450   .     S
C898   O942    1.296   .     A
C898   O943    1.299   .     A
C899   O945    1.296   .     A
C899   C930    1.450   .     S
C899   O948    1.299   .     A
C900   O947    1.299   .     A
C900   O946    1.296   .     A
C900   C929    1.450   .     S
C901   O952    1.299   .     A
C901   O949    1.296   .     A
C901   C936    1.450   .     S
C902   O951    1.299   .     A
C902   O950    1.296   .     A
C902   C935    1.450   .     S
C903   O956    1.299   .     A
C903   C934    1.450   .     S
C903   O953    1.296   .     A
C904   O955    1.299   .     A
C904   O954    1.296   .     A
C904   C933    1.450   .     S
C905   N938    1.378   .     A
C905   C961    1.489   .     S
C906   C965    1.489   .     S
C906   C1291   1.425   1_655 S
C906   N809    1.378   1_655 S
C907   N938    1.378   .     A
C907   C969    1.489   .     S
C908   C973    1.489   .     S
C908   C1289   1.425   1_655 S
C908   N809    1.378   1_655 S
C909   C977    1.489   .     S
C909   N940    1.378   .     A
C910   C981    1.489   .     S
C910   N683    1.378   1_565 A
C910   C1423   1.425   .     S
C911   C985    1.489   .     S
C911   N684    1.378   1_565 S
C912   C989    1.489   .     S
C912   C1421   1.425   .     S
C912   N939    1.378   .     S
C913   C923    1.382   .     A
C913   C930    1.411   .     A
C913   C993    1.454   .     S
C914   C924    1.382   .     A
C914   C929    1.411   .     A
C914   C995    1.454   .     S
C915   C929    1.409   .     A
C915   C997    1.453   .     S
C915   C921    1.382   .     A
C916   C999    1.453   .     S
C916   C930    1.409   .     A
C916   C922    1.382   .     A
C917   C927    1.382   .     A
C917   C932    1.411   .     A
C917   C1001   1.454   .     S
C918   C931    1.411   .     A
C918   C928    1.382   .     A
C918   C1003   1.454   .     S
C919   C925    1.382   .     A
C919   C1005   1.453   .     S
C919   C931    1.409   .     A
C920   C932    1.409   .     A
C920   C1007   1.453   .     S
C920   C926    1.382   .     A
C921   C1009   1.454   .     S
C921   C934    1.411   .     A
C922   C1011   1.454   .     S
C922   C933    1.411   .     A
C923   C1013   1.453   .     S
C923   C933    1.409   .     A
C924   C934    1.409   .     A
C924   C1015   1.453   .     S
C925   C1017   1.454   .     S
C925   C936    1.411   .     A
C926   C935    1.411   .     A
C926   C1019   1.454   .     S
C927   C1021   1.453   .     S
C927   C935    1.409   .     A
C928   C1023   1.453   .     S
C928   C936    1.409   .     A
N937   Zn957   2.030   .     S
N938   Zn958   2.030   .     S
N939   Zn959   2.030   .     S
N940   Zn960   2.030   .     S
O941   Zn957   2.018   .     S
O942   Zn830   2.018   1_655 S
O943   Zn829   2.008   1_655 S
O944   Zn958   2.008   .     S
O945   Zn830   2.018   1_655 S
O946   Zn957   2.018   .     S
O947   Zn958   2.008   .     S
O948   Zn829   2.008   1_655 S
O949   Zn703   2.018   1_565 S
O950   Zn960   2.018   .     S
O951   Zn959   2.008   .     S
O952   Zn704   2.008   1_565 S
O953   Zn704   2.018   1_565 S
O954   Zn959   2.018   .     S
O955   Zn960   2.008   .     S
O956   Zn703   2.008   1_565 S
C961   O963    1.399   .     S
O962   C833    1.216   1_655 S
O963   H964    1.014   .     S
C965   O967    1.399   .     S
C965   O838    1.216   1_655 S
O967   H968    1.014   .     S
C969   O971    1.399   .     S
O970   C841    1.216   1_655 S
O971   H972    1.014   .     S
C973   O975    1.399   .     S
C973   O846    1.216   1_655 S
O975   H976    1.014   .     S
C977   O979    1.399   .     S
C977   O978    1.216   .     D
O979   H980    1.014   .     S
C981   O983    1.399   .     S
C981   O982    1.216   .     D
O983   H984    1.014   .     S
C985   O987    1.399   .     S
C985   O986    1.216   .     D
O987   H988    1.014   .     S
C989   O990    1.216   .     D
C989   O991    1.399   .     S
O991   H992    1.014   .     S
C993   N994    1.157   .     T
C995   N996    1.157   .     T
C997   N998    1.157   .     T
C999   N1000   1.157   .     T
C1001  N1002   1.157   .     T
C1003  N1004   1.157   .     T
C1005  N1006   1.157   .     T
C1007  N1008   1.157   .     T
C1009  N1010   1.157   .     T
C1011  N1012   1.157   .     T
C1013  N1014   1.157   .     T
C1015  N1016   1.157   .     T
C1017  N1018   1.157   .     T
C1019  N1020   1.157   .     T
C1021  N1022   1.157   .     T
C1023  N1024   1.157   .     T
C1025  O1072   1.299   .     A
C1025  O1069   1.296   .     A
C1025  C1060   1.450   .     S
C1026  C1059   1.450   .     S
C1026  O1070   1.296   .     A
C1026  O1071   1.299   .     A
C1027  O1073   1.296   .     A
C1027  C1058   1.450   .     S
C1027  O1076   1.299   .     A
C1028  O1075   1.299   .     A
C1028  O1074   1.296   .     A
C1028  C1057   1.450   .     S
C1029  O1080   1.299   .     A
C1029  O1077   1.296   .     A
C1029  C1064   1.450   .     S
C1030  O1079   1.299   .     A
C1030  O1078   1.296   .     A
C1030  C1063   1.450   .     S
C1031  O1084   1.299   .     A
C1031  C1062   1.450   .     S
C1031  O1081   1.296   .     A
C1032  O1083   1.299   .     A
C1032  O1082   1.296   .     A
C1032  C1061   1.450   .     S
C1033  N1066   1.378   .     A
C1033  C1089   1.489   .     S
C1033  C652    1.425   1_455 S
C1034  C1093   1.489   .     S
C1034  C139    1.425   1_556 S
C1034  N1193   1.378   .     S
C1035  N1066   1.378   .     A
C1035  C1097   1.489   .     S
C1035  C650    1.425   1_455 S
C1036  C1101   1.489   .     S
C1036  C137    1.425   1_556 S
C1036  N1193   1.378   .     S
C1037  C1105   1.489   .     S
C1037  N1068   1.378   .     A
C1038  C1109   1.489   .     S
C1038  N1323   1.378   .     A
C1038  C15     1.425   1_556 S
C1039  C1113   1.489   .     S
C1039  N1324   1.378   .     S
C1040  C1117   1.489   .     S
C1040  C13     1.425   1_556 S
C1040  N1067   1.378   .     S
C1041  C1051   1.382   .     A
C1041  C1058   1.411   .     A
C1041  C1121   1.454   .     S
C1042  C1052   1.382   .     A
C1042  C1057   1.411   .     A
C1042  C1123   1.454   .     S
C1043  C1057   1.409   .     A
C1043  C1125   1.453   .     S
C1043  C1049   1.382   .     A
C1044  C1127   1.453   .     S
C1044  C1058   1.409   .     A
C1044  C1050   1.382   .     A
C1045  C1055   1.382   .     A
C1045  C1060   1.411   .     A
C1045  C1129   1.454   .     S
C1046  C1059   1.411   .     A
C1046  C1056   1.382   .     A
C1046  C1131   1.454   .     S
C1047  C1053   1.382   .     A
C1047  C1133   1.453   .     S
C1047  C1059   1.409   .     A
C1048  C1060   1.409   .     A
C1048  C1135   1.453   .     S
C1048  C1054   1.382   .     A
C1049  C1137   1.454   .     S
C1049  C1062   1.411   .     A
C1050  C1139   1.454   .     S
C1050  C1061   1.411   .     A
C1051  C1141   1.453   .     S
C1051  C1061   1.409   .     A
C1052  C1062   1.409   .     A
C1052  C1143   1.453   .     S
C1053  C1145   1.454   .     S
C1053  C1064   1.411   .     A
C1054  C1063   1.411   .     A
C1054  C1147   1.454   .     S
C1055  C1149   1.453   .     S
C1055  C1063   1.409   .     A
C1056  C1151   1.453   .     S
C1056  C1064   1.409   .     A
N1065  Zn1085  2.030   .     S
N1065  C1162   1.378   1_455 S
N1065  C1164   1.378   1_455 S
N1066  Zn1086  2.030   .     S
N1067  C1294   1.378   1_545 A
N1067  Zn1087  2.030   .     S
N1068  Zn1088  2.030   .     S
N1068  C1295   1.378   1_545 S
O1069  Zn1085  2.018   .     S
O1070  Zn1214  2.018   .     S
O1071  Zn1213  2.008   .     S
O1072  Zn1086  2.008   .     S
O1073  Zn1214  2.018   .     S
O1074  Zn1085  2.018   .     S
O1075  Zn1086  2.008   .     S
O1076  Zn1213  2.008   .     S
O1077  Zn1343  2.018   .     S
O1078  Zn1088  2.018   .     S
O1079  Zn1087  2.008   .     S
O1080  Zn1344  2.008   .     S
O1081  Zn1344  2.018   .     S
O1082  Zn1087  2.018   .     S
O1083  Zn1088  2.008   .     S
O1084  Zn1343  2.008   .     S
Zn1085 O1204   2.008   1_455 S
Zn1085 O1199   2.008   1_455 S
Zn1086 O1201   2.018   1_455 S
Zn1086 O1198   2.018   1_455 S
Zn1087 O1340   2.008   1_545 S
Zn1087 O1333   2.018   1_545 S
Zn1088 O1337   2.018   1_545 S
Zn1088 O1336   2.008   1_545 S
C1089  O1091   1.399   .     S
C1089  O1218   1.216   1_455 S
O1090  C1217   1.216   .     S
O1091  H1092   1.014   .     S
C1093  O1095   1.399   .     S
C1093  O1222   1.216   .     S
O1094  C1221   1.216   1_455 S
O1095  H1096   1.014   .     S
C1097  O1099   1.399   .     S
C1097  O1226   1.216   1_455 S
O1098  C1225   1.216   .     S
O1099  H1100   1.014   .     S
C1101  O1103   1.399   .     S
C1101  O1230   1.216   .     S
O1102  C1229   1.216   1_455 S
O1103  H1104   1.014   .     S
C1105  O1107   1.399   .     S
C1105  O1106   1.216   .     D
O1107  H1108   1.014   .     S
C1109  O1111   1.399   .     S
C1109  O1110   1.216   .     D
O1111  H1112   1.014   .     S
C1113  O1115   1.399   .     S
C1113  O1114   1.216   .     D
O1115  H1116   1.014   .     S
C1117  O1118   1.216   .     D
C1117  O1119   1.399   .     S
O1119  H1120   1.014   .     S
C1121  N1122   1.157   .     T
C1123  N1124   1.157   .     T
C1125  N1126   1.157   .     T
C1127  N1128   1.157   .     T
C1129  N1130   1.157   .     T
C1131  N1132   1.157   .     T
C1133  N1134   1.157   .     T
C1135  N1136   1.157   .     T
C1137  N1138   1.157   .     T
C1139  N1140   1.157   .     T
C1141  N1142   1.157   .     T
C1143  N1144   1.157   .     T
C1145  N1146   1.157   .     T
C1147  N1148   1.157   .     T
C1149  N1150   1.157   .     T
C1151  N1152   1.157   .     T
C1153  O1200   1.299   .     A
C1153  O1197   1.296   .     A
C1153  C1188   1.450   .     S
C1154  C1187   1.450   .     S
C1154  O1198   1.296   .     A
C1154  O1199   1.299   .     A
C1155  O1201   1.296   .     A
C1155  C1186   1.450   .     S
C1155  O1204   1.299   .     A
C1156  O1203   1.299   .     A
C1156  O1202   1.296   .     A
C1156  C1185   1.450   .     S
C1157  O1208   1.299   .     A
C1157  O1205   1.296   .     A
C1157  C1192   1.450   .     S
C1158  O1207   1.299   .     A
C1158  O1206   1.296   .     A
C1158  C1191   1.450   .     S
C1159  O1212   1.299   .     A
C1159  C1190   1.450   .     S
C1159  O1209   1.296   .     A
C1160  O1211   1.299   .     A
C1160  O1210   1.296   .     A
C1160  C1189   1.450   .     S
C1161  N1194   1.378   .     A
C1161  C1217   1.489   .     S
C1162  C1221   1.489   .     S
C1162  C11     1.425   1_656 S
C1162  N1065   1.378   1_655 S
C1163  N1194   1.378   .     A
C1163  C1225   1.489   .     S
C1164  C1229   1.489   .     S
C1164  C9      1.425   1_656 S
C1164  N1065   1.378   1_655 S
C1165  C1233   1.489   .     S
C1165  N1196   1.378   .     A
C1166  C1237   1.489   .     S
C1166  N1451   1.378   .     A
C1166  C143    1.425   1_556 S
C1167  C1241   1.489   .     S
C1167  N1452   1.378   .     S
C1168  C1245   1.489   .     S
C1168  C141    1.425   1_556 S
C1168  N1195   1.378   .     S
C1169  C1179   1.382   .     A
C1169  C1186   1.411   .     A
C1169  C1249   1.454   .     S
C1170  C1180   1.382   .     A
C1170  C1185   1.411   .     A
C1170  C1251   1.454   .     S
C1171  C1185   1.409   .     A
C1171  C1253   1.453   .     S
C1171  C1177   1.382   .     A
C1172  C1255   1.453   .     S
C1172  C1186   1.409   .     A
C1172  C1178   1.382   .     A
C1173  C1183   1.382   .     A
C1173  C1188   1.411   .     A
C1173  C1257   1.454   .     S
C1174  C1187   1.411   .     A
C1174  C1184   1.382   .     A
C1174  C1259   1.454   .     S
C1175  C1181   1.382   .     A
C1175  C1261   1.453   .     S
C1175  C1187   1.409   .     A
C1176  C1188   1.409   .     A
C1176  C1263   1.453   .     S
C1176  C1182   1.382   .     A
C1177  C1265   1.454   .     S
C1177  C1190   1.411   .     A
C1178  C1267   1.454   .     S
C1178  C1189   1.411   .     A
C1179  C1269   1.453   .     S
C1179  C1189   1.409   .     A
C1180  C1190   1.409   .     A
C1180  C1271   1.453   .     S
C1181  C1273   1.454   .     S
C1181  C1192   1.411   .     A
C1182  C1191   1.411   .     A
C1182  C1275   1.454   .     S
C1183  C1277   1.453   .     S
C1183  C1191   1.409   .     A
C1184  C1279   1.453   .     S
C1184  C1192   1.409   .     A
N1193  Zn1213  2.030   .     S
N1194  Zn1214  2.030   .     S
N1195  C1422   1.378   1_545 A
N1195  Zn1215  2.030   .     S
N1196  Zn1216  2.030   .     S
N1196  C1423   1.378   1_545 S
O1197  Zn1213  2.018   .     S
O1198  Zn1086  2.018   1_655 S
O1199  Zn1085  2.008   1_655 S
O1200  Zn1214  2.008   .     S
O1201  Zn1086  2.018   1_655 S
O1202  Zn1213  2.018   .     S
O1203  Zn1214  2.008   .     S
O1204  Zn1085  2.008   1_655 S
O1205  Zn1471  2.018   .     S
O1206  Zn1216  2.018   .     S
O1207  Zn1215  2.008   .     S
O1208  Zn1472  2.008   .     S
O1209  Zn1472  2.018   .     S
O1210  Zn1215  2.018   .     S
O1211  Zn1216  2.008   .     S
O1212  Zn1471  2.008   .     S
Zn1215 O1468   2.008   1_545 S
Zn1215 O1461   2.018   1_545 S
Zn1216 O1465   2.018   1_545 S
Zn1216 O1464   2.008   1_545 S
C1217  O1219   1.399   .     S
O1218  C1089   1.216   1_655 S
O1219  H1220   1.014   .     S
C1221  O1223   1.399   .     S
C1221  O1094   1.216   1_655 S
O1223  H1224   1.014   .     S
C1225  O1227   1.399   .     S
O1226  C1097   1.216   1_655 S
O1227  H1228   1.014   .     S
C1229  O1231   1.399   .     S
C1229  O1102   1.216   1_655 S
O1231  H1232   1.014   .     S
C1233  O1235   1.399   .     S
C1233  O1234   1.216   .     D
O1235  H1236   1.014   .     S
C1237  O1239   1.399   .     S
C1237  O1238   1.216   .     D
O1239  H1240   1.014   .     S
C1241  O1243   1.399   .     S
C1241  O1242   1.216   .     D
O1243  H1244   1.014   .     S
C1245  O1246   1.216   .     D
C1245  O1247   1.399   .     S
O1247  H1248   1.014   .     S
C1249  N1250   1.157   .     T
C1251  N1252   1.157   .     T
C1253  N1254   1.157   .     T
C1255  N1256   1.157   .     T
C1257  N1258   1.157   .     T
C1259  N1260   1.157   .     T
C1261  N1262   1.157   .     T
C1263  N1264   1.157   .     T
C1265  N1266   1.157   .     T
C1267  N1268   1.157   .     T
C1269  N1270   1.157   .     T
C1271  N1272   1.157   .     T
C1273  N1274   1.157   .     T
C1275  N1276   1.157   .     T
C1277  N1278   1.157   .     T
C1279  N1280   1.157   .     T
C1281  O1328   1.299   .     A
C1281  O1325   1.296   .     A
C1281  C1316   1.450   .     S
C1282  C1315   1.450   .     S
C1282  O1326   1.296   .     A
C1282  O1327   1.299   .     A
C1283  O1329   1.296   .     A
C1283  C1314   1.450   .     S
C1283  O1332   1.299   .     A
C1284  O1331   1.299   .     A
C1284  O1330   1.296   .     A
C1284  C1313   1.450   .     S
C1285  O1336   1.299   .     A
C1285  O1333   1.296   .     A
C1285  C1320   1.450   .     S
C1286  O1335   1.299   .     A
C1286  O1334   1.296   .     A
C1286  C1319   1.450   .     S
C1287  O1340   1.299   .     A
C1287  C1318   1.450   .     S
C1287  O1337   1.296   .     A
C1288  O1339   1.299   .     A
C1288  O1338   1.296   .     A
C1288  C1317   1.450   .     S
C1289  N1322   1.378   .     A
C1289  C1345   1.489   .     S
C1289  C908    1.425   1_455 S
C1290  C1349   1.489   .     S
C1290  C395    1.425   1_556 S
C1290  N1449   1.378   .     S
C1291  N1322   1.378   .     A
C1291  C1353   1.489   .     S
C1291  C906    1.425   1_455 S
C1292  C1357   1.489   .     S
C1292  C393    1.425   1_556 S
C1292  N1449   1.378   .     S
C1293  C1361   1.489   .     S
C1293  N1324   1.378   .     A
C1294  C1365   1.489   .     S
C1294  N1067   1.378   1_565 A
C1294  C271    1.425   1_556 S
C1295  C1369   1.489   .     S
C1295  N1068   1.378   1_565 S
C1296  C1373   1.489   .     S
C1296  C269    1.425   1_556 S
C1296  N1323   1.378   .     S
C1297  C1307   1.382   .     A
C1297  C1314   1.411   .     A
C1297  C1377   1.454   .     S
C1298  C1308   1.382   .     A
C1298  C1313   1.411   .     A
C1298  C1379   1.454   .     S
C1299  C1313   1.409   .     A
C1299  C1381   1.453   .     S
C1299  C1305   1.382   .     A
C1300  C1383   1.453   .     S
C1300  C1314   1.409   .     A
C1300  C1306   1.382   .     A
C1301  C1311   1.382   .     A
C1301  C1316   1.411   .     A
C1301  C1385   1.454   .     S
C1302  C1315   1.411   .     A
C1302  C1312   1.382   .     A
C1302  C1387   1.454   .     S
C1303  C1309   1.382   .     A
C1303  C1389   1.453   .     S
C1303  C1315   1.409   .     A
C1304  C1316   1.409   .     A
C1304  C1391   1.453   .     S
C1304  C1310   1.382   .     A
C1305  C1393   1.454   .     S
C1305  C1318   1.411   .     A
C1306  C1395   1.454   .     S
C1306  C1317   1.411   .     A
C1307  C1397   1.453   .     S
C1307  C1317   1.409   .     A
C1308  C1318   1.409   .     A
C1308  C1399   1.453   .     S
C1309  C1401   1.454   .     S
C1309  C1320   1.411   .     A
C1310  C1319   1.411   .     A
C1310  C1403   1.454   .     S
C1311  C1405   1.453   .     S
C1311  C1319   1.409   .     A
C1312  C1407   1.453   .     S
C1312  C1320   1.409   .     A
N1321  Zn1341  2.030   .     S
N1321  C1418   1.378   1_455 S
N1321  C1420   1.378   1_455 S
N1322  Zn1342  2.030   .     S
N1323  Zn1343  2.030   .     S
N1324  Zn1344  2.030   .     S
O1325  Zn1341  2.018   .     S
O1326  Zn1470  2.018   .     S
O1327  Zn1469  2.008   .     S
O1328  Zn1342  2.008   .     S
O1329  Zn1470  2.018   .     S
O1330  Zn1341  2.018   .     S
O1331  Zn1342  2.008   .     S
O1332  Zn1469  2.008   .     S
O1333  Zn1087  2.018   1_565 S
O1334  Zn1344  2.018   .     S
O1335  Zn1343  2.008   .     S
O1336  Zn1088  2.008   1_565 S
O1337  Zn1088  2.018   1_565 S
O1338  Zn1343  2.018   .     S
O1339  Zn1344  2.008   .     S
O1340  Zn1087  2.008   1_565 S
Zn1341 O1460   2.008   1_455 S
Zn1341 O1455   2.008   1_455 S
Zn1342 O1457   2.018   1_455 S
Zn1342 O1454   2.018   1_455 S
C1345  O1347   1.399   .     S
C1345  O1474   1.216   1_455 S
O1346  C1473   1.216   .     S
O1347  H1348   1.014   .     S
C1349  O1351   1.399   .     S
C1349  O1478   1.216   .     S
O1350  C1477   1.216   1_455 S
O1351  H1352   1.014   .     S
C1353  O1355   1.399   .     S
C1353  O1482   1.216   1_455 S
O1354  C1481   1.216   .     S
O1355  H1356   1.014   .     S
C1357  O1359   1.399   .     S
C1357  O1486   1.216   .     S
O1358  C1485   1.216   1_455 S
O1359  H1360   1.014   .     S
C1361  O1363   1.399   .     S
C1361  O1362   1.216   .     D
O1363  H1364   1.014   .     S
C1365  O1367   1.399   .     S
C1365  O1366   1.216   .     D
O1367  H1368   1.014   .     S
C1369  O1371   1.399   .     S
C1369  O1370   1.216   .     D
O1371  H1372   1.014   .     S
C1373  O1374   1.216   .     D
C1373  O1375   1.399   .     S
O1375  H1376   1.014   .     S
C1377  N1378   1.157   .     T
C1379  N1380   1.157   .     T
C1381  N1382   1.157   .     T
C1383  N1384   1.157   .     T
C1385  N1386   1.157   .     T
C1387  N1388   1.157   .     T
C1389  N1390   1.157   .     T
C1391  N1392   1.157   .     T
C1393  N1394   1.157   .     T
C1395  N1396   1.157   .     T
C1397  N1398   1.157   .     T
C1399  N1400   1.157   .     T
C1401  N1402   1.157   .     T
C1403  N1404   1.157   .     T
C1405  N1406   1.157   .     T
C1407  N1408   1.157   .     T
C1409  O1456   1.299   .     A
C1409  O1453   1.296   .     A
C1409  C1444   1.450   .     S
C1410  C1443   1.450   .     S
C1410  O1454   1.296   .     A
C1410  O1455   1.299   .     A
C1411  O1457   1.296   .     A
C1411  C1442   1.450   .     S
C1411  O1460   1.299   .     A
C1412  O1459   1.299   .     A
C1412  O1458   1.296   .     A
C1412  C1441   1.450   .     S
C1413  O1464   1.299   .     A
C1413  O1461   1.296   .     A
C1413  C1448   1.450   .     S
C1414  O1463   1.299   .     A
C1414  O1462   1.296   .     A
C1414  C1447   1.450   .     S
C1415  O1468   1.299   .     A
C1415  C1446   1.450   .     S
C1415  O1465   1.296   .     A
C1416  O1467   1.299   .     A
C1416  O1466   1.296   .     A
C1416  C1445   1.450   .     S
C1417  N1450   1.378   .     A
C1417  C1473   1.489   .     S
C1418  C1477   1.489   .     S
C1418  C267    1.425   1_656 S
C1418  N1321   1.378   1_655 S
C1419  N1450   1.378   .     A
C1419  C1481   1.489   .     S
C1420  C1485   1.489   .     S
C1420  C265    1.425   1_656 S
C1420  N1321   1.378   1_655 S
C1421  C1489   1.489   .     S
C1421  N1452   1.378   .     A
C1422  C1493   1.489   .     S
C1422  N1195   1.378   1_565 A
C1422  C399    1.425   1_556 S
C1423  C1497   1.489   .     S
C1423  N1196   1.378   1_565 S
C1424  C1501   1.489   .     S
C1424  C397    1.425   1_556 S
C1424  N1451   1.378   .     S
C1425  C1435   1.382   .     A
C1425  C1442   1.411   .     A
C1425  C1505   1.454   .     S
C1426  C1436   1.382   .     A
C1426  C1441   1.411   .     A
C1426  C1507   1.454   .     S
C1427  C1441   1.409   .     A
C1427  C1509   1.453   .     S
C1427  C1433   1.382   .     A
C1428  C1511   1.453   .     S
C1428  C1442   1.409   .     A
C1428  C1434   1.382   .     A
C1429  C1439   1.382   .     A
C1429  C1444   1.411   .     A
C1429  C1513   1.454   .     S
C1430  C1443   1.411   .     A
C1430  C1440   1.382   .     A
C1430  C1515   1.454   .     S
C1431  C1437   1.382   .     A
C1431  C1517   1.453   .     S
C1431  C1443   1.409   .     A
C1432  C1444   1.409   .     A
C1432  C1519   1.453   .     S
C1432  C1438   1.382   .     A
C1433  C1521   1.454   .     S
C1433  C1446   1.411   .     A
C1434  C1523   1.454   .     S
C1434  C1445   1.411   .     A
C1435  C1525   1.453   .     S
C1435  C1445   1.409   .     A
C1436  C1446   1.409   .     A
C1436  C1527   1.453   .     S
C1437  C1529   1.454   .     S
C1437  C1448   1.411   .     A
C1438  C1447   1.411   .     A
C1438  C1531   1.454   .     S
C1439  C1533   1.453   .     S
C1439  C1447   1.409   .     A
C1440  C1535   1.453   .     S
C1440  C1448   1.409   .     A
N1449  Zn1469  2.030   .     S
N1450  Zn1470  2.030   .     S
N1451  Zn1471  2.030   .     S
N1452  Zn1472  2.030   .     S
O1453  Zn1469  2.018   .     S
O1454  Zn1342  2.018   1_655 S
O1455  Zn1341  2.008   1_655 S
O1456  Zn1470  2.008   .     S
O1457  Zn1342  2.018   1_655 S
O1458  Zn1469  2.018   .     S
O1459  Zn1470  2.008   .     S
O1460  Zn1341  2.008   1_655 S
O1461  Zn1215  2.018   1_565 S
O1462  Zn1472  2.018   .     S
O1463  Zn1471  2.008   .     S
O1464  Zn1216  2.008   1_565 S
O1465  Zn1216  2.018   1_565 S
O1466  Zn1471  2.018   .     S
O1467  Zn1472  2.008   .     S
O1468  Zn1215  2.008   1_565 S
C1473  O1475   1.399   .     S
O1474  C1345   1.216   1_655 S
O1475  H1476   1.014   .     S
C1477  O1479   1.399   .     S
C1477  O1350   1.216   1_655 S
O1479  H1480   1.014   .     S
C1481  O1483   1.399   .     S
O1482  C1353   1.216   1_655 S
O1483  H1484   1.014   .     S
C1485  O1487   1.399   .     S
C1485  O1358   1.216   1_655 S
O1487  H1488   1.014   .     S
C1489  O1491   1.399   .     S
C1489  O1490   1.216   .     D
O1491  H1492   1.014   .     S
C1493  O1495   1.399   .     S
C1493  O1494   1.216   .     D
O1495  H1496   1.014   .     S
C1497  O1499   1.399   .     S
C1497  O1498   1.216   .     D
O1499  H1500   1.014   .     S
C1501  O1502   1.216   .     D
C1501  O1503   1.399   .     S
O1503  H1504   1.014   .     S
C1505  N1506   1.157   .     T
C1507  N1508   1.157   .     T
C1509  N1510   1.157   .     T
C1511  N1512   1.157   .     T
C1513  N1514   1.157   .     T
C1515  N1516   1.157   .     T
C1517  N1518   1.157   .     T
C1519  N1520   1.157   .     T
C1521  N1522   1.157   .     T
C1523  N1524   1.157   .     T
C1525  N1526   1.157   .     T
C1527  N1528   1.157   .     T
C1529  N1530   1.157   .     T
C1531  N1532   1.157   .     T
C1533  N1534   1.157   .     T
C1535  N1536   1.157   .     T
