data_str_m2_o1_o16_pcu_sym.207
_audit_creation_date              2020-01-03
_audit_creation_method            'Materials Studio'
_symmetry_space_group_name_H-M    'P1'
_symmetry_Int_Tables_number       1
_symmetry_cell_setting            triclinic
loop_
_symmetry_equiv_pos_as_xyz
  x,y,z
_cell_length_a                    28.5959
_cell_length_b                    32.4952
_cell_length_c                    26.7456
_cell_angle_alpha                 90.0508
_cell_angle_beta                  73.1650
_cell_angle_gamma                 90.0099
loop_
_atom_site_label
_atom_site_type_symbol
_atom_site_fract_x
_atom_site_fract_y
_atom_site_fract_z
_atom_site_U_iso_or_equiv
_atom_site_adp_type
_atom_site_occupancy
C1     C     0.16664   0.24596   0.25014   0.00000  Uiso   1.00
C2     C     0.14733   0.14344   0.48732   0.00000  Uiso   1.00
C3     C     0.16251   0.14090   0.43207   0.00000  Uiso   1.00
C4     C     0.18311   0.15074   0.01368   0.00000  Uiso   1.00
C5     C     0.23297   0.15324   0.48441   0.00000  Uiso   1.00
C6     C     0.24732   0.14150   0.43205   0.00000  Uiso   1.00
C7     C     0.21236   0.13144   0.40714   0.00000  Uiso   1.00
C8     C     0.17093   0.15700   0.06781   0.00000  Uiso   1.00
C9     C     0.25563   0.16979   0.06263   0.00000  Uiso   1.00
C10    C     0.12714   0.14752   0.40473   0.00000  Uiso   1.00
C11    C     0.20843   0.31207   0.25261   0.00000  Uiso   1.00
C12    C     0.14114   0.16057   0.34922   0.00000  Uiso   1.00
C13    C     0.20842   0.02132   0.25260   0.00000  Uiso   1.00
C14    C     0.16659   0.04276   0.25029   0.00000  Uiso   1.00
C15    C     0.12469   0.02128   0.24821   0.00000  Uiso   1.00
C16    C     0.12469   0.31204   0.24826   0.00000  Uiso   1.00
C17    C     0.16659   0.29060   0.25035   0.00000  Uiso   1.00
C18    C     0.29962   0.19174   0.28306   0.00000  Uiso   1.00
C19    C     0.01583   0.19163   0.28317   0.00000  Uiso   1.00
C20    C     0.03374   0.14168   0.21683   0.00000  Uiso   1.00
C21    C     0.31749   0.14167   0.21687   0.00000  Uiso   1.00
C22    C     0.16665   0.08737   0.25003   0.00000  Uiso   1.00
C23    C     0.19259   0.16690   0.14984   0.00000  Uiso   1.00
C24    C     0.26827   0.16474   0.00863   0.00000  Uiso   1.00
C25    C     0.20697   0.16485   0.09260   0.00000  Uiso   1.00
C26    C     0.07746   0.14306   0.43200   0.00000  Uiso   1.00
C27    C     0.06325   0.13574   0.48556   0.00000  Uiso   1.00
C28    C     0.09718   0.13821   0.01352   0.00000  Uiso   1.00
Cu29   Cu    0.11978   0.16666   0.25000   0.00000  Uiso   1.00
Cu30   Cu    0.21355   0.16667   0.25000   0.00000  Uiso   1.00
H31    H     0.28382   0.17724   0.08086   0.00000  Uiso   1.00
H32    H     0.24112   0.03735   0.25442   0.00000  Uiso   1.00
H33    H     0.09199   0.03728   0.24641   0.00000  Uiso   1.00
H34    H     0.09197   0.29603   0.24652   0.00000  Uiso   1.00
H35    H     0.27379   0.21177   0.30965   0.00000  Uiso   1.00
H36    H     0.02729   0.21162   0.30977   0.00000  Uiso   1.00
H37    H     0.05956   0.12162   0.19027   0.00000  Uiso   1.00
H38    H     0.30599   0.12160   0.19036   0.00000  Uiso   1.00
H39    H     0.28572   0.13719   0.41158   0.00000  Uiso   1.00
H40    H     0.30557   0.16967   0.48546   0.00000  Uiso   1.00
H41    H     0.13354   0.15562   0.09163   0.00000  Uiso   1.00
H42    H     0.04963   0.14486   0.41193   0.00000  Uiso   1.00
H43    H     0.08315   0.13467   0.05526   0.00000  Uiso   1.00
H44    H     0.02558   0.12949   0.00625   0.00000  Uiso   1.00
H45    H     0.24114   0.29607   0.25441   0.00000  Uiso   1.00
N46    N     0.04931   0.16666   0.24998   0.00000  Uiso   1.00
N47    N     0.28402   0.16669   0.24999   0.00000  Uiso   1.00
O48    O     0.12708   0.22678   0.25000   0.00000  Uiso   1.00
O49    O     0.20627   0.22679   0.25000   0.00000  Uiso   1.00
O50    O     0.10775   0.16665   0.32549   0.00000  Uiso   1.00
O51    O     0.18694   0.16666   0.32549   0.00000  Uiso   1.00
O52    O     0.12706   0.10654   0.24999   0.00000  Uiso   1.00
O53    O     0.20625   0.10655   0.24999   0.00000  Uiso   1.00
O54    O     0.14640   0.16667   0.17451   0.00000  Uiso   1.00
O55    O     0.22559   0.16668   0.17451   0.00000  Uiso   1.00
N56    N     0.22688   0.10365   0.36350   0.00000  Uiso   1.00
H57    H     0.25111   0.11854   0.33198   0.00000  Uiso   1.00
H58    H     0.19678   0.09279   0.35276   0.00000  Uiso   1.00
C59    C     0.49998   0.24596   0.25014   0.00000  Uiso   1.00
C60    C     0.48067   0.14344   0.48732   0.00000  Uiso   1.00
C61    C     0.49584   0.14090   0.43207   0.00000  Uiso   1.00
C62    C     0.51645   0.15074   0.01368   0.00000  Uiso   1.00
C63    C     0.56630   0.15324   0.48441   0.00000  Uiso   1.00
C64    C     0.58065   0.14150   0.43205   0.00000  Uiso   1.00
C65    C     0.54569   0.13144   0.40714   0.00000  Uiso   1.00
C66    C     0.50426   0.15700   0.06781   0.00000  Uiso   1.00
C67    C     0.58897   0.16979   0.06263   0.00000  Uiso   1.00
C68    C     0.46047   0.14752   0.40473   0.00000  Uiso   1.00
C69    C     0.54176   0.31207   0.25261   0.00000  Uiso   1.00
C70    C     0.47447   0.16057   0.34922   0.00000  Uiso   1.00
C71    C     0.54176   0.02132   0.25260   0.00000  Uiso   1.00
C72    C     0.49992   0.04276   0.25029   0.00000  Uiso   1.00
C73    C     0.45803   0.02128   0.24821   0.00000  Uiso   1.00
C74    C     0.45802   0.31204   0.24826   0.00000  Uiso   1.00
C75    C     0.49992   0.29060   0.25035   0.00000  Uiso   1.00
C76    C     0.63295   0.19174   0.28306   0.00000  Uiso   1.00
C77    C     0.34916   0.19163   0.28317   0.00000  Uiso   1.00
C78    C     0.36708   0.14168   0.21683   0.00000  Uiso   1.00
C79    C     0.65082   0.14167   0.21687   0.00000  Uiso   1.00
C80    C     0.49998   0.08737   0.25003   0.00000  Uiso   1.00
C81    C     0.52592   0.16690   0.14984   0.00000  Uiso   1.00
C82    C     0.60160   0.16474   0.00863   0.00000  Uiso   1.00
C83    C     0.54030   0.16485   0.09260   0.00000  Uiso   1.00
C84    C     0.41080   0.14306   0.43200   0.00000  Uiso   1.00
C85    C     0.39659   0.13574   0.48556   0.00000  Uiso   1.00
C86    C     0.43051   0.13821   0.01352   0.00000  Uiso   1.00
Cu87   Cu    0.45311   0.16666   0.25000   0.00000  Uiso   1.00
Cu88   Cu    0.54689   0.16667   0.25000   0.00000  Uiso   1.00
H89    H     0.61715   0.17724   0.08086   0.00000  Uiso   1.00
H90    H     0.57445   0.03735   0.25442   0.00000  Uiso   1.00
H91    H     0.42532   0.03728   0.24641   0.00000  Uiso   1.00
H92    H     0.42530   0.29603   0.24652   0.00000  Uiso   1.00
H93    H     0.60712   0.21177   0.30965   0.00000  Uiso   1.00
H94    H     0.36063   0.21162   0.30977   0.00000  Uiso   1.00
H95    H     0.39290   0.12162   0.19027   0.00000  Uiso   1.00
H96    H     0.63933   0.12160   0.19036   0.00000  Uiso   1.00
H97    H     0.61905   0.13719   0.41158   0.00000  Uiso   1.00
H98    H     0.63890   0.16967   0.48546   0.00000  Uiso   1.00
H99    H     0.46687   0.15562   0.09163   0.00000  Uiso   1.00
H100   H     0.38296   0.14486   0.41193   0.00000  Uiso   1.00
H101   H     0.41649   0.13467   0.05526   0.00000  Uiso   1.00
H102   H     0.35891   0.12949   0.00625   0.00000  Uiso   1.00
H103   H     0.57447   0.29607   0.25441   0.00000  Uiso   1.00
N104   N     0.38265   0.16666   0.24998   0.00000  Uiso   1.00
N105   N     0.61735   0.16669   0.24999   0.00000  Uiso   1.00
O106   O     0.46042   0.22678   0.25000   0.00000  Uiso   1.00
O107   O     0.53961   0.22679   0.25000   0.00000  Uiso   1.00
O108   O     0.44108   0.16665   0.32549   0.00000  Uiso   1.00
O109   O     0.52027   0.16666   0.32549   0.00000  Uiso   1.00
O110   O     0.46039   0.10654   0.24999   0.00000  Uiso   1.00
O111   O     0.53958   0.10655   0.24999   0.00000  Uiso   1.00
O112   O     0.47973   0.16667   0.17451   0.00000  Uiso   1.00
O113   O     0.55892   0.16668   0.17451   0.00000  Uiso   1.00
N114   N     0.56021   0.10365   0.36350   0.00000  Uiso   1.00
H115   H     0.58444   0.11854   0.33198   0.00000  Uiso   1.00
H116   H     0.53011   0.09279   0.35276   0.00000  Uiso   1.00
C117   C     0.83331   0.24596   0.25014   0.00000  Uiso   1.00
C118   C     0.81400   0.14344   0.48732   0.00000  Uiso   1.00
C119   C     0.82918   0.14090   0.43207   0.00000  Uiso   1.00
C120   C     0.84978   0.15074   0.01368   0.00000  Uiso   1.00
C121   C     0.89964   0.15324   0.48441   0.00000  Uiso   1.00
C122   C     0.91399   0.14150   0.43205   0.00000  Uiso   1.00
C123   C     0.87902   0.13144   0.40714   0.00000  Uiso   1.00
C124   C     0.83760   0.15700   0.06781   0.00000  Uiso   1.00
C125   C     0.92230   0.16979   0.06263   0.00000  Uiso   1.00
C126   C     0.79380   0.14752   0.40473   0.00000  Uiso   1.00
C127   C     0.87510   0.31207   0.25261   0.00000  Uiso   1.00
C128   C     0.80781   0.16057   0.34922   0.00000  Uiso   1.00
C129   C     0.87509   0.02132   0.25260   0.00000  Uiso   1.00
C130   C     0.83325   0.04276   0.25029   0.00000  Uiso   1.00
C131   C     0.79136   0.02128   0.24821   0.00000  Uiso   1.00
C132   C     0.79136   0.31204   0.24826   0.00000  Uiso   1.00
C133   C     0.83325   0.29060   0.25035   0.00000  Uiso   1.00
C134   C     0.96628   0.19174   0.28306   0.00000  Uiso   1.00
C135   C     0.68249   0.19163   0.28317   0.00000  Uiso   1.00
C136   C     0.70041   0.14168   0.21683   0.00000  Uiso   1.00
C137   C     0.98415   0.14167   0.21687   0.00000  Uiso   1.00
C138   C     0.83331   0.08737   0.25003   0.00000  Uiso   1.00
C139   C     0.85925   0.16690   0.14984   0.00000  Uiso   1.00
C140   C     0.93493   0.16474   0.00863   0.00000  Uiso   1.00
C141   C     0.87364   0.16485   0.09260   0.00000  Uiso   1.00
C142   C     0.74413   0.14306   0.43200   0.00000  Uiso   1.00
C143   C     0.72992   0.13574   0.48556   0.00000  Uiso   1.00
C144   C     0.76384   0.13821   0.01352   0.00000  Uiso   1.00
Cu145  Cu    0.78645   0.16666   0.25000   0.00000  Uiso   1.00
Cu146  Cu    0.88022   0.16667   0.25000   0.00000  Uiso   1.00
H147   H     0.95048   0.17724   0.08086   0.00000  Uiso   1.00
H148   H     0.90778   0.03735   0.25442   0.00000  Uiso   1.00
H149   H     0.75865   0.03728   0.24641   0.00000  Uiso   1.00
H150   H     0.75863   0.29603   0.24652   0.00000  Uiso   1.00
H151   H     0.94046   0.21177   0.30965   0.00000  Uiso   1.00
H152   H     0.69396   0.21162   0.30977   0.00000  Uiso   1.00
H153   H     0.72623   0.12162   0.19027   0.00000  Uiso   1.00
H154   H     0.97266   0.12160   0.19036   0.00000  Uiso   1.00
H155   H     0.95238   0.13719   0.41158   0.00000  Uiso   1.00
H156   H     0.97223   0.16967   0.48546   0.00000  Uiso   1.00
H157   H     0.80020   0.15562   0.09163   0.00000  Uiso   1.00
H158   H     0.71629   0.14486   0.41193   0.00000  Uiso   1.00
H159   H     0.74982   0.13467   0.05526   0.00000  Uiso   1.00
H160   H     0.69225   0.12949   0.00625   0.00000  Uiso   1.00
H161   H     0.90780   0.29607   0.25441   0.00000  Uiso   1.00
N162   N     0.71598   0.16666   0.24998   0.00000  Uiso   1.00
N163   N     0.95069   0.16669   0.24999   0.00000  Uiso   1.00
O164   O     0.79375   0.22678   0.25000   0.00000  Uiso   1.00
O165   O     0.87294   0.22679   0.25000   0.00000  Uiso   1.00
O166   O     0.77441   0.16665   0.32549   0.00000  Uiso   1.00
O167   O     0.85360   0.16666   0.32549   0.00000  Uiso   1.00
O168   O     0.79373   0.10654   0.24999   0.00000  Uiso   1.00
O169   O     0.87292   0.10655   0.24999   0.00000  Uiso   1.00
O170   O     0.81306   0.16667   0.17451   0.00000  Uiso   1.00
O171   O     0.89225   0.16668   0.17451   0.00000  Uiso   1.00
N172   N     0.89355   0.10365   0.36350   0.00000  Uiso   1.00
H173   H     0.91777   0.11854   0.33198   0.00000  Uiso   1.00
H174   H     0.86344   0.09279   0.35276   0.00000  Uiso   1.00
C175   C     0.16664   0.57930   0.25014   0.00000  Uiso   1.00
C176   C     0.14733   0.47678   0.48732   0.00000  Uiso   1.00
C177   C     0.16251   0.47423   0.43207   0.00000  Uiso   1.00
C178   C     0.18311   0.48407   0.01368   0.00000  Uiso   1.00
C179   C     0.23297   0.48658   0.48441   0.00000  Uiso   1.00
C180   C     0.24732   0.47483   0.43205   0.00000  Uiso   1.00
C181   C     0.21236   0.46477   0.40714   0.00000  Uiso   1.00
C182   C     0.17093   0.49033   0.06781   0.00000  Uiso   1.00
C183   C     0.25563   0.50312   0.06263   0.00000  Uiso   1.00
C184   C     0.12714   0.48085   0.40473   0.00000  Uiso   1.00
C185   C     0.20843   0.64541   0.25261   0.00000  Uiso   1.00
C186   C     0.14114   0.49390   0.34922   0.00000  Uiso   1.00
C187   C     0.20842   0.35465   0.25260   0.00000  Uiso   1.00
C188   C     0.16659   0.37609   0.25029   0.00000  Uiso   1.00
C189   C     0.12469   0.35462   0.24821   0.00000  Uiso   1.00
C190   C     0.12469   0.64538   0.24826   0.00000  Uiso   1.00
C191   C     0.16659   0.62393   0.25035   0.00000  Uiso   1.00
C192   C     0.29962   0.52507   0.28306   0.00000  Uiso   1.00
C193   C     0.01583   0.52496   0.28317   0.00000  Uiso   1.00
C194   C     0.03374   0.47501   0.21683   0.00000  Uiso   1.00
C195   C     0.31749   0.47500   0.21687   0.00000  Uiso   1.00
C196   C     0.16665   0.42070   0.25003   0.00000  Uiso   1.00
C197   C     0.19259   0.50023   0.14984   0.00000  Uiso   1.00
C198   C     0.26827   0.49808   0.00863   0.00000  Uiso   1.00
C199   C     0.20697   0.49818   0.09260   0.00000  Uiso   1.00
C200   C     0.07746   0.47639   0.43200   0.00000  Uiso   1.00
C201   C     0.06325   0.46908   0.48556   0.00000  Uiso   1.00
C202   C     0.09718   0.47155   0.01352   0.00000  Uiso   1.00
Cu203  Cu    0.11978   0.49999   0.25000   0.00000  Uiso   1.00
Cu204  Cu    0.21355   0.50001   0.25000   0.00000  Uiso   1.00
H205   H     0.28382   0.51057   0.08086   0.00000  Uiso   1.00
H206   H     0.24112   0.37069   0.25442   0.00000  Uiso   1.00
H207   H     0.09199   0.37062   0.24641   0.00000  Uiso   1.00
H208   H     0.09197   0.62936   0.24652   0.00000  Uiso   1.00
H209   H     0.27379   0.54511   0.30965   0.00000  Uiso   1.00
H210   H     0.02729   0.54495   0.30977   0.00000  Uiso   1.00
H211   H     0.05956   0.45496   0.19027   0.00000  Uiso   1.00
H212   H     0.30599   0.45494   0.19036   0.00000  Uiso   1.00
H213   H     0.28572   0.47052   0.41158   0.00000  Uiso   1.00
H214   H     0.30557   0.50301   0.48546   0.00000  Uiso   1.00
H215   H     0.13354   0.48895   0.09163   0.00000  Uiso   1.00
H216   H     0.04963   0.47819   0.41193   0.00000  Uiso   1.00
H217   H     0.08315   0.46800   0.05526   0.00000  Uiso   1.00
H218   H     0.02558   0.46282   0.00625   0.00000  Uiso   1.00
H219   H     0.24114   0.62941   0.25441   0.00000  Uiso   1.00
N220   N     0.04931   0.49999   0.24998   0.00000  Uiso   1.00
N221   N     0.28402   0.50002   0.24999   0.00000  Uiso   1.00
O222   O     0.12708   0.56011   0.25000   0.00000  Uiso   1.00
O223   O     0.20627   0.56012   0.25000   0.00000  Uiso   1.00
O224   O     0.10775   0.49998   0.32549   0.00000  Uiso   1.00
O225   O     0.18694   0.49999   0.32549   0.00000  Uiso   1.00
O226   O     0.12706   0.43988   0.24999   0.00000  Uiso   1.00
O227   O     0.20625   0.43989   0.24999   0.00000  Uiso   1.00
O228   O     0.14640   0.50001   0.17451   0.00000  Uiso   1.00
O229   O     0.22559   0.50002   0.17451   0.00000  Uiso   1.00
N230   N     0.22688   0.43699   0.36350   0.00000  Uiso   1.00
H231   H     0.25111   0.45187   0.33198   0.00000  Uiso   1.00
H232   H     0.19678   0.42613   0.35276   0.00000  Uiso   1.00
C233   C     0.49998   0.57930   0.25014   0.00000  Uiso   1.00
C234   C     0.48067   0.47678   0.48732   0.00000  Uiso   1.00
C235   C     0.49584   0.47423   0.43207   0.00000  Uiso   1.00
C236   C     0.51645   0.48407   0.01368   0.00000  Uiso   1.00
C237   C     0.56630   0.48658   0.48441   0.00000  Uiso   1.00
C238   C     0.58065   0.47483   0.43205   0.00000  Uiso   1.00
C239   C     0.54569   0.46477   0.40714   0.00000  Uiso   1.00
C240   C     0.50426   0.49033   0.06781   0.00000  Uiso   1.00
C241   C     0.58897   0.50312   0.06263   0.00000  Uiso   1.00
C242   C     0.46047   0.48085   0.40473   0.00000  Uiso   1.00
C243   C     0.54176   0.64541   0.25261   0.00000  Uiso   1.00
C244   C     0.47447   0.49390   0.34922   0.00000  Uiso   1.00
C245   C     0.54176   0.35465   0.25260   0.00000  Uiso   1.00
C246   C     0.49992   0.37609   0.25029   0.00000  Uiso   1.00
C247   C     0.45803   0.35462   0.24821   0.00000  Uiso   1.00
C248   C     0.45802   0.64538   0.24826   0.00000  Uiso   1.00
C249   C     0.49992   0.62393   0.25035   0.00000  Uiso   1.00
C250   C     0.63295   0.52507   0.28306   0.00000  Uiso   1.00
C251   C     0.34916   0.52496   0.28317   0.00000  Uiso   1.00
C252   C     0.36708   0.47501   0.21683   0.00000  Uiso   1.00
C253   C     0.65082   0.47500   0.21687   0.00000  Uiso   1.00
C254   C     0.49998   0.42070   0.25003   0.00000  Uiso   1.00
C255   C     0.52592   0.50023   0.14984   0.00000  Uiso   1.00
C256   C     0.60160   0.49808   0.00863   0.00000  Uiso   1.00
C257   C     0.54030   0.49818   0.09260   0.00000  Uiso   1.00
C258   C     0.41080   0.47639   0.43200   0.00000  Uiso   1.00
C259   C     0.39659   0.46908   0.48556   0.00000  Uiso   1.00
C260   C     0.43051   0.47155   0.01352   0.00000  Uiso   1.00
Cu261  Cu    0.45311   0.49999   0.25000   0.00000  Uiso   1.00
Cu262  Cu    0.54689   0.50001   0.25000   0.00000  Uiso   1.00
H263   H     0.61715   0.51057   0.08086   0.00000  Uiso   1.00
H264   H     0.57445   0.37069   0.25442   0.00000  Uiso   1.00
H265   H     0.42532   0.37062   0.24641   0.00000  Uiso   1.00
H266   H     0.42530   0.62936   0.24652   0.00000  Uiso   1.00
H267   H     0.60712   0.54511   0.30965   0.00000  Uiso   1.00
H268   H     0.36063   0.54495   0.30977   0.00000  Uiso   1.00
H269   H     0.39290   0.45496   0.19027   0.00000  Uiso   1.00
H270   H     0.63933   0.45494   0.19036   0.00000  Uiso   1.00
H271   H     0.61905   0.47052   0.41158   0.00000  Uiso   1.00
H272   H     0.63890   0.50301   0.48546   0.00000  Uiso   1.00
H273   H     0.46687   0.48895   0.09163   0.00000  Uiso   1.00
H274   H     0.38296   0.47819   0.41193   0.00000  Uiso   1.00
H275   H     0.41649   0.46800   0.05526   0.00000  Uiso   1.00
H276   H     0.35891   0.46282   0.00625   0.00000  Uiso   1.00
H277   H     0.57447   0.62941   0.25441   0.00000  Uiso   1.00
N278   N     0.38265   0.49999   0.24998   0.00000  Uiso   1.00
N279   N     0.61735   0.50002   0.24999   0.00000  Uiso   1.00
O280   O     0.46042   0.56011   0.25000   0.00000  Uiso   1.00
O281   O     0.53961   0.56012   0.25000   0.00000  Uiso   1.00
O282   O     0.44108   0.49998   0.32549   0.00000  Uiso   1.00
O283   O     0.52027   0.49999   0.32549   0.00000  Uiso   1.00
O284   O     0.46039   0.43988   0.24999   0.00000  Uiso   1.00
O285   O     0.53958   0.43989   0.24999   0.00000  Uiso   1.00
O286   O     0.47973   0.50001   0.17451   0.00000  Uiso   1.00
O287   O     0.55892   0.50002   0.17451   0.00000  Uiso   1.00
N288   N     0.56021   0.43699   0.36350   0.00000  Uiso   1.00
H289   H     0.58444   0.45187   0.33198   0.00000  Uiso   1.00
H290   H     0.53011   0.42613   0.35276   0.00000  Uiso   1.00
C291   C     0.83331   0.57930   0.25014   0.00000  Uiso   1.00
C292   C     0.81400   0.47678   0.48732   0.00000  Uiso   1.00
C293   C     0.82918   0.47423   0.43207   0.00000  Uiso   1.00
C294   C     0.84978   0.48407   0.01368   0.00000  Uiso   1.00
C295   C     0.89964   0.48658   0.48441   0.00000  Uiso   1.00
C296   C     0.91399   0.47483   0.43205   0.00000  Uiso   1.00
C297   C     0.87902   0.46477   0.40714   0.00000  Uiso   1.00
C298   C     0.83760   0.49033   0.06781   0.00000  Uiso   1.00
C299   C     0.92230   0.50312   0.06263   0.00000  Uiso   1.00
C300   C     0.79380   0.48085   0.40473   0.00000  Uiso   1.00
C301   C     0.87510   0.64541   0.25261   0.00000  Uiso   1.00
C302   C     0.80781   0.49390   0.34922   0.00000  Uiso   1.00
C303   C     0.87509   0.35465   0.25260   0.00000  Uiso   1.00
C304   C     0.83325   0.37609   0.25029   0.00000  Uiso   1.00
C305   C     0.79136   0.35462   0.24821   0.00000  Uiso   1.00
C306   C     0.79136   0.64538   0.24826   0.00000  Uiso   1.00
C307   C     0.83325   0.62393   0.25035   0.00000  Uiso   1.00
C308   C     0.96628   0.52507   0.28306   0.00000  Uiso   1.00
C309   C     0.68249   0.52496   0.28317   0.00000  Uiso   1.00
C310   C     0.70041   0.47501   0.21683   0.00000  Uiso   1.00
C311   C     0.98415   0.47500   0.21687   0.00000  Uiso   1.00
C312   C     0.83331   0.42070   0.25003   0.00000  Uiso   1.00
C313   C     0.85925   0.50023   0.14984   0.00000  Uiso   1.00
C314   C     0.93493   0.49808   0.00863   0.00000  Uiso   1.00
C315   C     0.87364   0.49818   0.09260   0.00000  Uiso   1.00
C316   C     0.74413   0.47639   0.43200   0.00000  Uiso   1.00
C317   C     0.72992   0.46908   0.48556   0.00000  Uiso   1.00
C318   C     0.76384   0.47155   0.01352   0.00000  Uiso   1.00
Cu319  Cu    0.78645   0.49999   0.25000   0.00000  Uiso   1.00
Cu320  Cu    0.88022   0.50001   0.25000   0.00000  Uiso   1.00
H321   H     0.95048   0.51057   0.08086   0.00000  Uiso   1.00
H322   H     0.90778   0.37069   0.25442   0.00000  Uiso   1.00
H323   H     0.75865   0.37062   0.24641   0.00000  Uiso   1.00
H324   H     0.75863   0.62936   0.24652   0.00000  Uiso   1.00
H325   H     0.94046   0.54511   0.30965   0.00000  Uiso   1.00
H326   H     0.69396   0.54495   0.30977   0.00000  Uiso   1.00
H327   H     0.72623   0.45496   0.19027   0.00000  Uiso   1.00
H328   H     0.97266   0.45494   0.19036   0.00000  Uiso   1.00
H329   H     0.95238   0.47052   0.41158   0.00000  Uiso   1.00
H330   H     0.97223   0.50301   0.48546   0.00000  Uiso   1.00
H331   H     0.80020   0.48895   0.09163   0.00000  Uiso   1.00
H332   H     0.71629   0.47819   0.41193   0.00000  Uiso   1.00
H333   H     0.74982   0.46800   0.05526   0.00000  Uiso   1.00
H334   H     0.69225   0.46282   0.00625   0.00000  Uiso   1.00
H335   H     0.90780   0.62941   0.25441   0.00000  Uiso   1.00
N336   N     0.71598   0.49999   0.24998   0.00000  Uiso   1.00
N337   N     0.95069   0.50002   0.24999   0.00000  Uiso   1.00
O338   O     0.79375   0.56011   0.25000   0.00000  Uiso   1.00
O339   O     0.87294   0.56012   0.25000   0.00000  Uiso   1.00
O340   O     0.77441   0.49998   0.32549   0.00000  Uiso   1.00
O341   O     0.85360   0.49999   0.32549   0.00000  Uiso   1.00
O342   O     0.79373   0.43988   0.24999   0.00000  Uiso   1.00
O343   O     0.87292   0.43989   0.24999   0.00000  Uiso   1.00
O344   O     0.81306   0.50001   0.17451   0.00000  Uiso   1.00
O345   O     0.89225   0.50002   0.17451   0.00000  Uiso   1.00
N346   N     0.89355   0.43699   0.36350   0.00000  Uiso   1.00
H347   H     0.91777   0.45187   0.33198   0.00000  Uiso   1.00
H348   H     0.86344   0.42613   0.35276   0.00000  Uiso   1.00
C349   C     0.16664   0.91263   0.25014   0.00000  Uiso   1.00
C350   C     0.14733   0.81011   0.48732   0.00000  Uiso   1.00
C351   C     0.16251   0.80756   0.43207   0.00000  Uiso   1.00
C352   C     0.18311   0.81741   0.01368   0.00000  Uiso   1.00
C353   C     0.23297   0.81991   0.48441   0.00000  Uiso   1.00
C354   C     0.24732   0.80817   0.43205   0.00000  Uiso   1.00
C355   C     0.21236   0.79810   0.40714   0.00000  Uiso   1.00
C356   C     0.17093   0.82366   0.06781   0.00000  Uiso   1.00
C357   C     0.25563   0.83645   0.06263   0.00000  Uiso   1.00
C358   C     0.12714   0.81418   0.40473   0.00000  Uiso   1.00
C359   C     0.20843   0.97874   0.25261   0.00000  Uiso   1.00
C360   C     0.14114   0.82723   0.34922   0.00000  Uiso   1.00
C361   C     0.20842   0.68799   0.25260   0.00000  Uiso   1.00
C362   C     0.16659   0.70942   0.25029   0.00000  Uiso   1.00
C363   C     0.12469   0.68795   0.24821   0.00000  Uiso   1.00
C364   C     0.12469   0.97871   0.24826   0.00000  Uiso   1.00
C365   C     0.16659   0.95726   0.25035   0.00000  Uiso   1.00
C366   C     0.29962   0.85840   0.28306   0.00000  Uiso   1.00
C367   C     0.01583   0.85829   0.28317   0.00000  Uiso   1.00
C368   C     0.03374   0.80835   0.21683   0.00000  Uiso   1.00
C369   C     0.31749   0.80833   0.21687   0.00000  Uiso   1.00
C370   C     0.16665   0.75404   0.25003   0.00000  Uiso   1.00
C371   C     0.19259   0.83357   0.14984   0.00000  Uiso   1.00
C372   C     0.26827   0.83141   0.00863   0.00000  Uiso   1.00
C373   C     0.20697   0.83152   0.09260   0.00000  Uiso   1.00
C374   C     0.07746   0.80972   0.43200   0.00000  Uiso   1.00
C375   C     0.06325   0.80241   0.48556   0.00000  Uiso   1.00
C376   C     0.09718   0.80488   0.01352   0.00000  Uiso   1.00
Cu377  Cu    0.11978   0.83333   0.25000   0.00000  Uiso   1.00
Cu378  Cu    0.21355   0.83334   0.25000   0.00000  Uiso   1.00
H379   H     0.28382   0.84390   0.08086   0.00000  Uiso   1.00
H380   H     0.24112   0.70402   0.25442   0.00000  Uiso   1.00
H381   H     0.09199   0.70395   0.24641   0.00000  Uiso   1.00
H382   H     0.09197   0.96269   0.24652   0.00000  Uiso   1.00
H383   H     0.27379   0.87844   0.30965   0.00000  Uiso   1.00
H384   H     0.02729   0.87828   0.30977   0.00000  Uiso   1.00
H385   H     0.05956   0.78829   0.19027   0.00000  Uiso   1.00
H386   H     0.30599   0.78827   0.19036   0.00000  Uiso   1.00
H387   H     0.28572   0.80385   0.41158   0.00000  Uiso   1.00
H388   H     0.30557   0.83634   0.48546   0.00000  Uiso   1.00
H389   H     0.13354   0.82229   0.09163   0.00000  Uiso   1.00
H390   H     0.04963   0.81152   0.41193   0.00000  Uiso   1.00
H391   H     0.08315   0.80134   0.05526   0.00000  Uiso   1.00
H392   H     0.02558   0.79615   0.00625   0.00000  Uiso   1.00
H393   H     0.24114   0.96274   0.25441   0.00000  Uiso   1.00
N394   N     0.04931   0.83332   0.24998   0.00000  Uiso   1.00
N395   N     0.28402   0.83335   0.24999   0.00000  Uiso   1.00
O396   O     0.12708   0.89345   0.25000   0.00000  Uiso   1.00
O397   O     0.20627   0.89346   0.25000   0.00000  Uiso   1.00
O398   O     0.10775   0.83332   0.32549   0.00000  Uiso   1.00
O399   O     0.18694   0.83333   0.32549   0.00000  Uiso   1.00
O400   O     0.12706   0.77321   0.24999   0.00000  Uiso   1.00
O401   O     0.20625   0.77322   0.24999   0.00000  Uiso   1.00
O402   O     0.14640   0.83334   0.17451   0.00000  Uiso   1.00
O403   O     0.22559   0.83335   0.17451   0.00000  Uiso   1.00
N404   N     0.22688   0.77032   0.36350   0.00000  Uiso   1.00
H405   H     0.25111   0.78520   0.33198   0.00000  Uiso   1.00
H406   H     0.19678   0.75946   0.35276   0.00000  Uiso   1.00
C407   C     0.49998   0.91263   0.25014   0.00000  Uiso   1.00
C408   C     0.48067   0.81011   0.48732   0.00000  Uiso   1.00
C409   C     0.49584   0.80756   0.43207   0.00000  Uiso   1.00
C410   C     0.51645   0.81741   0.01368   0.00000  Uiso   1.00
C411   C     0.56630   0.81991   0.48441   0.00000  Uiso   1.00
C412   C     0.58065   0.80817   0.43205   0.00000  Uiso   1.00
C413   C     0.54569   0.79810   0.40714   0.00000  Uiso   1.00
C414   C     0.50426   0.82366   0.06781   0.00000  Uiso   1.00
C415   C     0.58897   0.83645   0.06263   0.00000  Uiso   1.00
C416   C     0.46047   0.81418   0.40473   0.00000  Uiso   1.00
C417   C     0.54176   0.97874   0.25261   0.00000  Uiso   1.00
C418   C     0.47447   0.82723   0.34922   0.00000  Uiso   1.00
C419   C     0.54176   0.68799   0.25260   0.00000  Uiso   1.00
C420   C     0.49992   0.70942   0.25029   0.00000  Uiso   1.00
C421   C     0.45803   0.68795   0.24821   0.00000  Uiso   1.00
C422   C     0.45802   0.97871   0.24826   0.00000  Uiso   1.00
C423   C     0.49992   0.95726   0.25035   0.00000  Uiso   1.00
C424   C     0.63295   0.85840   0.28306   0.00000  Uiso   1.00
C425   C     0.34916   0.85829   0.28317   0.00000  Uiso   1.00
C426   C     0.36708   0.80835   0.21683   0.00000  Uiso   1.00
C427   C     0.65082   0.80833   0.21687   0.00000  Uiso   1.00
C428   C     0.49998   0.75404   0.25003   0.00000  Uiso   1.00
C429   C     0.52592   0.83357   0.14984   0.00000  Uiso   1.00
C430   C     0.60160   0.83141   0.00863   0.00000  Uiso   1.00
C431   C     0.54030   0.83152   0.09260   0.00000  Uiso   1.00
C432   C     0.41080   0.80972   0.43200   0.00000  Uiso   1.00
C433   C     0.39659   0.80241   0.48556   0.00000  Uiso   1.00
C434   C     0.43051   0.80488   0.01352   0.00000  Uiso   1.00
Cu435  Cu    0.45311   0.83333   0.25000   0.00000  Uiso   1.00
Cu436  Cu    0.54689   0.83334   0.25000   0.00000  Uiso   1.00
H437   H     0.61715   0.84390   0.08086   0.00000  Uiso   1.00
H438   H     0.57445   0.70402   0.25442   0.00000  Uiso   1.00
H439   H     0.42532   0.70395   0.24641   0.00000  Uiso   1.00
H440   H     0.42530   0.96269   0.24652   0.00000  Uiso   1.00
H441   H     0.60712   0.87844   0.30965   0.00000  Uiso   1.00
H442   H     0.36063   0.87828   0.30977   0.00000  Uiso   1.00
H443   H     0.39290   0.78829   0.19027   0.00000  Uiso   1.00
H444   H     0.63933   0.78827   0.19036   0.00000  Uiso   1.00
H445   H     0.61905   0.80385   0.41158   0.00000  Uiso   1.00
H446   H     0.63890   0.83634   0.48546   0.00000  Uiso   1.00
H447   H     0.46687   0.82229   0.09163   0.00000  Uiso   1.00
H448   H     0.38296   0.81152   0.41193   0.00000  Uiso   1.00
H449   H     0.41649   0.80134   0.05526   0.00000  Uiso   1.00
H450   H     0.35891   0.79615   0.00625   0.00000  Uiso   1.00
H451   H     0.57447   0.96274   0.25441   0.00000  Uiso   1.00
N452   N     0.38265   0.83332   0.24998   0.00000  Uiso   1.00
N453   N     0.61735   0.83335   0.24999   0.00000  Uiso   1.00
O454   O     0.46042   0.89345   0.25000   0.00000  Uiso   1.00
O455   O     0.53961   0.89346   0.25000   0.00000  Uiso   1.00
O456   O     0.44108   0.83332   0.32549   0.00000  Uiso   1.00
O457   O     0.52027   0.83333   0.32549   0.00000  Uiso   1.00
O458   O     0.46039   0.77321   0.24999   0.00000  Uiso   1.00
O459   O     0.53958   0.77322   0.24999   0.00000  Uiso   1.00
O460   O     0.47973   0.83334   0.17451   0.00000  Uiso   1.00
O461   O     0.55892   0.83335   0.17451   0.00000  Uiso   1.00
N462   N     0.56021   0.77032   0.36350   0.00000  Uiso   1.00
H463   H     0.58444   0.78520   0.33198   0.00000  Uiso   1.00
H464   H     0.53011   0.75946   0.35276   0.00000  Uiso   1.00
C465   C     0.83331   0.91263   0.25014   0.00000  Uiso   1.00
C466   C     0.81400   0.81011   0.48732   0.00000  Uiso   1.00
C467   C     0.82918   0.80756   0.43207   0.00000  Uiso   1.00
C468   C     0.84978   0.81741   0.01368   0.00000  Uiso   1.00
C469   C     0.89964   0.81991   0.48441   0.00000  Uiso   1.00
C470   C     0.91399   0.80817   0.43205   0.00000  Uiso   1.00
C471   C     0.87902   0.79810   0.40714   0.00000  Uiso   1.00
C472   C     0.83760   0.82366   0.06781   0.00000  Uiso   1.00
C473   C     0.92230   0.83645   0.06263   0.00000  Uiso   1.00
C474   C     0.79380   0.81418   0.40473   0.00000  Uiso   1.00
C475   C     0.87510   0.97874   0.25261   0.00000  Uiso   1.00
C476   C     0.80781   0.82723   0.34922   0.00000  Uiso   1.00
C477   C     0.87509   0.68799   0.25260   0.00000  Uiso   1.00
C478   C     0.83325   0.70942   0.25029   0.00000  Uiso   1.00
C479   C     0.79136   0.68795   0.24821   0.00000  Uiso   1.00
C480   C     0.79136   0.97871   0.24826   0.00000  Uiso   1.00
C481   C     0.83325   0.95726   0.25035   0.00000  Uiso   1.00
C482   C     0.96628   0.85840   0.28306   0.00000  Uiso   1.00
C483   C     0.68249   0.85829   0.28317   0.00000  Uiso   1.00
C484   C     0.70041   0.80835   0.21683   0.00000  Uiso   1.00
C485   C     0.98415   0.80833   0.21687   0.00000  Uiso   1.00
C486   C     0.83331   0.75404   0.25003   0.00000  Uiso   1.00
C487   C     0.85925   0.83357   0.14984   0.00000  Uiso   1.00
C488   C     0.93493   0.83141   0.00863   0.00000  Uiso   1.00
C489   C     0.87364   0.83152   0.09260   0.00000  Uiso   1.00
C490   C     0.74413   0.80972   0.43200   0.00000  Uiso   1.00
C491   C     0.72992   0.80241   0.48556   0.00000  Uiso   1.00
C492   C     0.76384   0.80488   0.01352   0.00000  Uiso   1.00
Cu493  Cu    0.78645   0.83333   0.25000   0.00000  Uiso   1.00
Cu494  Cu    0.88022   0.83334   0.25000   0.00000  Uiso   1.00
H495   H     0.95048   0.84390   0.08086   0.00000  Uiso   1.00
H496   H     0.90778   0.70402   0.25442   0.00000  Uiso   1.00
H497   H     0.75865   0.70395   0.24641   0.00000  Uiso   1.00
H498   H     0.75863   0.96269   0.24652   0.00000  Uiso   1.00
H499   H     0.94046   0.87844   0.30965   0.00000  Uiso   1.00
H500   H     0.69396   0.87828   0.30977   0.00000  Uiso   1.00
H501   H     0.72623   0.78829   0.19027   0.00000  Uiso   1.00
H502   H     0.97266   0.78827   0.19036   0.00000  Uiso   1.00
H503   H     0.95238   0.80385   0.41158   0.00000  Uiso   1.00
H504   H     0.97223   0.83634   0.48546   0.00000  Uiso   1.00
H505   H     0.80020   0.82229   0.09163   0.00000  Uiso   1.00
H506   H     0.71629   0.81152   0.41193   0.00000  Uiso   1.00
H507   H     0.74982   0.80134   0.05526   0.00000  Uiso   1.00
H508   H     0.69225   0.79615   0.00625   0.00000  Uiso   1.00
H509   H     0.90780   0.96274   0.25441   0.00000  Uiso   1.00
N510   N     0.71598   0.83332   0.24998   0.00000  Uiso   1.00
N511   N     0.95069   0.83335   0.24999   0.00000  Uiso   1.00
O512   O     0.79375   0.89345   0.25000   0.00000  Uiso   1.00
O513   O     0.87294   0.89346   0.25000   0.00000  Uiso   1.00
O514   O     0.77441   0.83332   0.32549   0.00000  Uiso   1.00
O515   O     0.85360   0.83333   0.32549   0.00000  Uiso   1.00
O516   O     0.79373   0.77321   0.24999   0.00000  Uiso   1.00
O517   O     0.87292   0.77322   0.24999   0.00000  Uiso   1.00
O518   O     0.81306   0.83334   0.17451   0.00000  Uiso   1.00
O519   O     0.89225   0.83335   0.17451   0.00000  Uiso   1.00
N520   N     0.89355   0.77032   0.36350   0.00000  Uiso   1.00
H521   H     0.91777   0.78520   0.33198   0.00000  Uiso   1.00
H522   H     0.86344   0.75946   0.35276   0.00000  Uiso   1.00
C523   C     0.16664   0.24596   0.75014   0.00000  Uiso   1.00
C524   C     0.14733   0.14344   0.98732   0.00000  Uiso   1.00
C525   C     0.16251   0.14090   0.93207   0.00000  Uiso   1.00
C526   C     0.18311   0.15074   0.51368   0.00000  Uiso   1.00
C527   C     0.23297   0.15324   0.98441   0.00000  Uiso   1.00
C528   C     0.24732   0.14150   0.93205   0.00000  Uiso   1.00
C529   C     0.21236   0.13144   0.90714   0.00000  Uiso   1.00
C530   C     0.17093   0.15700   0.56781   0.00000  Uiso   1.00
C531   C     0.25563   0.16979   0.56263   0.00000  Uiso   1.00
C532   C     0.12714   0.14752   0.90473   0.00000  Uiso   1.00
C533   C     0.20843   0.31207   0.75261   0.00000  Uiso   1.00
C534   C     0.14114   0.16057   0.84922   0.00000  Uiso   1.00
C535   C     0.20842   0.02132   0.75260   0.00000  Uiso   1.00
C536   C     0.16659   0.04276   0.75029   0.00000  Uiso   1.00
C537   C     0.12469   0.02128   0.74821   0.00000  Uiso   1.00
C538   C     0.12469   0.31204   0.74826   0.00000  Uiso   1.00
C539   C     0.16659   0.29060   0.75035   0.00000  Uiso   1.00
C540   C     0.29962   0.19174   0.78306   0.00000  Uiso   1.00
C541   C     0.01583   0.19163   0.78317   0.00000  Uiso   1.00
C542   C     0.03374   0.14168   0.71683   0.00000  Uiso   1.00
C543   C     0.31749   0.14167   0.71687   0.00000  Uiso   1.00
C544   C     0.16665   0.08737   0.75003   0.00000  Uiso   1.00
C545   C     0.19259   0.16690   0.64984   0.00000  Uiso   1.00
C546   C     0.26827   0.16474   0.50863   0.00000  Uiso   1.00
C547   C     0.20697   0.16485   0.59260   0.00000  Uiso   1.00
C548   C     0.07746   0.14306   0.93200   0.00000  Uiso   1.00
C549   C     0.06325   0.13574   0.98556   0.00000  Uiso   1.00
C550   C     0.09718   0.13821   0.51352   0.00000  Uiso   1.00
Cu551  Cu    0.11978   0.16666   0.75000   0.00000  Uiso   1.00
Cu552  Cu    0.21355   0.16667   0.75000   0.00000  Uiso   1.00
H553   H     0.28382   0.17724   0.58086   0.00000  Uiso   1.00
H554   H     0.24112   0.03735   0.75442   0.00000  Uiso   1.00
H555   H     0.09199   0.03728   0.74641   0.00000  Uiso   1.00
H556   H     0.09197   0.29603   0.74652   0.00000  Uiso   1.00
H557   H     0.27379   0.21177   0.80965   0.00000  Uiso   1.00
H558   H     0.02729   0.21162   0.80977   0.00000  Uiso   1.00
H559   H     0.05956   0.12162   0.69027   0.00000  Uiso   1.00
H560   H     0.30599   0.12160   0.69036   0.00000  Uiso   1.00
H561   H     0.28572   0.13719   0.91158   0.00000  Uiso   1.00
H562   H     0.30557   0.16967   0.98546   0.00000  Uiso   1.00
H563   H     0.13354   0.15562   0.59163   0.00000  Uiso   1.00
H564   H     0.04963   0.14486   0.91193   0.00000  Uiso   1.00
H565   H     0.08315   0.13467   0.55526   0.00000  Uiso   1.00
H566   H     0.02558   0.12949   0.50625   0.00000  Uiso   1.00
H567   H     0.24114   0.29607   0.75441   0.00000  Uiso   1.00
N568   N     0.04931   0.16666   0.74998   0.00000  Uiso   1.00
N569   N     0.28402   0.16669   0.74999   0.00000  Uiso   1.00
O570   O     0.12708   0.22678   0.75000   0.00000  Uiso   1.00
O571   O     0.20627   0.22679   0.75000   0.00000  Uiso   1.00
O572   O     0.10775   0.16665   0.82549   0.00000  Uiso   1.00
O573   O     0.18694   0.16666   0.82549   0.00000  Uiso   1.00
O574   O     0.12706   0.10654   0.74999   0.00000  Uiso   1.00
O575   O     0.20625   0.10655   0.74999   0.00000  Uiso   1.00
O576   O     0.14640   0.16667   0.67451   0.00000  Uiso   1.00
O577   O     0.22559   0.16668   0.67451   0.00000  Uiso   1.00
N578   N     0.22688   0.10365   0.86350   0.00000  Uiso   1.00
H579   H     0.25111   0.11854   0.83198   0.00000  Uiso   1.00
H580   H     0.19678   0.09279   0.85276   0.00000  Uiso   1.00
C581   C     0.49998   0.24596   0.75014   0.00000  Uiso   1.00
C582   C     0.48067   0.14344   0.98732   0.00000  Uiso   1.00
C583   C     0.49584   0.14090   0.93207   0.00000  Uiso   1.00
C584   C     0.51645   0.15074   0.51368   0.00000  Uiso   1.00
C585   C     0.56630   0.15324   0.98441   0.00000  Uiso   1.00
C586   C     0.58065   0.14150   0.93205   0.00000  Uiso   1.00
C587   C     0.54569   0.13144   0.90714   0.00000  Uiso   1.00
C588   C     0.50426   0.15700   0.56781   0.00000  Uiso   1.00
C589   C     0.58897   0.16979   0.56263   0.00000  Uiso   1.00
C590   C     0.46047   0.14752   0.90473   0.00000  Uiso   1.00
C591   C     0.54176   0.31207   0.75261   0.00000  Uiso   1.00
C592   C     0.47447   0.16057   0.84922   0.00000  Uiso   1.00
C593   C     0.54176   0.02132   0.75260   0.00000  Uiso   1.00
C594   C     0.49992   0.04276   0.75029   0.00000  Uiso   1.00
C595   C     0.45803   0.02128   0.74821   0.00000  Uiso   1.00
C596   C     0.45802   0.31204   0.74826   0.00000  Uiso   1.00
C597   C     0.49992   0.29060   0.75035   0.00000  Uiso   1.00
C598   C     0.63295   0.19174   0.78306   0.00000  Uiso   1.00
C599   C     0.34916   0.19163   0.78317   0.00000  Uiso   1.00
C600   C     0.36708   0.14168   0.71683   0.00000  Uiso   1.00
C601   C     0.65082   0.14167   0.71687   0.00000  Uiso   1.00
C602   C     0.49998   0.08737   0.75003   0.00000  Uiso   1.00
C603   C     0.52592   0.16690   0.64984   0.00000  Uiso   1.00
C604   C     0.60160   0.16474   0.50863   0.00000  Uiso   1.00
C605   C     0.54030   0.16485   0.59260   0.00000  Uiso   1.00
C606   C     0.41080   0.14306   0.93200   0.00000  Uiso   1.00
C607   C     0.39659   0.13574   0.98556   0.00000  Uiso   1.00
C608   C     0.43051   0.13821   0.51352   0.00000  Uiso   1.00
Cu609  Cu    0.45311   0.16666   0.75000   0.00000  Uiso   1.00
Cu610  Cu    0.54689   0.16667   0.75000   0.00000  Uiso   1.00
H611   H     0.61715   0.17724   0.58086   0.00000  Uiso   1.00
H612   H     0.57445   0.03735   0.75442   0.00000  Uiso   1.00
H613   H     0.42532   0.03728   0.74641   0.00000  Uiso   1.00
H614   H     0.42530   0.29603   0.74652   0.00000  Uiso   1.00
H615   H     0.60712   0.21177   0.80965   0.00000  Uiso   1.00
H616   H     0.36063   0.21162   0.80977   0.00000  Uiso   1.00
H617   H     0.39290   0.12162   0.69027   0.00000  Uiso   1.00
H618   H     0.63933   0.12160   0.69036   0.00000  Uiso   1.00
H619   H     0.61905   0.13719   0.91158   0.00000  Uiso   1.00
H620   H     0.63890   0.16967   0.98546   0.00000  Uiso   1.00
H621   H     0.46687   0.15562   0.59163   0.00000  Uiso   1.00
H622   H     0.38296   0.14486   0.91193   0.00000  Uiso   1.00
H623   H     0.41649   0.13467   0.55526   0.00000  Uiso   1.00
H624   H     0.35891   0.12949   0.50625   0.00000  Uiso   1.00
H625   H     0.57447   0.29607   0.75441   0.00000  Uiso   1.00
N626   N     0.38265   0.16666   0.74998   0.00000  Uiso   1.00
N627   N     0.61735   0.16669   0.74999   0.00000  Uiso   1.00
O628   O     0.46042   0.22678   0.75000   0.00000  Uiso   1.00
O629   O     0.53961   0.22679   0.75000   0.00000  Uiso   1.00
O630   O     0.44108   0.16665   0.82549   0.00000  Uiso   1.00
O631   O     0.52027   0.16666   0.82549   0.00000  Uiso   1.00
O632   O     0.46039   0.10654   0.74999   0.00000  Uiso   1.00
O633   O     0.53958   0.10655   0.74999   0.00000  Uiso   1.00
O634   O     0.47973   0.16667   0.67451   0.00000  Uiso   1.00
O635   O     0.55892   0.16668   0.67451   0.00000  Uiso   1.00
N636   N     0.56021   0.10365   0.86350   0.00000  Uiso   1.00
H637   H     0.58444   0.11854   0.83198   0.00000  Uiso   1.00
H638   H     0.53011   0.09279   0.85276   0.00000  Uiso   1.00
C639   C     0.83331   0.24596   0.75014   0.00000  Uiso   1.00
C640   C     0.81400   0.14344   0.98732   0.00000  Uiso   1.00
C641   C     0.82918   0.14090   0.93207   0.00000  Uiso   1.00
C642   C     0.84978   0.15074   0.51368   0.00000  Uiso   1.00
C643   C     0.89964   0.15324   0.98441   0.00000  Uiso   1.00
C644   C     0.91399   0.14150   0.93205   0.00000  Uiso   1.00
C645   C     0.87902   0.13144   0.90714   0.00000  Uiso   1.00
C646   C     0.83760   0.15700   0.56781   0.00000  Uiso   1.00
C647   C     0.92230   0.16979   0.56263   0.00000  Uiso   1.00
C648   C     0.79380   0.14752   0.90473   0.00000  Uiso   1.00
C649   C     0.87510   0.31207   0.75261   0.00000  Uiso   1.00
C650   C     0.80781   0.16057   0.84922   0.00000  Uiso   1.00
C651   C     0.87509   0.02132   0.75260   0.00000  Uiso   1.00
C652   C     0.83325   0.04276   0.75029   0.00000  Uiso   1.00
C653   C     0.79136   0.02128   0.74821   0.00000  Uiso   1.00
C654   C     0.79136   0.31204   0.74826   0.00000  Uiso   1.00
C655   C     0.83325   0.29060   0.75035   0.00000  Uiso   1.00
C656   C     0.96628   0.19174   0.78306   0.00000  Uiso   1.00
C657   C     0.68249   0.19163   0.78317   0.00000  Uiso   1.00
C658   C     0.70041   0.14168   0.71683   0.00000  Uiso   1.00
C659   C     0.98415   0.14167   0.71687   0.00000  Uiso   1.00
C660   C     0.83331   0.08737   0.75003   0.00000  Uiso   1.00
C661   C     0.85925   0.16690   0.64984   0.00000  Uiso   1.00
C662   C     0.93493   0.16474   0.50863   0.00000  Uiso   1.00
C663   C     0.87364   0.16485   0.59260   0.00000  Uiso   1.00
C664   C     0.74413   0.14306   0.93200   0.00000  Uiso   1.00
C665   C     0.72992   0.13574   0.98556   0.00000  Uiso   1.00
C666   C     0.76384   0.13821   0.51352   0.00000  Uiso   1.00
Cu667  Cu    0.78645   0.16666   0.75000   0.00000  Uiso   1.00
Cu668  Cu    0.88022   0.16667   0.75000   0.00000  Uiso   1.00
H669   H     0.95048   0.17724   0.58086   0.00000  Uiso   1.00
H670   H     0.90778   0.03735   0.75442   0.00000  Uiso   1.00
H671   H     0.75865   0.03728   0.74641   0.00000  Uiso   1.00
H672   H     0.75863   0.29603   0.74652   0.00000  Uiso   1.00
H673   H     0.94046   0.21177   0.80965   0.00000  Uiso   1.00
H674   H     0.69396   0.21162   0.80977   0.00000  Uiso   1.00
H675   H     0.72623   0.12162   0.69027   0.00000  Uiso   1.00
H676   H     0.97266   0.12160   0.69036   0.00000  Uiso   1.00
H677   H     0.95238   0.13719   0.91158   0.00000  Uiso   1.00
H678   H     0.97223   0.16967   0.98546   0.00000  Uiso   1.00
H679   H     0.80020   0.15562   0.59163   0.00000  Uiso   1.00
H680   H     0.71629   0.14486   0.91193   0.00000  Uiso   1.00
H681   H     0.74982   0.13467   0.55526   0.00000  Uiso   1.00
H682   H     0.69225   0.12949   0.50625   0.00000  Uiso   1.00
H683   H     0.90780   0.29607   0.75441   0.00000  Uiso   1.00
N684   N     0.71598   0.16666   0.74998   0.00000  Uiso   1.00
N685   N     0.95069   0.16669   0.74999   0.00000  Uiso   1.00
O686   O     0.79375   0.22678   0.75000   0.00000  Uiso   1.00
O687   O     0.87294   0.22679   0.75000   0.00000  Uiso   1.00
O688   O     0.77441   0.16665   0.82549   0.00000  Uiso   1.00
O689   O     0.85360   0.16666   0.82549   0.00000  Uiso   1.00
O690   O     0.79373   0.10654   0.74999   0.00000  Uiso   1.00
O691   O     0.87292   0.10655   0.74999   0.00000  Uiso   1.00
O692   O     0.81306   0.16667   0.67451   0.00000  Uiso   1.00
O693   O     0.89225   0.16668   0.67451   0.00000  Uiso   1.00
N694   N     0.89355   0.10365   0.86350   0.00000  Uiso   1.00
H695   H     0.91777   0.11854   0.83198   0.00000  Uiso   1.00
H696   H     0.86344   0.09279   0.85276   0.00000  Uiso   1.00
C697   C     0.16664   0.57930   0.75014   0.00000  Uiso   1.00
C698   C     0.14733   0.47678   0.98732   0.00000  Uiso   1.00
C699   C     0.16251   0.47423   0.93207   0.00000  Uiso   1.00
C700   C     0.18311   0.48407   0.51368   0.00000  Uiso   1.00
C701   C     0.23297   0.48658   0.98441   0.00000  Uiso   1.00
C702   C     0.24732   0.47483   0.93205   0.00000  Uiso   1.00
C703   C     0.21236   0.46477   0.90714   0.00000  Uiso   1.00
C704   C     0.17093   0.49033   0.56781   0.00000  Uiso   1.00
C705   C     0.25563   0.50312   0.56263   0.00000  Uiso   1.00
C706   C     0.12714   0.48085   0.90473   0.00000  Uiso   1.00
C707   C     0.20843   0.64541   0.75261   0.00000  Uiso   1.00
C708   C     0.14114   0.49390   0.84922   0.00000  Uiso   1.00
C709   C     0.20842   0.35465   0.75260   0.00000  Uiso   1.00
C710   C     0.16659   0.37609   0.75029   0.00000  Uiso   1.00
C711   C     0.12469   0.35462   0.74821   0.00000  Uiso   1.00
C712   C     0.12469   0.64538   0.74826   0.00000  Uiso   1.00
C713   C     0.16659   0.62393   0.75035   0.00000  Uiso   1.00
C714   C     0.29962   0.52507   0.78306   0.00000  Uiso   1.00
C715   C     0.01583   0.52496   0.78317   0.00000  Uiso   1.00
C716   C     0.03374   0.47501   0.71683   0.00000  Uiso   1.00
C717   C     0.31749   0.47500   0.71687   0.00000  Uiso   1.00
C718   C     0.16665   0.42070   0.75003   0.00000  Uiso   1.00
C719   C     0.19259   0.50023   0.64984   0.00000  Uiso   1.00
C720   C     0.26827   0.49808   0.50863   0.00000  Uiso   1.00
C721   C     0.20697   0.49818   0.59260   0.00000  Uiso   1.00
C722   C     0.07746   0.47639   0.93200   0.00000  Uiso   1.00
C723   C     0.06325   0.46908   0.98556   0.00000  Uiso   1.00
C724   C     0.09718   0.47155   0.51352   0.00000  Uiso   1.00
Cu725  Cu    0.11978   0.49999   0.75000   0.00000  Uiso   1.00
Cu726  Cu    0.21355   0.50001   0.75000   0.00000  Uiso   1.00
H727   H     0.28382   0.51057   0.58086   0.00000  Uiso   1.00
H728   H     0.24112   0.37069   0.75442   0.00000  Uiso   1.00
H729   H     0.09199   0.37062   0.74641   0.00000  Uiso   1.00
H730   H     0.09197   0.62936   0.74652   0.00000  Uiso   1.00
H731   H     0.27379   0.54511   0.80965   0.00000  Uiso   1.00
H732   H     0.02729   0.54495   0.80977   0.00000  Uiso   1.00
H733   H     0.05956   0.45496   0.69027   0.00000  Uiso   1.00
H734   H     0.30599   0.45494   0.69036   0.00000  Uiso   1.00
H735   H     0.28572   0.47052   0.91158   0.00000  Uiso   1.00
H736   H     0.30557   0.50301   0.98546   0.00000  Uiso   1.00
H737   H     0.13354   0.48895   0.59163   0.00000  Uiso   1.00
H738   H     0.04963   0.47819   0.91193   0.00000  Uiso   1.00
H739   H     0.08315   0.46800   0.55526   0.00000  Uiso   1.00
H740   H     0.02558   0.46282   0.50625   0.00000  Uiso   1.00
H741   H     0.24114   0.62941   0.75441   0.00000  Uiso   1.00
N742   N     0.04931   0.49999   0.74998   0.00000  Uiso   1.00
N743   N     0.28402   0.50002   0.74999   0.00000  Uiso   1.00
O744   O     0.12708   0.56011   0.75000   0.00000  Uiso   1.00
O745   O     0.20627   0.56012   0.75000   0.00000  Uiso   1.00
O746   O     0.10775   0.49998   0.82549   0.00000  Uiso   1.00
O747   O     0.18694   0.49999   0.82549   0.00000  Uiso   1.00
O748   O     0.12706   0.43988   0.74999   0.00000  Uiso   1.00
O749   O     0.20625   0.43989   0.74999   0.00000  Uiso   1.00
O750   O     0.14640   0.50001   0.67451   0.00000  Uiso   1.00
O751   O     0.22559   0.50002   0.67451   0.00000  Uiso   1.00
N752   N     0.22688   0.43699   0.86350   0.00000  Uiso   1.00
H753   H     0.25111   0.45187   0.83198   0.00000  Uiso   1.00
H754   H     0.19678   0.42613   0.85276   0.00000  Uiso   1.00
C755   C     0.49998   0.57930   0.75014   0.00000  Uiso   1.00
C756   C     0.48067   0.47678   0.98732   0.00000  Uiso   1.00
C757   C     0.49584   0.47423   0.93207   0.00000  Uiso   1.00
C758   C     0.51645   0.48407   0.51368   0.00000  Uiso   1.00
C759   C     0.56630   0.48658   0.98441   0.00000  Uiso   1.00
C760   C     0.58065   0.47483   0.93205   0.00000  Uiso   1.00
C761   C     0.54569   0.46477   0.90714   0.00000  Uiso   1.00
C762   C     0.50426   0.49033   0.56781   0.00000  Uiso   1.00
C763   C     0.58897   0.50312   0.56263   0.00000  Uiso   1.00
C764   C     0.46047   0.48085   0.90473   0.00000  Uiso   1.00
C765   C     0.54176   0.64541   0.75261   0.00000  Uiso   1.00
C766   C     0.47447   0.49390   0.84922   0.00000  Uiso   1.00
C767   C     0.54176   0.35465   0.75260   0.00000  Uiso   1.00
C768   C     0.49992   0.37609   0.75029   0.00000  Uiso   1.00
C769   C     0.45803   0.35462   0.74821   0.00000  Uiso   1.00
C770   C     0.45802   0.64538   0.74826   0.00000  Uiso   1.00
C771   C     0.49992   0.62393   0.75035   0.00000  Uiso   1.00
C772   C     0.63295   0.52507   0.78306   0.00000  Uiso   1.00
C773   C     0.34916   0.52496   0.78317   0.00000  Uiso   1.00
C774   C     0.36708   0.47501   0.71683   0.00000  Uiso   1.00
C775   C     0.65082   0.47500   0.71687   0.00000  Uiso   1.00
C776   C     0.49998   0.42070   0.75003   0.00000  Uiso   1.00
C777   C     0.52592   0.50023   0.64984   0.00000  Uiso   1.00
C778   C     0.60160   0.49808   0.50863   0.00000  Uiso   1.00
C779   C     0.54030   0.49818   0.59260   0.00000  Uiso   1.00
C780   C     0.41080   0.47639   0.93200   0.00000  Uiso   1.00
C781   C     0.39659   0.46908   0.98556   0.00000  Uiso   1.00
C782   C     0.43051   0.47155   0.51352   0.00000  Uiso   1.00
Cu783  Cu    0.45311   0.49999   0.75000   0.00000  Uiso   1.00
Cu784  Cu    0.54689   0.50001   0.75000   0.00000  Uiso   1.00
H785   H     0.61715   0.51057   0.58086   0.00000  Uiso   1.00
H786   H     0.57445   0.37069   0.75442   0.00000  Uiso   1.00
H787   H     0.42532   0.37062   0.74641   0.00000  Uiso   1.00
H788   H     0.42530   0.62936   0.74652   0.00000  Uiso   1.00
H789   H     0.60712   0.54511   0.80965   0.00000  Uiso   1.00
H790   H     0.36063   0.54495   0.80977   0.00000  Uiso   1.00
H791   H     0.39290   0.45496   0.69027   0.00000  Uiso   1.00
H792   H     0.63933   0.45494   0.69036   0.00000  Uiso   1.00
H793   H     0.61905   0.47052   0.91158   0.00000  Uiso   1.00
H794   H     0.63890   0.50301   0.98546   0.00000  Uiso   1.00
H795   H     0.46687   0.48895   0.59163   0.00000  Uiso   1.00
H796   H     0.38296   0.47819   0.91193   0.00000  Uiso   1.00
H797   H     0.41649   0.46800   0.55526   0.00000  Uiso   1.00
H798   H     0.35891   0.46282   0.50625   0.00000  Uiso   1.00
H799   H     0.57447   0.62941   0.75441   0.00000  Uiso   1.00
N800   N     0.38265   0.49999   0.74998   0.00000  Uiso   1.00
N801   N     0.61735   0.50002   0.74999   0.00000  Uiso   1.00
O802   O     0.46042   0.56011   0.75000   0.00000  Uiso   1.00
O803   O     0.53961   0.56012   0.75000   0.00000  Uiso   1.00
O804   O     0.44108   0.49998   0.82549   0.00000  Uiso   1.00
O805   O     0.52027   0.49999   0.82549   0.00000  Uiso   1.00
O806   O     0.46039   0.43988   0.74999   0.00000  Uiso   1.00
O807   O     0.53958   0.43989   0.74999   0.00000  Uiso   1.00
O808   O     0.47973   0.50001   0.67451   0.00000  Uiso   1.00
O809   O     0.55892   0.50002   0.67451   0.00000  Uiso   1.00
N810   N     0.56021   0.43699   0.86350   0.00000  Uiso   1.00
H811   H     0.58444   0.45187   0.83198   0.00000  Uiso   1.00
H812   H     0.53011   0.42613   0.85276   0.00000  Uiso   1.00
C813   C     0.83331   0.57930   0.75014   0.00000  Uiso   1.00
C814   C     0.81400   0.47678   0.98732   0.00000  Uiso   1.00
C815   C     0.82918   0.47423   0.93207   0.00000  Uiso   1.00
C816   C     0.84978   0.48407   0.51368   0.00000  Uiso   1.00
C817   C     0.89964   0.48658   0.98441   0.00000  Uiso   1.00
C818   C     0.91399   0.47483   0.93205   0.00000  Uiso   1.00
C819   C     0.87902   0.46477   0.90714   0.00000  Uiso   1.00
C820   C     0.83760   0.49033   0.56781   0.00000  Uiso   1.00
C821   C     0.92230   0.50312   0.56263   0.00000  Uiso   1.00
C822   C     0.79380   0.48085   0.90473   0.00000  Uiso   1.00
C823   C     0.87510   0.64541   0.75261   0.00000  Uiso   1.00
C824   C     0.80781   0.49390   0.84922   0.00000  Uiso   1.00
C825   C     0.87509   0.35465   0.75260   0.00000  Uiso   1.00
C826   C     0.83325   0.37609   0.75029   0.00000  Uiso   1.00
C827   C     0.79136   0.35462   0.74821   0.00000  Uiso   1.00
C828   C     0.79136   0.64538   0.74826   0.00000  Uiso   1.00
C829   C     0.83325   0.62393   0.75035   0.00000  Uiso   1.00
C830   C     0.96628   0.52507   0.78306   0.00000  Uiso   1.00
C831   C     0.68249   0.52496   0.78317   0.00000  Uiso   1.00
C832   C     0.70041   0.47501   0.71683   0.00000  Uiso   1.00
C833   C     0.98415   0.47500   0.71687   0.00000  Uiso   1.00
C834   C     0.83331   0.42070   0.75003   0.00000  Uiso   1.00
C835   C     0.85925   0.50023   0.64984   0.00000  Uiso   1.00
C836   C     0.93493   0.49808   0.50863   0.00000  Uiso   1.00
C837   C     0.87364   0.49818   0.59260   0.00000  Uiso   1.00
C838   C     0.74413   0.47639   0.93200   0.00000  Uiso   1.00
C839   C     0.72992   0.46908   0.98556   0.00000  Uiso   1.00
C840   C     0.76384   0.47155   0.51352   0.00000  Uiso   1.00
Cu841  Cu    0.78645   0.49999   0.75000   0.00000  Uiso   1.00
Cu842  Cu    0.88022   0.50001   0.75000   0.00000  Uiso   1.00
H843   H     0.95048   0.51057   0.58086   0.00000  Uiso   1.00
H844   H     0.90778   0.37069   0.75442   0.00000  Uiso   1.00
H845   H     0.75865   0.37062   0.74641   0.00000  Uiso   1.00
H846   H     0.75863   0.62936   0.74652   0.00000  Uiso   1.00
H847   H     0.94046   0.54511   0.80965   0.00000  Uiso   1.00
H848   H     0.69396   0.54495   0.80977   0.00000  Uiso   1.00
H849   H     0.72623   0.45496   0.69027   0.00000  Uiso   1.00
H850   H     0.97266   0.45494   0.69036   0.00000  Uiso   1.00
H851   H     0.95238   0.47052   0.91158   0.00000  Uiso   1.00
H852   H     0.97223   0.50301   0.98546   0.00000  Uiso   1.00
H853   H     0.80020   0.48895   0.59163   0.00000  Uiso   1.00
H854   H     0.71629   0.47819   0.91193   0.00000  Uiso   1.00
H855   H     0.74982   0.46800   0.55526   0.00000  Uiso   1.00
H856   H     0.69225   0.46282   0.50625   0.00000  Uiso   1.00
H857   H     0.90780   0.62941   0.75441   0.00000  Uiso   1.00
N858   N     0.71598   0.49999   0.74998   0.00000  Uiso   1.00
N859   N     0.95069   0.50002   0.74999   0.00000  Uiso   1.00
O860   O     0.79375   0.56011   0.75000   0.00000  Uiso   1.00
O861   O     0.87294   0.56012   0.75000   0.00000  Uiso   1.00
O862   O     0.77441   0.49998   0.82549   0.00000  Uiso   1.00
O863   O     0.85360   0.49999   0.82549   0.00000  Uiso   1.00
O864   O     0.79373   0.43988   0.74999   0.00000  Uiso   1.00
O865   O     0.87292   0.43989   0.74999   0.00000  Uiso   1.00
O866   O     0.81306   0.50001   0.67451   0.00000  Uiso   1.00
O867   O     0.89225   0.50002   0.67451   0.00000  Uiso   1.00
N868   N     0.89355   0.43699   0.86350   0.00000  Uiso   1.00
H869   H     0.91777   0.45187   0.83198   0.00000  Uiso   1.00
H870   H     0.86344   0.42613   0.85276   0.00000  Uiso   1.00
C871   C     0.16664   0.91263   0.75014   0.00000  Uiso   1.00
C872   C     0.14733   0.81011   0.98732   0.00000  Uiso   1.00
C873   C     0.16251   0.80756   0.93207   0.00000  Uiso   1.00
C874   C     0.18311   0.81741   0.51368   0.00000  Uiso   1.00
C875   C     0.23297   0.81991   0.98441   0.00000  Uiso   1.00
C876   C     0.24732   0.80817   0.93205   0.00000  Uiso   1.00
C877   C     0.21236   0.79810   0.90714   0.00000  Uiso   1.00
C878   C     0.17093   0.82366   0.56781   0.00000  Uiso   1.00
C879   C     0.25563   0.83645   0.56263   0.00000  Uiso   1.00
C880   C     0.12714   0.81418   0.90473   0.00000  Uiso   1.00
C881   C     0.20843   0.97874   0.75261   0.00000  Uiso   1.00
C882   C     0.14114   0.82723   0.84922   0.00000  Uiso   1.00
C883   C     0.20842   0.68799   0.75260   0.00000  Uiso   1.00
C884   C     0.16659   0.70942   0.75029   0.00000  Uiso   1.00
C885   C     0.12469   0.68795   0.74821   0.00000  Uiso   1.00
C886   C     0.12469   0.97871   0.74826   0.00000  Uiso   1.00
C887   C     0.16659   0.95726   0.75035   0.00000  Uiso   1.00
C888   C     0.29962   0.85840   0.78306   0.00000  Uiso   1.00
C889   C     0.01583   0.85829   0.78317   0.00000  Uiso   1.00
C890   C     0.03374   0.80835   0.71683   0.00000  Uiso   1.00
C891   C     0.31749   0.80833   0.71687   0.00000  Uiso   1.00
C892   C     0.16665   0.75404   0.75003   0.00000  Uiso   1.00
C893   C     0.19259   0.83357   0.64984   0.00000  Uiso   1.00
C894   C     0.26827   0.83141   0.50863   0.00000  Uiso   1.00
C895   C     0.20697   0.83152   0.59260   0.00000  Uiso   1.00
C896   C     0.07746   0.80972   0.93200   0.00000  Uiso   1.00
C897   C     0.06325   0.80241   0.98556   0.00000  Uiso   1.00
C898   C     0.09718   0.80488   0.51352   0.00000  Uiso   1.00
Cu899  Cu    0.11978   0.83333   0.75000   0.00000  Uiso   1.00
Cu900  Cu    0.21355   0.83334   0.75000   0.00000  Uiso   1.00
H901   H     0.28382   0.84390   0.58086   0.00000  Uiso   1.00
H902   H     0.24112   0.70402   0.75442   0.00000  Uiso   1.00
H903   H     0.09199   0.70395   0.74641   0.00000  Uiso   1.00
H904   H     0.09197   0.96269   0.74652   0.00000  Uiso   1.00
H905   H     0.27379   0.87844   0.80965   0.00000  Uiso   1.00
H906   H     0.02729   0.87828   0.80977   0.00000  Uiso   1.00
H907   H     0.05956   0.78829   0.69027   0.00000  Uiso   1.00
H908   H     0.30599   0.78827   0.69036   0.00000  Uiso   1.00
H909   H     0.28572   0.80385   0.91158   0.00000  Uiso   1.00
H910   H     0.30557   0.83634   0.98546   0.00000  Uiso   1.00
H911   H     0.13354   0.82229   0.59163   0.00000  Uiso   1.00
H912   H     0.04963   0.81152   0.91193   0.00000  Uiso   1.00
H913   H     0.08315   0.80134   0.55526   0.00000  Uiso   1.00
H914   H     0.02558   0.79615   0.50625   0.00000  Uiso   1.00
H915   H     0.24114   0.96274   0.75441   0.00000  Uiso   1.00
N916   N     0.04931   0.83332   0.74998   0.00000  Uiso   1.00
N917   N     0.28402   0.83335   0.74999   0.00000  Uiso   1.00
O918   O     0.12708   0.89345   0.75000   0.00000  Uiso   1.00
O919   O     0.20627   0.89346   0.75000   0.00000  Uiso   1.00
O920   O     0.10775   0.83332   0.82549   0.00000  Uiso   1.00
O921   O     0.18694   0.83333   0.82549   0.00000  Uiso   1.00
O922   O     0.12706   0.77321   0.74999   0.00000  Uiso   1.00
O923   O     0.20625   0.77322   0.74999   0.00000  Uiso   1.00
O924   O     0.14640   0.83334   0.67451   0.00000  Uiso   1.00
O925   O     0.22559   0.83335   0.67451   0.00000  Uiso   1.00
N926   N     0.22688   0.77032   0.86350   0.00000  Uiso   1.00
H927   H     0.25111   0.78520   0.83198   0.00000  Uiso   1.00
H928   H     0.19678   0.75946   0.85276   0.00000  Uiso   1.00
C929   C     0.49998   0.91263   0.75014   0.00000  Uiso   1.00
C930   C     0.48067   0.81011   0.98732   0.00000  Uiso   1.00
C931   C     0.49584   0.80756   0.93207   0.00000  Uiso   1.00
C932   C     0.51645   0.81741   0.51368   0.00000  Uiso   1.00
C933   C     0.56630   0.81991   0.98441   0.00000  Uiso   1.00
C934   C     0.58065   0.80817   0.93205   0.00000  Uiso   1.00
C935   C     0.54569   0.79810   0.90714   0.00000  Uiso   1.00
C936   C     0.50426   0.82366   0.56781   0.00000  Uiso   1.00
C937   C     0.58897   0.83645   0.56263   0.00000  Uiso   1.00
C938   C     0.46047   0.81418   0.90473   0.00000  Uiso   1.00
C939   C     0.54176   0.97874   0.75261   0.00000  Uiso   1.00
C940   C     0.47447   0.82723   0.84922   0.00000  Uiso   1.00
C941   C     0.54176   0.68799   0.75260   0.00000  Uiso   1.00
C942   C     0.49992   0.70942   0.75029   0.00000  Uiso   1.00
C943   C     0.45803   0.68795   0.74821   0.00000  Uiso   1.00
C944   C     0.45802   0.97871   0.74826   0.00000  Uiso   1.00
C945   C     0.49992   0.95726   0.75035   0.00000  Uiso   1.00
C946   C     0.63295   0.85840   0.78306   0.00000  Uiso   1.00
C947   C     0.34916   0.85829   0.78317   0.00000  Uiso   1.00
C948   C     0.36708   0.80835   0.71683   0.00000  Uiso   1.00
C949   C     0.65082   0.80833   0.71687   0.00000  Uiso   1.00
C950   C     0.49998   0.75404   0.75003   0.00000  Uiso   1.00
C951   C     0.52592   0.83357   0.64984   0.00000  Uiso   1.00
C952   C     0.60160   0.83141   0.50863   0.00000  Uiso   1.00
C953   C     0.54030   0.83152   0.59260   0.00000  Uiso   1.00
C954   C     0.41080   0.80972   0.93200   0.00000  Uiso   1.00
C955   C     0.39659   0.80241   0.98556   0.00000  Uiso   1.00
C956   C     0.43051   0.80488   0.51352   0.00000  Uiso   1.00
Cu957  Cu    0.45311   0.83333   0.75000   0.00000  Uiso   1.00
Cu958  Cu    0.54689   0.83334   0.75000   0.00000  Uiso   1.00
H959   H     0.61715   0.84390   0.58086   0.00000  Uiso   1.00
H960   H     0.57445   0.70402   0.75442   0.00000  Uiso   1.00
H961   H     0.42532   0.70395   0.74641   0.00000  Uiso   1.00
H962   H     0.42530   0.96269   0.74652   0.00000  Uiso   1.00
H963   H     0.60712   0.87844   0.80965   0.00000  Uiso   1.00
H964   H     0.36063   0.87828   0.80977   0.00000  Uiso   1.00
H965   H     0.39290   0.78829   0.69027   0.00000  Uiso   1.00
H966   H     0.63933   0.78827   0.69036   0.00000  Uiso   1.00
H967   H     0.61905   0.80385   0.91158   0.00000  Uiso   1.00
H968   H     0.63890   0.83634   0.98546   0.00000  Uiso   1.00
H969   H     0.46687   0.82229   0.59163   0.00000  Uiso   1.00
H970   H     0.38296   0.81152   0.91193   0.00000  Uiso   1.00
H971   H     0.41649   0.80134   0.55526   0.00000  Uiso   1.00
H972   H     0.35891   0.79615   0.50625   0.00000  Uiso   1.00
H973   H     0.57447   0.96274   0.75441   0.00000  Uiso   1.00
N974   N     0.38265   0.83332   0.74998   0.00000  Uiso   1.00
N975   N     0.61735   0.83335   0.74999   0.00000  Uiso   1.00
O976   O     0.46042   0.89345   0.75000   0.00000  Uiso   1.00
O977   O     0.53961   0.89346   0.75000   0.00000  Uiso   1.00
O978   O     0.44108   0.83332   0.82549   0.00000  Uiso   1.00
O979   O     0.52027   0.83333   0.82549   0.00000  Uiso   1.00
O980   O     0.46039   0.77321   0.74999   0.00000  Uiso   1.00
O981   O     0.53958   0.77322   0.74999   0.00000  Uiso   1.00
O982   O     0.47973   0.83334   0.67451   0.00000  Uiso   1.00
O983   O     0.55892   0.83335   0.67451   0.00000  Uiso   1.00
N984   N     0.56021   0.77032   0.86350   0.00000  Uiso   1.00
H985   H     0.58444   0.78520   0.83198   0.00000  Uiso   1.00
H986   H     0.53011   0.75946   0.85276   0.00000  Uiso   1.00
C987   C     0.83331   0.91263   0.75014   0.00000  Uiso   1.00
C988   C     0.81400   0.81011   0.98732   0.00000  Uiso   1.00
C989   C     0.82918   0.80756   0.93207   0.00000  Uiso   1.00
C990   C     0.84978   0.81741   0.51368   0.00000  Uiso   1.00
C991   C     0.89964   0.81991   0.98441   0.00000  Uiso   1.00
C992   C     0.91399   0.80817   0.93205   0.00000  Uiso   1.00
C993   C     0.87902   0.79810   0.90714   0.00000  Uiso   1.00
C994   C     0.83760   0.82366   0.56781   0.00000  Uiso   1.00
C995   C     0.92230   0.83645   0.56263   0.00000  Uiso   1.00
C996   C     0.79380   0.81418   0.90473   0.00000  Uiso   1.00
C997   C     0.87510   0.97874   0.75261   0.00000  Uiso   1.00
C998   C     0.80781   0.82723   0.84922   0.00000  Uiso   1.00
C999   C     0.87509   0.68799   0.75260   0.00000  Uiso   1.00
C1000  C     0.83325   0.70942   0.75029   0.00000  Uiso   1.00
C1001  C     0.79136   0.68795   0.74821   0.00000  Uiso   1.00
C1002  C     0.79136   0.97871   0.74826   0.00000  Uiso   1.00
C1003  C     0.83325   0.95726   0.75035   0.00000  Uiso   1.00
C1004  C     0.96628   0.85840   0.78306   0.00000  Uiso   1.00
C1005  C     0.68249   0.85829   0.78317   0.00000  Uiso   1.00
C1006  C     0.70041   0.80835   0.71683   0.00000  Uiso   1.00
C1007  C     0.98415   0.80833   0.71687   0.00000  Uiso   1.00
C1008  C     0.83331   0.75404   0.75003   0.00000  Uiso   1.00
C1009  C     0.85925   0.83357   0.64984   0.00000  Uiso   1.00
C1010  C     0.93493   0.83141   0.50863   0.00000  Uiso   1.00
C1011  C     0.87364   0.83152   0.59260   0.00000  Uiso   1.00
C1012  C     0.74413   0.80972   0.93200   0.00000  Uiso   1.00
C1013  C     0.72992   0.80241   0.98556   0.00000  Uiso   1.00
C1014  C     0.76384   0.80488   0.51352   0.00000  Uiso   1.00
Cu1015 Cu    0.78645   0.83333   0.75000   0.00000  Uiso   1.00
Cu1016 Cu    0.88022   0.83334   0.75000   0.00000  Uiso   1.00
H1017  H     0.95048   0.84390   0.58086   0.00000  Uiso   1.00
H1018  H     0.90778   0.70402   0.75442   0.00000  Uiso   1.00
H1019  H     0.75865   0.70395   0.74641   0.00000  Uiso   1.00
H1020  H     0.75863   0.96269   0.74652   0.00000  Uiso   1.00
H1021  H     0.94046   0.87844   0.80965   0.00000  Uiso   1.00
H1022  H     0.69396   0.87828   0.80977   0.00000  Uiso   1.00
H1023  H     0.72623   0.78829   0.69027   0.00000  Uiso   1.00
H1024  H     0.97266   0.78827   0.69036   0.00000  Uiso   1.00
H1025  H     0.95238   0.80385   0.91158   0.00000  Uiso   1.00
H1026  H     0.97223   0.83634   0.98546   0.00000  Uiso   1.00
H1027  H     0.80020   0.82229   0.59163   0.00000  Uiso   1.00
H1028  H     0.71629   0.81152   0.91193   0.00000  Uiso   1.00
H1029  H     0.74982   0.80134   0.55526   0.00000  Uiso   1.00
H1030  H     0.69225   0.79615   0.50625   0.00000  Uiso   1.00
H1031  H     0.90780   0.96274   0.75441   0.00000  Uiso   1.00
N1032  N     0.71598   0.83332   0.74998   0.00000  Uiso   1.00
N1033  N     0.95069   0.83335   0.74999   0.00000  Uiso   1.00
O1034  O     0.79375   0.89345   0.75000   0.00000  Uiso   1.00
O1035  O     0.87294   0.89346   0.75000   0.00000  Uiso   1.00
O1036  O     0.77441   0.83332   0.82549   0.00000  Uiso   1.00
O1037  O     0.85360   0.83333   0.82549   0.00000  Uiso   1.00
O1038  O     0.79373   0.77321   0.74999   0.00000  Uiso   1.00
O1039  O     0.87292   0.77322   0.74999   0.00000  Uiso   1.00
O1040  O     0.81306   0.83334   0.67451   0.00000  Uiso   1.00
O1041  O     0.89225   0.83335   0.67451   0.00000  Uiso   1.00
N1042  N     0.89355   0.77032   0.86350   0.00000  Uiso   1.00
H1043  H     0.91777   0.78520   0.83198   0.00000  Uiso   1.00
H1044  H     0.86344   0.75946   0.85276   0.00000  Uiso   1.00
loop_
_geom_bond_atom_site_label_1
_geom_bond_atom_site_label_2
_geom_bond_distance
_geom_bond_site_symmetry_2
_ccdc_geom_bond_type
C1     O48     1.292   .     A
C1     C17     1.450   .     S
C1     O49     1.292   .     A
C2     C3      1.417   .     A
C2     C526    1.420   .     S
C2     C550    1.412   .     S
C3     C10     1.426   .     A
C3     C7      1.421   .     A
C4     C8      1.402   .     A
C4     C524    1.420   1_554 S
C4     C527    1.416   1_554 S
C5     C6      1.393   .     A
C5     C526    1.416   .     S
C5     C546    1.399   .     S
C6     C7      1.391   .     A
C6     H39     1.085   .     S
C7     N56     1.438   .     S
C8     H41     1.076   .     S
C8     C25     1.401   .     A
C9     C25     1.400   .     A
C9     C24     1.393   .     A
C9     H31     1.083   .     S
C10    C26     1.404   .     A
C10    C12     1.484   .     S
C11    H45     1.083   .     S
C11    C17     1.401   .     A
C11    C187    1.384   .     S
C12    O50     1.306   .     A
C12    O51     1.294   .     A
C13    H32     1.083   .     S
C13    C14     1.401   .     A
C13    C359    1.384   1_545 S
C14    C22     1.450   .     S
C14    C15     1.401   .     A
C15    H33     1.083   .     S
C15    C364    1.383   1_545 S
C16    H34     1.083   .     S
C16    C17     1.401   .     A
C16    C189    1.383   .     S
C18    H35     1.082   .     S
C18    N47     1.368   .     A
C18    C77     1.418   .     S
C19    N46     1.367   .     A
C19    H36     1.082   .     S
C19    C134    1.418   1_455 S
C20    H37     1.082   .     S
C20    N46     1.368   .     A
C20    C137    1.418   1_455 S
C21    H38     1.082   .     S
C21    N47     1.367   .     A
C21    C78     1.418   .     S
C22    O53     1.292   .     A
C22    O52     1.292   .     A
C23    O55     1.299   .     A
C23    C25     1.467   .     S
C23    O54     1.294   .     A
C24    C527    1.399   1_554 S
C24    H562    1.079   1_554 S
C26    C27     1.392   .     A
C26    H42     1.083   .     S
C27    C550    1.388   .     S
C27    H566    1.078   .     S
C28    H43     1.078   .     S
C28    C549    1.388   1_554 S
C28    C524    1.412   1_554 S
Cu29   N46     2.015   .     S
Cu29   Cu30    2.682   .     S
Cu29   O54     1.941   .     S
Cu29   O48     1.965   .     S
Cu29   O50     1.947   .     S
Cu29   O52     1.965   .     S
Cu30   O51     1.941   .     S
Cu30   O49     1.965   .     S
Cu30   O53     1.965   .     S
Cu30   N47     2.015   .     S
Cu30   O55     1.947   .     S
H40    C546    1.079   .     S
H44    C549    1.078   1_554 S
N56    H58     1.045   .     S
N56    H57     1.043   .     S
C59    O106    1.292   .     A
C59    C75     1.450   .     S
C59    O107    1.292   .     A
C60    C61     1.417   .     A
C60    C584    1.420   .     S
C60    C608    1.412   .     S
C61    C68     1.426   .     A
C61    C65     1.421   .     A
C62    C66     1.402   .     A
C62    C582    1.420   1_554 S
C62    C585    1.416   1_554 S
C63    C64     1.393   .     A
C63    C584    1.416   .     S
C63    C604    1.399   .     S
C64    C65     1.391   .     A
C64    H97     1.085   .     S
C65    N114    1.438   .     S
C66    H99     1.076   .     S
C66    C83     1.401   .     A
C67    C83     1.400   .     A
C67    C82     1.393   .     A
C67    H89     1.083   .     S
C68    C84     1.404   .     A
C68    C70     1.484   .     S
C69    H103    1.083   .     S
C69    C75     1.401   .     A
C69    C245    1.384   .     S
C70    O108    1.306   .     A
C70    O109    1.294   .     A
C71    H90     1.083   .     S
C71    C72     1.401   .     A
C71    C417    1.384   1_545 S
C72    C80     1.450   .     S
C72    C73     1.401   .     A
C73    H91     1.083   .     S
C73    C422    1.383   1_545 S
C74    H92     1.083   .     S
C74    C75     1.401   .     A
C74    C247    1.383   .     S
C76    H93     1.082   .     S
C76    N105    1.368   .     A
C76    C135    1.418   .     S
C77    N104    1.367   .     A
C77    H94     1.082   .     S
C78    H95     1.082   .     S
C78    N104    1.368   .     A
C79    H96     1.082   .     S
C79    N105    1.367   .     A
C79    C136    1.418   .     S
C80    O111    1.292   .     A
C80    O110    1.292   .     A
C81    O113    1.299   .     A
C81    C83     1.467   .     S
C81    O112    1.294   .     A
C82    C585    1.399   1_554 S
C82    H620    1.079   1_554 S
C84    C85     1.392   .     A
C84    H100    1.083   .     S
C85    C608    1.388   .     S
C85    H624    1.078   .     S
C86    H101    1.078   .     S
C86    C607    1.388   1_554 S
C86    C582    1.412   1_554 S
Cu87   N104    2.015   .     S
Cu87   Cu88    2.682   .     S
Cu87   O112    1.941   .     S
Cu87   O106    1.965   .     S
Cu87   O108    1.947   .     S
Cu87   O110    1.965   .     S
Cu88   O109    1.941   .     S
Cu88   O107    1.965   .     S
Cu88   O111    1.965   .     S
Cu88   N105    2.015   .     S
Cu88   O113    1.947   .     S
H98    C604    1.079   .     S
H102   C607    1.078   1_554 S
N114   H116    1.045   .     S
N114   H115    1.043   .     S
C117   O164    1.292   .     A
C117   C133    1.450   .     S
C117   O165    1.292   .     A
C118   C119    1.417   .     A
C118   C642    1.420   .     S
C118   C666    1.412   .     S
C119   C126    1.426   .     A
C119   C123    1.421   .     A
C120   C124    1.402   .     A
C120   C640    1.420   1_554 S
C120   C643    1.416   1_554 S
C121   C122    1.393   .     A
C121   C642    1.416   .     S
C121   C662    1.399   .     S
C122   C123    1.391   .     A
C122   H155    1.085   .     S
C123   N172    1.438   .     S
C124   H157    1.076   .     S
C124   C141    1.401   .     A
C125   C141    1.400   .     A
C125   C140    1.393   .     A
C125   H147    1.083   .     S
C126   C142    1.404   .     A
C126   C128    1.484   .     S
C127   H161    1.083   .     S
C127   C133    1.401   .     A
C127   C303    1.384   .     S
C128   O166    1.306   .     A
C128   O167    1.294   .     A
C129   H148    1.083   .     S
C129   C130    1.401   .     A
C129   C475    1.384   1_545 S
C130   C138    1.450   .     S
C130   C131    1.401   .     A
C131   H149    1.083   .     S
C131   C480    1.383   1_545 S
C132   H150    1.083   .     S
C132   C133    1.401   .     A
C132   C305    1.383   .     S
C134   H151    1.082   .     S
C134   N163    1.368   .     A
C134   C19     1.418   1_655 S
C135   N162    1.367   .     A
C135   H152    1.082   .     S
C136   H153    1.082   .     S
C136   N162    1.368   .     A
C137   H154    1.082   .     S
C137   N163    1.367   .     A
C137   C20     1.418   1_655 S
C138   O169    1.292   .     A
C138   O168    1.292   .     A
C139   O171    1.299   .     A
C139   C141    1.467   .     S
C139   O170    1.294   .     A
C140   C643    1.399   1_554 S
C140   H678    1.079   1_554 S
C142   C143    1.392   .     A
C142   H158    1.083   .     S
C143   C666    1.388   .     S
C143   H682    1.078   .     S
C144   H159    1.078   .     S
C144   C665    1.388   1_554 S
C144   C640    1.412   1_554 S
Cu145  N162    2.015   .     S
Cu145  Cu146   2.682   .     S
Cu145  O170    1.941   .     S
Cu145  O164    1.965   .     S
Cu145  O166    1.947   .     S
Cu145  O168    1.965   .     S
Cu146  O167    1.941   .     S
Cu146  O165    1.965   .     S
Cu146  O169    1.965   .     S
Cu146  N163    2.015   .     S
Cu146  O171    1.947   .     S
H156   C662    1.079   .     S
H160   C665    1.078   1_554 S
N172   H174    1.045   .     S
N172   H173    1.043   .     S
C175   O222    1.292   .     A
C175   C191    1.450   .     S
C175   O223    1.292   .     A
C176   C177    1.417   .     A
C176   C700    1.420   .     S
C176   C724    1.412   .     S
C177   C184    1.426   .     A
C177   C181    1.421   .     A
C178   C182    1.402   .     A
C178   C698    1.420   1_554 S
C178   C701    1.416   1_554 S
C179   C180    1.393   .     A
C179   C700    1.416   .     S
C179   C720    1.399   .     S
C180   C181    1.391   .     A
C180   H213    1.085   .     S
C181   N230    1.438   .     S
C182   H215    1.076   .     S
C182   C199    1.401   .     A
C183   C199    1.400   .     A
C183   C198    1.393   .     A
C183   H205    1.083   .     S
C184   C200    1.404   .     A
C184   C186    1.484   .     S
C185   H219    1.083   .     S
C185   C191    1.401   .     A
C185   C361    1.384   .     S
C186   O224    1.306   .     A
C186   O225    1.294   .     A
C187   H206    1.083   .     S
C187   C188    1.401   .     A
C188   C196    1.450   .     S
C188   C189    1.401   .     A
C189   H207    1.083   .     S
C190   H208    1.083   .     S
C190   C191    1.401   .     A
C190   C363    1.383   .     S
C192   H209    1.082   .     S
C192   N221    1.368   .     A
C192   C251    1.418   .     S
C193   N220    1.367   .     A
C193   H210    1.082   .     S
C193   C308    1.418   1_455 S
C194   H211    1.082   .     S
C194   N220    1.368   .     A
C194   C311    1.418   1_455 S
C195   H212    1.082   .     S
C195   N221    1.367   .     A
C195   C252    1.418   .     S
C196   O227    1.292   .     A
C196   O226    1.292   .     A
C197   O229    1.299   .     A
C197   C199    1.467   .     S
C197   O228    1.294   .     A
C198   C701    1.399   1_554 S
C198   H736    1.079   1_554 S
C200   C201    1.392   .     A
C200   H216    1.083   .     S
C201   C724    1.388   .     S
C201   H740    1.078   .     S
C202   H217    1.078   .     S
C202   C723    1.388   1_554 S
C202   C698    1.412   1_554 S
Cu203  N220    2.015   .     S
Cu203  Cu204   2.682   .     S
Cu203  O228    1.941   .     S
Cu203  O222    1.965   .     S
Cu203  O224    1.947   .     S
Cu203  O226    1.965   .     S
Cu204  O225    1.941   .     S
Cu204  O223    1.965   .     S
Cu204  O227    1.965   .     S
Cu204  N221    2.015   .     S
Cu204  O229    1.947   .     S
H214   C720    1.079   .     S
H218   C723    1.078   1_554 S
N230   H232    1.045   .     S
N230   H231    1.043   .     S
C233   O280    1.292   .     A
C233   C249    1.450   .     S
C233   O281    1.292   .     A
C234   C235    1.417   .     A
C234   C758    1.420   .     S
C234   C782    1.412   .     S
C235   C242    1.426   .     A
C235   C239    1.421   .     A
C236   C240    1.402   .     A
C236   C756    1.420   1_554 S
C236   C759    1.416   1_554 S
C237   C238    1.393   .     A
C237   C758    1.416   .     S
C237   C778    1.399   .     S
C238   C239    1.391   .     A
C238   H271    1.085   .     S
C239   N288    1.438   .     S
C240   H273    1.076   .     S
C240   C257    1.401   .     A
C241   C257    1.400   .     A
C241   C256    1.393   .     A
C241   H263    1.083   .     S
C242   C258    1.404   .     A
C242   C244    1.484   .     S
C243   H277    1.083   .     S
C243   C249    1.401   .     A
C243   C419    1.384   .     S
C244   O282    1.306   .     A
C244   O283    1.294   .     A
C245   H264    1.083   .     S
C245   C246    1.401   .     A
C246   C254    1.450   .     S
C246   C247    1.401   .     A
C247   H265    1.083   .     S
C248   H266    1.083   .     S
C248   C249    1.401   .     A
C248   C421    1.383   .     S
C250   H267    1.082   .     S
C250   N279    1.368   .     A
C250   C309    1.418   .     S
C251   N278    1.367   .     A
C251   H268    1.082   .     S
C252   H269    1.082   .     S
C252   N278    1.368   .     A
C253   H270    1.082   .     S
C253   N279    1.367   .     A
C253   C310    1.418   .     S
C254   O285    1.292   .     A
C254   O284    1.292   .     A
C255   O287    1.299   .     A
C255   C257    1.467   .     S
C255   O286    1.294   .     A
C256   C759    1.399   1_554 S
C256   H794    1.079   1_554 S
C258   C259    1.392   .     A
C258   H274    1.083   .     S
C259   C782    1.388   .     S
C259   H798    1.078   .     S
C260   H275    1.078   .     S
C260   C781    1.388   1_554 S
C260   C756    1.412   1_554 S
Cu261  N278    2.015   .     S
Cu261  Cu262   2.682   .     S
Cu261  O286    1.941   .     S
Cu261  O280    1.965   .     S
Cu261  O282    1.947   .     S
Cu261  O284    1.965   .     S
Cu262  O283    1.941   .     S
Cu262  O281    1.965   .     S
Cu262  O285    1.965   .     S
Cu262  N279    2.015   .     S
Cu262  O287    1.947   .     S
H272   C778    1.079   .     S
H276   C781    1.078   1_554 S
N288   H290    1.045   .     S
N288   H289    1.043   .     S
C291   O338    1.292   .     A
C291   C307    1.450   .     S
C291   O339    1.292   .     A
C292   C293    1.417   .     A
C292   C816    1.420   .     S
C292   C840    1.412   .     S
C293   C300    1.426   .     A
C293   C297    1.421   .     A
C294   C298    1.402   .     A
C294   C814    1.420   1_554 S
C294   C817    1.416   1_554 S
C295   C296    1.393   .     A
C295   C816    1.416   .     S
C295   C836    1.399   .     S
C296   C297    1.391   .     A
C296   H329    1.085   .     S
C297   N346    1.438   .     S
C298   H331    1.076   .     S
C298   C315    1.401   .     A
C299   C315    1.400   .     A
C299   C314    1.393   .     A
C299   H321    1.083   .     S
C300   C316    1.404   .     A
C300   C302    1.484   .     S
C301   H335    1.083   .     S
C301   C307    1.401   .     A
C301   C477    1.384   .     S
C302   O340    1.306   .     A
C302   O341    1.294   .     A
C303   H322    1.083   .     S
C303   C304    1.401   .     A
C304   C312    1.450   .     S
C304   C305    1.401   .     A
C305   H323    1.083   .     S
C306   H324    1.083   .     S
C306   C307    1.401   .     A
C306   C479    1.383   .     S
C308   H325    1.082   .     S
C308   N337    1.368   .     A
C308   C193    1.418   1_655 S
C309   N336    1.367   .     A
C309   H326    1.082   .     S
C310   H327    1.082   .     S
C310   N336    1.368   .     A
C311   H328    1.082   .     S
C311   N337    1.367   .     A
C311   C194    1.418   1_655 S
C312   O343    1.292   .     A
C312   O342    1.292   .     A
C313   O345    1.299   .     A
C313   C315    1.467   .     S
C313   O344    1.294   .     A
C314   C817    1.399   1_554 S
C314   H852    1.079   1_554 S
C316   C317    1.392   .     A
C316   H332    1.083   .     S
C317   C840    1.388   .     S
C317   H856    1.078   .     S
C318   H333    1.078   .     S
C318   C839    1.388   1_554 S
C318   C814    1.412   1_554 S
Cu319  N336    2.015   .     S
Cu319  Cu320   2.682   .     S
Cu319  O344    1.941   .     S
Cu319  O338    1.965   .     S
Cu319  O340    1.947   .     S
Cu319  O342    1.965   .     S
Cu320  O341    1.941   .     S
Cu320  O339    1.965   .     S
Cu320  O343    1.965   .     S
Cu320  N337    2.015   .     S
Cu320  O345    1.947   .     S
H330   C836    1.079   .     S
H334   C839    1.078   1_554 S
N346   H348    1.045   .     S
N346   H347    1.043   .     S
C349   O396    1.292   .     A
C349   C365    1.450   .     S
C349   O397    1.292   .     A
C350   C351    1.417   .     A
C350   C874    1.420   .     S
C350   C898    1.412   .     S
C351   C358    1.426   .     A
C351   C355    1.421   .     A
C352   C356    1.402   .     A
C352   C872    1.420   1_554 S
C352   C875    1.416   1_554 S
C353   C354    1.393   .     A
C353   C874    1.416   .     S
C353   C894    1.399   .     S
C354   C355    1.391   .     A
C354   H387    1.085   .     S
C355   N404    1.438   .     S
C356   H389    1.076   .     S
C356   C373    1.401   .     A
C357   C373    1.400   .     A
C357   C372    1.393   .     A
C357   H379    1.083   .     S
C358   C374    1.404   .     A
C358   C360    1.484   .     S
C359   H393    1.083   .     S
C359   C365    1.401   .     A
C359   C13     1.384   1_565 S
C360   O398    1.306   .     A
C360   O399    1.294   .     A
C361   H380    1.083   .     S
C361   C362    1.401   .     A
C362   C370    1.450   .     S
C362   C363    1.401   .     A
C363   H381    1.083   .     S
C364   H382    1.083   .     S
C364   C365    1.401   .     A
C364   C15     1.383   1_565 S
C366   H383    1.082   .     S
C366   N395    1.368   .     A
C366   C425    1.418   .     S
C367   N394    1.367   .     A
C367   H384    1.082   .     S
C367   C482    1.418   1_455 S
C368   H385    1.082   .     S
C368   N394    1.368   .     A
C368   C485    1.418   1_455 S
C369   H386    1.082   .     S
C369   N395    1.367   .     A
C369   C426    1.418   .     S
C370   O401    1.292   .     A
C370   O400    1.292   .     A
C371   O403    1.299   .     A
C371   C373    1.467   .     S
C371   O402    1.294   .     A
C372   C875    1.399   1_554 S
C372   H910    1.079   1_554 S
C374   C375    1.392   .     A
C374   H390    1.083   .     S
C375   C898    1.388   .     S
C375   H914    1.078   .     S
C376   H391    1.078   .     S
C376   C897    1.388   1_554 S
C376   C872    1.412   1_554 S
Cu377  N394    2.015   .     S
Cu377  Cu378   2.682   .     S
Cu377  O402    1.941   .     S
Cu377  O396    1.965   .     S
Cu377  O398    1.947   .     S
Cu377  O400    1.965   .     S
Cu378  O399    1.941   .     S
Cu378  O397    1.965   .     S
Cu378  O401    1.965   .     S
Cu378  N395    2.015   .     S
Cu378  O403    1.947   .     S
H388   C894    1.079   .     S
H392   C897    1.078   1_554 S
N404   H406    1.045   .     S
N404   H405    1.043   .     S
C407   O454    1.292   .     A
C407   C423    1.450   .     S
C407   O455    1.292   .     A
C408   C409    1.417   .     A
C408   C932    1.420   .     S
C408   C956    1.412   .     S
C409   C416    1.426   .     A
C409   C413    1.421   .     A
C410   C414    1.402   .     A
C410   C930    1.420   1_554 S
C410   C933    1.416   1_554 S
C411   C412    1.393   .     A
C411   C932    1.416   .     S
C411   C952    1.399   .     S
C412   C413    1.391   .     A
C412   H445    1.085   .     S
C413   N462    1.438   .     S
C414   H447    1.076   .     S
C414   C431    1.401   .     A
C415   C431    1.400   .     A
C415   C430    1.393   .     A
C415   H437    1.083   .     S
C416   C432    1.404   .     A
C416   C418    1.484   .     S
C417   H451    1.083   .     S
C417   C423    1.401   .     A
C417   C71     1.384   1_565 S
C418   O456    1.306   .     A
C418   O457    1.294   .     A
C419   H438    1.083   .     S
C419   C420    1.401   .     A
C420   C428    1.450   .     S
C420   C421    1.401   .     A
C421   H439    1.083   .     S
C422   H440    1.083   .     S
C422   C423    1.401   .     A
C422   C73     1.383   1_565 S
C424   H441    1.082   .     S
C424   N453    1.368   .     A
C424   C483    1.418   .     S
C425   N452    1.367   .     A
C425   H442    1.082   .     S
C426   H443    1.082   .     S
C426   N452    1.368   .     A
C427   H444    1.082   .     S
C427   N453    1.367   .     A
C427   C484    1.418   .     S
C428   O459    1.292   .     A
C428   O458    1.292   .     A
C429   O461    1.299   .     A
C429   C431    1.467   .     S
C429   O460    1.294   .     A
C430   C933    1.399   1_554 S
C430   H968    1.079   1_554 S
C432   C433    1.392   .     A
C432   H448    1.083   .     S
C433   C956    1.388   .     S
C433   H972    1.078   .     S
C434   H449    1.078   .     S
C434   C955    1.388   1_554 S
C434   C930    1.412   1_554 S
Cu435  N452    2.015   .     S
Cu435  Cu436   2.682   .     S
Cu435  O460    1.941   .     S
Cu435  O454    1.965   .     S
Cu435  O456    1.947   .     S
Cu435  O458    1.965   .     S
Cu436  O457    1.941   .     S
Cu436  O455    1.965   .     S
Cu436  O459    1.965   .     S
Cu436  N453    2.015   .     S
Cu436  O461    1.947   .     S
H446   C952    1.079   .     S
H450   C955    1.078   1_554 S
N462   H464    1.045   .     S
N462   H463    1.043   .     S
C465   O512    1.292   .     A
C465   C481    1.450   .     S
C465   O513    1.292   .     A
C466   C467    1.417   .     A
C466   C990    1.420   .     S
C466   C1014   1.412   .     S
C467   C474    1.426   .     A
C467   C471    1.421   .     A
C468   C472    1.402   .     A
C468   C988    1.420   1_554 S
C468   C991    1.416   1_554 S
C469   C470    1.393   .     A
C469   C990    1.416   .     S
C469   C1010   1.399   .     S
C470   C471    1.391   .     A
C470   H503    1.085   .     S
C471   N520    1.438   .     S
C472   H505    1.076   .     S
C472   C489    1.401   .     A
C473   C489    1.400   .     A
C473   C488    1.393   .     A
C473   H495    1.083   .     S
C474   C490    1.404   .     A
C474   C476    1.484   .     S
C475   H509    1.083   .     S
C475   C481    1.401   .     A
C475   C129    1.384   1_565 S
C476   O514    1.306   .     A
C476   O515    1.294   .     A
C477   H496    1.083   .     S
C477   C478    1.401   .     A
C478   C486    1.450   .     S
C478   C479    1.401   .     A
C479   H497    1.083   .     S
C480   H498    1.083   .     S
C480   C481    1.401   .     A
C480   C131    1.383   1_565 S
C482   H499    1.082   .     S
C482   N511    1.368   .     A
C482   C367    1.418   1_655 S
C483   N510    1.367   .     A
C483   H500    1.082   .     S
C484   H501    1.082   .     S
C484   N510    1.368   .     A
C485   H502    1.082   .     S
C485   N511    1.367   .     A
C485   C368    1.418   1_655 S
C486   O517    1.292   .     A
C486   O516    1.292   .     A
C487   O519    1.299   .     A
C487   C489    1.467   .     S
C487   O518    1.294   .     A
C488   C991    1.399   1_554 S
C488   H1026   1.079   1_554 S
C490   C491    1.392   .     A
C490   H506    1.083   .     S
C491   C1014   1.388   .     S
C491   H1030   1.078   .     S
C492   H507    1.078   .     S
C492   C1013   1.388   1_554 S
C492   C988    1.412   1_554 S
Cu493  N510    2.015   .     S
Cu493  Cu494   2.682   .     S
Cu493  O518    1.941   .     S
Cu493  O512    1.965   .     S
Cu493  O514    1.947   .     S
Cu493  O516    1.965   .     S
Cu494  O515    1.941   .     S
Cu494  O513    1.965   .     S
Cu494  O517    1.965   .     S
Cu494  N511    2.015   .     S
Cu494  O519    1.947   .     S
H504   C1010   1.079   .     S
H508   C1013   1.078   1_554 S
N520   H522    1.045   .     S
N520   H521    1.043   .     S
C523   O570    1.292   .     A
C523   C539    1.450   .     S
C523   O571    1.292   .     A
C524   C525    1.417   .     A
C524   C4      1.420   1_556 S
C524   C28     1.412   1_556 S
C525   C532    1.426   .     A
C525   C529    1.421   .     A
C526   C530    1.402   .     A
C527   C528    1.393   .     A
C527   C4      1.416   1_556 S
C527   C24     1.399   1_556 S
C528   C529    1.391   .     A
C528   H561    1.085   .     S
C529   N578    1.438   .     S
C530   H563    1.076   .     S
C530   C547    1.401   .     A
C531   C547    1.400   .     A
C531   C546    1.393   .     A
C531   H553    1.083   .     S
C532   C548    1.404   .     A
C532   C534    1.484   .     S
C533   H567    1.083   .     S
C533   C539    1.401   .     A
C533   C709    1.384   .     S
C534   O572    1.306   .     A
C534   O573    1.294   .     A
C535   H554    1.083   .     S
C535   C536    1.401   .     A
C535   C881    1.384   1_545 S
C536   C544    1.450   .     S
C536   C537    1.401   .     A
C537   H555    1.083   .     S
C537   C886    1.383   1_545 S
C538   H556    1.083   .     S
C538   C539    1.401   .     A
C538   C711    1.383   .     S
C540   H557    1.082   .     S
C540   N569    1.368   .     A
C540   C599    1.418   .     S
C541   N568    1.367   .     A
C541   H558    1.082   .     S
C541   C656    1.418   1_455 S
C542   H559    1.082   .     S
C542   N568    1.368   .     A
C542   C659    1.418   1_455 S
C543   H560    1.082   .     S
C543   N569    1.367   .     A
C543   C600    1.418   .     S
C544   O575    1.292   .     A
C544   O574    1.292   .     A
C545   O577    1.299   .     A
C545   C547    1.467   .     S
C545   O576    1.294   .     A
C548   C549    1.392   .     A
C548   H564    1.083   .     S
C549   C28     1.388   1_556 S
C549   H44     1.078   1_556 S
C550   H565    1.078   .     S
Cu551  N568    2.015   .     S
Cu551  Cu552   2.682   .     S
Cu551  O576    1.941   .     S
Cu551  O570    1.965   .     S
Cu551  O572    1.947   .     S
Cu551  O574    1.965   .     S
Cu552  O573    1.941   .     S
Cu552  O571    1.965   .     S
Cu552  O575    1.965   .     S
Cu552  N569    2.015   .     S
Cu552  O577    1.947   .     S
H562   C24     1.079   1_556 S
N578   H580    1.045   .     S
N578   H579    1.043   .     S
C581   O628    1.292   .     A
C581   C597    1.450   .     S
C581   O629    1.292   .     A
C582   C583    1.417   .     A
C582   C62     1.420   1_556 S
C582   C86     1.412   1_556 S
C583   C590    1.426   .     A
C583   C587    1.421   .     A
C584   C588    1.402   .     A
C585   C586    1.393   .     A
C585   C62     1.416   1_556 S
C585   C82     1.399   1_556 S
C586   C587    1.391   .     A
C586   H619    1.085   .     S
C587   N636    1.438   .     S
C588   H621    1.076   .     S
C588   C605    1.401   .     A
C589   C605    1.400   .     A
C589   C604    1.393   .     A
C589   H611    1.083   .     S
C590   C606    1.404   .     A
C590   C592    1.484   .     S
C591   H625    1.083   .     S
C591   C597    1.401   .     A
C591   C767    1.384   .     S
C592   O630    1.306   .     A
C592   O631    1.294   .     A
C593   H612    1.083   .     S
C593   C594    1.401   .     A
C593   C939    1.384   1_545 S
C594   C602    1.450   .     S
C594   C595    1.401   .     A
C595   H613    1.083   .     S
C595   C944    1.383   1_545 S
C596   H614    1.083   .     S
C596   C597    1.401   .     A
C596   C769    1.383   .     S
C598   H615    1.082   .     S
C598   N627    1.368   .     A
C598   C657    1.418   .     S
C599   N626    1.367   .     A
C599   H616    1.082   .     S
C600   H617    1.082   .     S
C600   N626    1.368   .     A
C601   H618    1.082   .     S
C601   N627    1.367   .     A
C601   C658    1.418   .     S
C602   O633    1.292   .     A
C602   O632    1.292   .     A
C603   O635    1.299   .     A
C603   C605    1.467   .     S
C603   O634    1.294   .     A
C606   C607    1.392   .     A
C606   H622    1.083   .     S
C607   C86     1.388   1_556 S
C607   H102    1.078   1_556 S
C608   H623    1.078   .     S
Cu609  N626    2.015   .     S
Cu609  Cu610   2.682   .     S
Cu609  O634    1.941   .     S
Cu609  O628    1.965   .     S
Cu609  O630    1.947   .     S
Cu609  O632    1.965   .     S
Cu610  O631    1.941   .     S
Cu610  O629    1.965   .     S
Cu610  O633    1.965   .     S
Cu610  N627    2.015   .     S
Cu610  O635    1.947   .     S
H620   C82     1.079   1_556 S
N636   H638    1.045   .     S
N636   H637    1.043   .     S
C639   O686    1.292   .     A
C639   C655    1.450   .     S
C639   O687    1.292   .     A
C640   C641    1.417   .     A
C640   C120    1.420   1_556 S
C640   C144    1.412   1_556 S
C641   C648    1.426   .     A
C641   C645    1.421   .     A
C642   C646    1.402   .     A
C643   C644    1.393   .     A
C643   C120    1.416   1_556 S
C643   C140    1.399   1_556 S
C644   C645    1.391   .     A
C644   H677    1.085   .     S
C645   N694    1.438   .     S
C646   H679    1.076   .     S
C646   C663    1.401   .     A
C647   C663    1.400   .     A
C647   C662    1.393   .     A
C647   H669    1.083   .     S
C648   C664    1.404   .     A
C648   C650    1.484   .     S
C649   H683    1.083   .     S
C649   C655    1.401   .     A
C649   C825    1.384   .     S
C650   O688    1.306   .     A
C650   O689    1.294   .     A
C651   H670    1.083   .     S
C651   C652    1.401   .     A
C651   C997    1.384   1_545 S
C652   C660    1.450   .     S
C652   C653    1.401   .     A
C653   H671    1.083   .     S
C653   C1002   1.383   1_545 S
C654   H672    1.083   .     S
C654   C655    1.401   .     A
C654   C827    1.383   .     S
C656   H673    1.082   .     S
C656   N685    1.368   .     A
C656   C541    1.418   1_655 S
C657   N684    1.367   .     A
C657   H674    1.082   .     S
C658   H675    1.082   .     S
C658   N684    1.368   .     A
C659   H676    1.082   .     S
C659   N685    1.367   .     A
C659   C542    1.418   1_655 S
C660   O691    1.292   .     A
C660   O690    1.292   .     A
C661   O693    1.299   .     A
C661   C663    1.467   .     S
C661   O692    1.294   .     A
C664   C665    1.392   .     A
C664   H680    1.083   .     S
C665   C144    1.388   1_556 S
C665   H160    1.078   1_556 S
C666   H681    1.078   .     S
Cu667  N684    2.015   .     S
Cu667  Cu668   2.682   .     S
Cu667  O692    1.941   .     S
Cu667  O686    1.965   .     S
Cu667  O688    1.947   .     S
Cu667  O690    1.965   .     S
Cu668  O689    1.941   .     S
Cu668  O687    1.965   .     S
Cu668  O691    1.965   .     S
Cu668  N685    2.015   .     S
Cu668  O693    1.947   .     S
H678   C140    1.079   1_556 S
N694   H696    1.045   .     S
N694   H695    1.043   .     S
C697   O744    1.292   .     A
C697   C713    1.450   .     S
C697   O745    1.292   .     A
C698   C699    1.417   .     A
C698   C178    1.420   1_556 S
C698   C202    1.412   1_556 S
C699   C706    1.426   .     A
C699   C703    1.421   .     A
C700   C704    1.402   .     A
C701   C702    1.393   .     A
C701   C178    1.416   1_556 S
C701   C198    1.399   1_556 S
C702   C703    1.391   .     A
C702   H735    1.085   .     S
C703   N752    1.438   .     S
C704   H737    1.076   .     S
C704   C721    1.401   .     A
C705   C721    1.400   .     A
C705   C720    1.393   .     A
C705   H727    1.083   .     S
C706   C722    1.404   .     A
C706   C708    1.484   .     S
C707   H741    1.083   .     S
C707   C713    1.401   .     A
C707   C883    1.384   .     S
C708   O746    1.306   .     A
C708   O747    1.294   .     A
C709   H728    1.083   .     S
C709   C710    1.401   .     A
C710   C718    1.450   .     S
C710   C711    1.401   .     A
C711   H729    1.083   .     S
C712   H730    1.083   .     S
C712   C713    1.401   .     A
C712   C885    1.383   .     S
C714   H731    1.082   .     S
C714   N743    1.368   .     A
C714   C773    1.418   .     S
C715   N742    1.367   .     A
C715   H732    1.082   .     S
C715   C830    1.418   1_455 S
C716   H733    1.082   .     S
C716   N742    1.368   .     A
C716   C833    1.418   1_455 S
C717   H734    1.082   .     S
C717   N743    1.367   .     A
C717   C774    1.418   .     S
C718   O749    1.292   .     A
C718   O748    1.292   .     A
C719   O751    1.299   .     A
C719   C721    1.467   .     S
C719   O750    1.294   .     A
C722   C723    1.392   .     A
C722   H738    1.083   .     S
C723   C202    1.388   1_556 S
C723   H218    1.078   1_556 S
C724   H739    1.078   .     S
Cu725  N742    2.015   .     S
Cu725  Cu726   2.682   .     S
Cu725  O750    1.941   .     S
Cu725  O744    1.965   .     S
Cu725  O746    1.947   .     S
Cu725  O748    1.965   .     S
Cu726  O747    1.941   .     S
Cu726  O745    1.965   .     S
Cu726  O749    1.965   .     S
Cu726  N743    2.015   .     S
Cu726  O751    1.947   .     S
H736   C198    1.079   1_556 S
N752   H754    1.045   .     S
N752   H753    1.043   .     S
C755   O802    1.292   .     A
C755   C771    1.450   .     S
C755   O803    1.292   .     A
C756   C757    1.417   .     A
C756   C236    1.420   1_556 S
C756   C260    1.412   1_556 S
C757   C764    1.426   .     A
C757   C761    1.421   .     A
C758   C762    1.402   .     A
C759   C760    1.393   .     A
C759   C236    1.416   1_556 S
C759   C256    1.399   1_556 S
C760   C761    1.391   .     A
C760   H793    1.085   .     S
C761   N810    1.438   .     S
C762   H795    1.076   .     S
C762   C779    1.401   .     A
C763   C779    1.400   .     A
C763   C778    1.393   .     A
C763   H785    1.083   .     S
C764   C780    1.404   .     A
C764   C766    1.484   .     S
C765   H799    1.083   .     S
C765   C771    1.401   .     A
C765   C941    1.384   .     S
C766   O804    1.306   .     A
C766   O805    1.294   .     A
C767   H786    1.083   .     S
C767   C768    1.401   .     A
C768   C776    1.450   .     S
C768   C769    1.401   .     A
C769   H787    1.083   .     S
C770   H788    1.083   .     S
C770   C771    1.401   .     A
C770   C943    1.383   .     S
C772   H789    1.082   .     S
C772   N801    1.368   .     A
C772   C831    1.418   .     S
C773   N800    1.367   .     A
C773   H790    1.082   .     S
C774   H791    1.082   .     S
C774   N800    1.368   .     A
C775   H792    1.082   .     S
C775   N801    1.367   .     A
C775   C832    1.418   .     S
C776   O807    1.292   .     A
C776   O806    1.292   .     A
C777   O809    1.299   .     A
C777   C779    1.467   .     S
C777   O808    1.294   .     A
C780   C781    1.392   .     A
C780   H796    1.083   .     S
C781   C260    1.388   1_556 S
C781   H276    1.078   1_556 S
C782   H797    1.078   .     S
Cu783  N800    2.015   .     S
Cu783  Cu784   2.682   .     S
Cu783  O808    1.941   .     S
Cu783  O802    1.965   .     S
Cu783  O804    1.947   .     S
Cu783  O806    1.965   .     S
Cu784  O805    1.941   .     S
Cu784  O803    1.965   .     S
Cu784  O807    1.965   .     S
Cu784  N801    2.015   .     S
Cu784  O809    1.947   .     S
H794   C256    1.079   1_556 S
N810   H812    1.045   .     S
N810   H811    1.043   .     S
C813   O860    1.292   .     A
C813   C829    1.450   .     S
C813   O861    1.292   .     A
C814   C815    1.417   .     A
C814   C294    1.420   1_556 S
C814   C318    1.412   1_556 S
C815   C822    1.426   .     A
C815   C819    1.421   .     A
C816   C820    1.402   .     A
C817   C818    1.393   .     A
C817   C294    1.416   1_556 S
C817   C314    1.399   1_556 S
C818   C819    1.391   .     A
C818   H851    1.085   .     S
C819   N868    1.438   .     S
C820   H853    1.076   .     S
C820   C837    1.401   .     A
C821   C837    1.400   .     A
C821   C836    1.393   .     A
C821   H843    1.083   .     S
C822   C838    1.404   .     A
C822   C824    1.484   .     S
C823   H857    1.083   .     S
C823   C829    1.401   .     A
C823   C999    1.384   .     S
C824   O862    1.306   .     A
C824   O863    1.294   .     A
C825   H844    1.083   .     S
C825   C826    1.401   .     A
C826   C834    1.450   .     S
C826   C827    1.401   .     A
C827   H845    1.083   .     S
C828   H846    1.083   .     S
C828   C829    1.401   .     A
C828   C1001   1.383   .     S
C830   H847    1.082   .     S
C830   N859    1.368   .     A
C830   C715    1.418   1_655 S
C831   N858    1.367   .     A
C831   H848    1.082   .     S
C832   H849    1.082   .     S
C832   N858    1.368   .     A
C833   H850    1.082   .     S
C833   N859    1.367   .     A
C833   C716    1.418   1_655 S
C834   O865    1.292   .     A
C834   O864    1.292   .     A
C835   O867    1.299   .     A
C835   C837    1.467   .     S
C835   O866    1.294   .     A
C838   C839    1.392   .     A
C838   H854    1.083   .     S
C839   C318    1.388   1_556 S
C839   H334    1.078   1_556 S
C840   H855    1.078   .     S
Cu841  N858    2.015   .     S
Cu841  Cu842   2.682   .     S
Cu841  O866    1.941   .     S
Cu841  O860    1.965   .     S
Cu841  O862    1.947   .     S
Cu841  O864    1.965   .     S
Cu842  O863    1.941   .     S
Cu842  O861    1.965   .     S
Cu842  O865    1.965   .     S
Cu842  N859    2.015   .     S
Cu842  O867    1.947   .     S
H852   C314    1.079   1_556 S
N868   H870    1.045   .     S
N868   H869    1.043   .     S
C871   O918    1.292   .     A
C871   C887    1.450   .     S
C871   O919    1.292   .     A
C872   C873    1.417   .     A
C872   C352    1.420   1_556 S
C872   C376    1.412   1_556 S
C873   C880    1.426   .     A
C873   C877    1.421   .     A
C874   C878    1.402   .     A
C875   C876    1.393   .     A
C875   C352    1.416   1_556 S
C875   C372    1.399   1_556 S
C876   C877    1.391   .     A
C876   H909    1.085   .     S
C877   N926    1.438   .     S
C878   H911    1.076   .     S
C878   C895    1.401   .     A
C879   C895    1.400   .     A
C879   C894    1.393   .     A
C879   H901    1.083   .     S
C880   C896    1.404   .     A
C880   C882    1.484   .     S
C881   H915    1.083   .     S
C881   C887    1.401   .     A
C881   C535    1.384   1_565 S
C882   O920    1.306   .     A
C882   O921    1.294   .     A
C883   H902    1.083   .     S
C883   C884    1.401   .     A
C884   C892    1.450   .     S
C884   C885    1.401   .     A
C885   H903    1.083   .     S
C886   H904    1.083   .     S
C886   C887    1.401   .     A
C886   C537    1.383   1_565 S
C888   H905    1.082   .     S
C888   N917    1.368   .     A
C888   C947    1.418   .     S
C889   N916    1.367   .     A
C889   H906    1.082   .     S
C889   C1004   1.418   1_455 S
C890   H907    1.082   .     S
C890   N916    1.368   .     A
C890   C1007   1.418   1_455 S
C891   H908    1.082   .     S
C891   N917    1.367   .     A
C891   C948    1.418   .     S
C892   O923    1.292   .     A
C892   O922    1.292   .     A
C893   O925    1.299   .     A
C893   C895    1.467   .     S
C893   O924    1.294   .     A
C896   C897    1.392   .     A
C896   H912    1.083   .     S
C897   C376    1.388   1_556 S
C897   H392    1.078   1_556 S
C898   H913    1.078   .     S
Cu899  N916    2.015   .     S
Cu899  Cu900   2.682   .     S
Cu899  O924    1.941   .     S
Cu899  O918    1.965   .     S
Cu899  O920    1.947   .     S
Cu899  O922    1.965   .     S
Cu900  O921    1.941   .     S
Cu900  O919    1.965   .     S
Cu900  O923    1.965   .     S
Cu900  N917    2.015   .     S
Cu900  O925    1.947   .     S
H910   C372    1.079   1_556 S
N926   H928    1.045   .     S
N926   H927    1.043   .     S
C929   O976    1.292   .     A
C929   C945    1.450   .     S
C929   O977    1.292   .     A
C930   C931    1.417   .     A
C930   C410    1.420   1_556 S
C930   C434    1.412   1_556 S
C931   C938    1.426   .     A
C931   C935    1.421   .     A
C932   C936    1.402   .     A
C933   C934    1.393   .     A
C933   C410    1.416   1_556 S
C933   C430    1.399   1_556 S
C934   C935    1.391   .     A
C934   H967    1.085   .     S
C935   N984    1.438   .     S
C936   H969    1.076   .     S
C936   C953    1.401   .     A
C937   C953    1.400   .     A
C937   C952    1.393   .     A
C937   H959    1.083   .     S
C938   C954    1.404   .     A
C938   C940    1.484   .     S
C939   H973    1.083   .     S
C939   C945    1.401   .     A
C939   C593    1.384   1_565 S
C940   O978    1.306   .     A
C940   O979    1.294   .     A
C941   H960    1.083   .     S
C941   C942    1.401   .     A
C942   C950    1.450   .     S
C942   C943    1.401   .     A
C943   H961    1.083   .     S
C944   H962    1.083   .     S
C944   C945    1.401   .     A
C944   C595    1.383   1_565 S
C946   H963    1.082   .     S
C946   N975    1.368   .     A
C946   C1005   1.418   .     S
C947   N974    1.367   .     A
C947   H964    1.082   .     S
C948   H965    1.082   .     S
C948   N974    1.368   .     A
C949   H966    1.082   .     S
C949   N975    1.367   .     A
C949   C1006   1.418   .     S
C950   O981    1.292   .     A
C950   O980    1.292   .     A
C951   O983    1.299   .     A
C951   C953    1.467   .     S
C951   O982    1.294   .     A
C954   C955    1.392   .     A
C954   H970    1.083   .     S
C955   C434    1.388   1_556 S
C955   H450    1.078   1_556 S
C956   H971    1.078   .     S
Cu957  N974    2.015   .     S
Cu957  Cu958   2.682   .     S
Cu957  O982    1.941   .     S
Cu957  O976    1.965   .     S
Cu957  O978    1.947   .     S
Cu957  O980    1.965   .     S
Cu958  O979    1.941   .     S
Cu958  O977    1.965   .     S
Cu958  O981    1.965   .     S
Cu958  N975    2.015   .     S
Cu958  O983    1.947   .     S
H968   C430    1.079   1_556 S
N984   H986    1.045   .     S
N984   H985    1.043   .     S
C987   O1034   1.292   .     A
C987   C1003   1.450   .     S
C987   O1035   1.292   .     A
C988   C989    1.417   .     A
C988   C468    1.420   1_556 S
C988   C492    1.412   1_556 S
C989   C996    1.426   .     A
C989   C993    1.421   .     A
C990   C994    1.402   .     A
C991   C992    1.393   .     A
C991   C468    1.416   1_556 S
C991   C488    1.399   1_556 S
C992   C993    1.391   .     A
C992   H1025   1.085   .     S
C993   N1042   1.438   .     S
C994   H1027   1.076   .     S
C994   C1011   1.401   .     A
C995   C1011   1.400   .     A
C995   C1010   1.393   .     A
C995   H1017   1.083   .     S
C996   C1012   1.404   .     A
C996   C998    1.484   .     S
C997   H1031   1.083   .     S
C997   C1003   1.401   .     A
C997   C651    1.384   1_565 S
C998   O1036   1.306   .     A
C998   O1037   1.294   .     A
C999   H1018   1.083   .     S
C999   C1000   1.401   .     A
C1000  C1008   1.450   .     S
C1000  C1001   1.401   .     A
C1001  H1019   1.083   .     S
C1002  H1020   1.083   .     S
C1002  C1003   1.401   .     A
C1002  C653    1.383   1_565 S
C1004  H1021   1.082   .     S
C1004  N1033   1.368   .     A
C1004  C889    1.418   1_655 S
C1005  N1032   1.367   .     A
C1005  H1022   1.082   .     S
C1006  H1023   1.082   .     S
C1006  N1032   1.368   .     A
C1007  H1024   1.082   .     S
C1007  N1033   1.367   .     A
C1007  C890    1.418   1_655 S
C1008  O1039   1.292   .     A
C1008  O1038   1.292   .     A
C1009  O1041   1.299   .     A
C1009  C1011   1.467   .     S
C1009  O1040   1.294   .     A
C1012  C1013   1.392   .     A
C1012  H1028   1.083   .     S
C1013  C492    1.388   1_556 S
C1013  H508    1.078   1_556 S
C1014  H1029   1.078   .     S
Cu1015 N1032   2.015   .     S
Cu1015 Cu1016  2.682   .     S
Cu1015 O1040   1.941   .     S
Cu1015 O1034   1.965   .     S
Cu1015 O1036   1.947   .     S
Cu1015 O1038   1.965   .     S
Cu1016 O1037   1.941   .     S
Cu1016 O1035   1.965   .     S
Cu1016 O1039   1.965   .     S
Cu1016 N1033   2.015   .     S
Cu1016 O1041   1.947   .     S
H1026  C488    1.079   1_556 S
N1042  H1044   1.045   .     S
N1042  H1043   1.043   .     S
