data_str_m3_o2_o10_pcu_sym.210
_audit_creation_date              2020-01-03
_audit_creation_method            'Materials Studio'
_symmetry_space_group_name_H-M    'P1'
_symmetry_Int_Tables_number       1
_symmetry_cell_setting            triclinic
loop_
_symmetry_equiv_pos_as_xyz
  x,y,z
_cell_length_a                    25.7038
_cell_length_b                    29.9243
_cell_length_c                    28.3328
_cell_angle_alpha                 90.0635
_cell_angle_beta                  98.4242
_cell_angle_gamma                 89.5011
loop_
_atom_site_label
_atom_site_type_symbol
_atom_site_fract_x
_atom_site_fract_y
_atom_site_fract_z
_atom_site_U_iso_or_equiv
_atom_site_adp_type
_atom_site_occupancy
C1     C     0.16720   0.16413   0.25006   0.00000  Uiso   1.00
C2     C     0.16552   0.33627   0.24990   0.00000  Uiso   1.00
C3     C     0.14159   0.28431   0.04933   0.00000  Uiso   1.00
C4     C     0.20927   0.23208   0.45302   0.00000  Uiso   1.00
C5     C     0.14192   0.28358   0.09901   0.00000  Uiso   1.00
C6     C     0.20838   0.23230   0.40327   0.00000  Uiso   1.00
C7     C     0.19153   0.21646   0.10552   0.00000  Uiso   1.00
C8     C     0.12494   0.26765   0.39226   0.00000  Uiso   1.00
C9     C     0.19192   0.21578   0.05594   0.00000  Uiso   1.00
C10    C     0.12412   0.26792   0.44178   0.00000  Uiso   1.00
C11    C     0.16674   0.25004   0.02670   0.00000  Uiso   1.00
C12    C     0.16671   0.25002   0.47333   0.00000  Uiso   1.00
C13    C     0.06702   0.25094   0.23756   0.00000  Uiso   1.00
C14    C     0.26628   0.25123   0.26239   0.00000  Uiso   1.00
C15    C     0.01200   0.25192   0.23071   0.00000  Uiso   1.00
C16    C     0.32117   0.25428   0.26896   0.00000  Uiso   1.00
C17    C     0.21252   0.04670   0.26114   0.00000  Uiso   1.00
C18    C     0.19157   0.45311   0.21524   0.00000  Uiso   1.00
C19    C     0.21256   0.09289   0.26479   0.00000  Uiso   1.00
C20    C     0.19218   0.40696   0.21659   0.00000  Uiso   1.00
C21    C     0.16568   0.11653   0.24976   0.00000  Uiso   1.00
C22    C     0.16517   0.38462   0.24972   0.00000  Uiso   1.00
C23    C     0.11807   0.09441   0.23375   0.00000  Uiso   1.00
C24    C     0.13804   0.40927   0.28163   0.00000  Uiso   1.00
C25    C     0.11860   0.04804   0.23236   0.00000  Uiso   1.00
C26    C     0.13882   0.45558   0.27956   0.00000  Uiso   1.00
C27    C     0.16561   0.02473   0.24580   0.00000  Uiso   1.00
C28    C     0.16525   0.47692   0.24669   0.00000  Uiso   1.00
H29    H     0.32488   0.24938   0.19438   0.00000  Uiso   1.00
H30    H     0.00833   0.25728   0.30523   0.00000  Uiso   1.00
H31    H     0.24869   0.02796   0.27149   0.00000  Uiso   1.00
H32    H     0.21122   0.47043   0.18935   0.00000  Uiso   1.00
H33    H     0.08252   0.02999   0.22092   0.00000  Uiso   1.00
H34    H     0.11854   0.47529   0.30352   0.00000  Uiso   1.00
H35    H     0.12234   0.31195   0.02902   0.00000  Uiso   1.00
H36    H     0.24351   0.21849   0.47532   0.00000  Uiso   1.00
H37    H     0.12243   0.31010   0.11586   0.00000  Uiso   1.00
H38    H     0.24131   0.21839   0.38826   0.00000  Uiso   1.00
H39    H     0.21106   0.18998   0.12748   0.00000  Uiso   1.00
H40    H     0.09201   0.28162   0.36859   0.00000  Uiso   1.00
H41    H     0.21122   0.18816   0.04069   0.00000  Uiso   1.00
H42    H     0.08991   0.28153   0.45503   0.00000  Uiso   1.00
N43    N     0.16667   0.24999   0.12624   0.00000  Uiso   1.00
N44    N     0.16667   0.25001   0.37376   0.00000  Uiso   1.00
O45    O     0.16667   0.18454   0.28974   0.00000  Uiso   1.00
O46    O     0.16666   0.31547   0.21026   0.00000  Uiso   1.00
O47    O     0.16667   0.18453   0.21026   0.00000  Uiso   1.00
O48    O     0.16666   0.31547   0.28974   0.00000  Uiso   1.00
O49    O     0.09058   0.25000   0.28044   0.00000  Uiso   1.00
O50    O     0.24275   0.25000   0.21956   0.00000  Uiso   1.00
O51    O     0.09058   0.25000   0.20096   0.00000  Uiso   1.00
O52    O     0.24275   0.25001   0.29903   0.00000  Uiso   1.00
Zn53   Zn    0.16667   0.25001   0.30307   0.00000  Uiso   1.00
Zn54   Zn    0.16667   0.25000   0.19693   0.00000  Uiso   1.00
O55    O     0.25917   0.11501   0.27975   0.00000  Uiso   1.00
C56    C     0.27211   0.11107   0.32995   0.00000  Uiso   1.00
H57    H     0.25952   0.07878   0.34424   0.00000  Uiso   1.00
H58    H     0.25269   0.13858   0.34745   0.00000  Uiso   1.00
C59    C     0.33177   0.11367   0.34425   0.00000  Uiso   1.00
H60    H     0.00834   0.10718   0.38317   0.00000  Uiso   1.00
H61    H     0.01784   0.08740   0.32500   0.00000  Uiso   1.00
C62    C     0.01974   0.15929   0.33331   0.00000  Uiso   1.00
H63    H     0.01081   0.16626   0.29455   0.00000  Uiso   1.00
H64    H     0.06308   0.15967   0.34388   0.00000  Uiso   1.00
H65    H     0.00190   0.18580   0.35342   0.00000  Uiso   1.00
O66    O     0.21474   0.38423   0.18201   0.00000  Uiso   1.00
C67    C     0.26575   0.36870   0.20076   0.00000  Uiso   1.00
H68    H     0.27057   0.33495   0.18552   0.00000  Uiso   1.00
H69    H     0.27246   0.36463   0.24040   0.00000  Uiso   1.00
C70    C     0.30726   0.39966   0.18531   0.00000  Uiso   1.00
H71    H     0.29656   0.40826   0.14694   0.00000  Uiso   1.00
H72    H     0.30859   0.43105   0.20645   0.00000  Uiso   1.00
C73    C     0.02821   0.37753   0.19262   0.00000  Uiso   1.00
H74    H     0.03828   0.36585   0.22995   0.00000  Uiso   1.00
H75    H     0.05818   0.40189   0.18483   0.00000  Uiso   1.00
H76    H     0.02893   0.34843   0.16833   0.00000  Uiso   1.00
C77    C     0.06645   0.11895   0.21895   0.00000  Uiso   1.00
C78    C     0.05362   0.12211   0.16478   0.00000  Uiso   1.00
H79    H     0.01587   0.14048   0.15497   0.00000  Uiso   1.00
H80    H     0.08507   0.14041   0.15006   0.00000  Uiso   1.00
H81    H     0.04973   0.08819   0.14875   0.00000  Uiso   1.00
H82    H     0.03421   0.10120   0.23314   0.00000  Uiso   1.00
H83    H     0.06729   0.15317   0.23406   0.00000  Uiso   1.00
C84    C     0.10561   0.38850   0.31648   0.00000  Uiso   1.00
C85    C     0.13685   0.38598   0.36658   0.00000  Uiso   1.00
H86    H     0.11225   0.37079   0.39130   0.00000  Uiso   1.00
H87    H     0.17287   0.36521   0.36671   0.00000  Uiso   1.00
H88    H     0.14832   0.42000   0.37971   0.00000  Uiso   1.00
H89    H     0.06963   0.40910   0.31786   0.00000  Uiso   1.00
H90    H     0.09077   0.35497   0.30504   0.00000  Uiso   1.00
C91    C     0.50053   0.16413   0.25006   0.00000  Uiso   1.00
C92    C     0.49885   0.33627   0.24990   0.00000  Uiso   1.00
C93    C     0.47492   0.28431   0.04933   0.00000  Uiso   1.00
C94    C     0.54260   0.23208   0.45302   0.00000  Uiso   1.00
C95    C     0.47525   0.28358   0.09901   0.00000  Uiso   1.00
C96    C     0.54171   0.23230   0.40327   0.00000  Uiso   1.00
C97    C     0.52486   0.21646   0.10552   0.00000  Uiso   1.00
C98    C     0.45828   0.26765   0.39226   0.00000  Uiso   1.00
C99    C     0.52526   0.21578   0.05594   0.00000  Uiso   1.00
C100   C     0.45745   0.26792   0.44178   0.00000  Uiso   1.00
C101   C     0.50008   0.25004   0.02670   0.00000  Uiso   1.00
C102   C     0.50005   0.25002   0.47333   0.00000  Uiso   1.00
C103   C     0.40035   0.25094   0.23756   0.00000  Uiso   1.00
C104   C     0.59961   0.25123   0.26239   0.00000  Uiso   1.00
C105   C     0.34533   0.25192   0.23071   0.00000  Uiso   1.00
C106   C     0.65450   0.25428   0.26896   0.00000  Uiso   1.00
C107   C     0.54586   0.04670   0.26114   0.00000  Uiso   1.00
C108   C     0.52491   0.45311   0.21524   0.00000  Uiso   1.00
C109   C     0.54590   0.09289   0.26479   0.00000  Uiso   1.00
C110   C     0.52551   0.40696   0.21659   0.00000  Uiso   1.00
C111   C     0.49901   0.11653   0.24976   0.00000  Uiso   1.00
C112   C     0.49850   0.38462   0.24972   0.00000  Uiso   1.00
C113   C     0.45140   0.09441   0.23375   0.00000  Uiso   1.00
C114   C     0.47137   0.40927   0.28163   0.00000  Uiso   1.00
C115   C     0.45193   0.04804   0.23236   0.00000  Uiso   1.00
C116   C     0.47216   0.45558   0.27956   0.00000  Uiso   1.00
C117   C     0.49894   0.02473   0.24580   0.00000  Uiso   1.00
C118   C     0.49858   0.47692   0.24669   0.00000  Uiso   1.00
H119   H     0.65821   0.24938   0.19438   0.00000  Uiso   1.00
H120   H     0.34166   0.25728   0.30523   0.00000  Uiso   1.00
H121   H     0.58202   0.02796   0.27149   0.00000  Uiso   1.00
H122   H     0.54455   0.47043   0.18935   0.00000  Uiso   1.00
H123   H     0.41585   0.02999   0.22092   0.00000  Uiso   1.00
H124   H     0.45188   0.47529   0.30352   0.00000  Uiso   1.00
H125   H     0.45567   0.31195   0.02902   0.00000  Uiso   1.00
H126   H     0.57684   0.21849   0.47532   0.00000  Uiso   1.00
H127   H     0.45577   0.31010   0.11586   0.00000  Uiso   1.00
H128   H     0.57465   0.21839   0.38826   0.00000  Uiso   1.00
H129   H     0.54440   0.18998   0.12748   0.00000  Uiso   1.00
H130   H     0.42534   0.28162   0.36859   0.00000  Uiso   1.00
H131   H     0.54455   0.18816   0.04069   0.00000  Uiso   1.00
H132   H     0.42324   0.28153   0.45503   0.00000  Uiso   1.00
N133   N     0.50000   0.24999   0.12624   0.00000  Uiso   1.00
N134   N     0.50000   0.25001   0.37376   0.00000  Uiso   1.00
O135   O     0.50000   0.18454   0.28974   0.00000  Uiso   1.00
O136   O     0.50000   0.31547   0.21026   0.00000  Uiso   1.00
O137   O     0.50000   0.18453   0.21026   0.00000  Uiso   1.00
O138   O     0.50000   0.31547   0.28974   0.00000  Uiso   1.00
O139   O     0.42392   0.25000   0.28044   0.00000  Uiso   1.00
O140   O     0.57608   0.25000   0.21956   0.00000  Uiso   1.00
O141   O     0.42392   0.25000   0.20096   0.00000  Uiso   1.00
O142   O     0.57608   0.25001   0.29903   0.00000  Uiso   1.00
Zn143  Zn    0.50000   0.25001   0.30307   0.00000  Uiso   1.00
Zn144  Zn    0.50000   0.25000   0.19693   0.00000  Uiso   1.00
O145   O     0.59250   0.11501   0.27975   0.00000  Uiso   1.00
C146   C     0.60544   0.11107   0.32995   0.00000  Uiso   1.00
H147   H     0.59286   0.07878   0.34424   0.00000  Uiso   1.00
H148   H     0.58602   0.13858   0.34745   0.00000  Uiso   1.00
C149   C     0.66510   0.11367   0.34425   0.00000  Uiso   1.00
H150   H     0.34168   0.10718   0.38317   0.00000  Uiso   1.00
H151   H     0.35117   0.08740   0.32500   0.00000  Uiso   1.00
C152   C     0.35308   0.15929   0.33331   0.00000  Uiso   1.00
H153   H     0.34414   0.16626   0.29455   0.00000  Uiso   1.00
H154   H     0.39642   0.15967   0.34388   0.00000  Uiso   1.00
H155   H     0.33523   0.18580   0.35342   0.00000  Uiso   1.00
O156   O     0.54808   0.38423   0.18201   0.00000  Uiso   1.00
C157   C     0.59908   0.36870   0.20076   0.00000  Uiso   1.00
H158   H     0.60390   0.33495   0.18552   0.00000  Uiso   1.00
H159   H     0.60579   0.36463   0.24040   0.00000  Uiso   1.00
C160   C     0.64059   0.39966   0.18531   0.00000  Uiso   1.00
H161   H     0.62989   0.40826   0.14694   0.00000  Uiso   1.00
H162   H     0.64193   0.43105   0.20645   0.00000  Uiso   1.00
C163   C     0.36155   0.37753   0.19262   0.00000  Uiso   1.00
H164   H     0.37162   0.36585   0.22995   0.00000  Uiso   1.00
H165   H     0.39151   0.40189   0.18483   0.00000  Uiso   1.00
H166   H     0.36227   0.34843   0.16833   0.00000  Uiso   1.00
C167   C     0.39979   0.11895   0.21895   0.00000  Uiso   1.00
C168   C     0.38696   0.12211   0.16478   0.00000  Uiso   1.00
H169   H     0.34920   0.14048   0.15497   0.00000  Uiso   1.00
H170   H     0.41840   0.14041   0.15006   0.00000  Uiso   1.00
H171   H     0.38306   0.08819   0.14875   0.00000  Uiso   1.00
H172   H     0.36754   0.10120   0.23314   0.00000  Uiso   1.00
H173   H     0.40063   0.15317   0.23406   0.00000  Uiso   1.00
C174   C     0.43895   0.38850   0.31648   0.00000  Uiso   1.00
C175   C     0.47018   0.38598   0.36658   0.00000  Uiso   1.00
H176   H     0.44558   0.37079   0.39130   0.00000  Uiso   1.00
H177   H     0.50620   0.36521   0.36671   0.00000  Uiso   1.00
H178   H     0.48166   0.42000   0.37971   0.00000  Uiso   1.00
H179   H     0.40296   0.40910   0.31786   0.00000  Uiso   1.00
H180   H     0.42411   0.35497   0.30504   0.00000  Uiso   1.00
C181   C     0.83387   0.16413   0.25006   0.00000  Uiso   1.00
C182   C     0.83219   0.33627   0.24990   0.00000  Uiso   1.00
C183   C     0.80825   0.28431   0.04933   0.00000  Uiso   1.00
C184   C     0.87593   0.23208   0.45302   0.00000  Uiso   1.00
C185   C     0.80858   0.28358   0.09901   0.00000  Uiso   1.00
C186   C     0.87504   0.23230   0.40327   0.00000  Uiso   1.00
C187   C     0.85820   0.21646   0.10552   0.00000  Uiso   1.00
C188   C     0.79161   0.26765   0.39226   0.00000  Uiso   1.00
C189   C     0.85859   0.21578   0.05594   0.00000  Uiso   1.00
C190   C     0.79079   0.26792   0.44178   0.00000  Uiso   1.00
C191   C     0.83341   0.25004   0.02670   0.00000  Uiso   1.00
C192   C     0.83338   0.25002   0.47333   0.00000  Uiso   1.00
C193   C     0.73368   0.25094   0.23756   0.00000  Uiso   1.00
C194   C     0.93295   0.25123   0.26239   0.00000  Uiso   1.00
C195   C     0.67867   0.25192   0.23071   0.00000  Uiso   1.00
C196   C     0.98784   0.25428   0.26896   0.00000  Uiso   1.00
C197   C     0.87919   0.04670   0.26114   0.00000  Uiso   1.00
C198   C     0.85824   0.45311   0.21524   0.00000  Uiso   1.00
C199   C     0.87923   0.09289   0.26479   0.00000  Uiso   1.00
C200   C     0.85884   0.40696   0.21659   0.00000  Uiso   1.00
C201   C     0.83234   0.11653   0.24976   0.00000  Uiso   1.00
C202   C     0.83184   0.38462   0.24972   0.00000  Uiso   1.00
C203   C     0.78473   0.09441   0.23375   0.00000  Uiso   1.00
C204   C     0.80470   0.40927   0.28163   0.00000  Uiso   1.00
C205   C     0.78526   0.04804   0.23236   0.00000  Uiso   1.00
C206   C     0.80549   0.45558   0.27956   0.00000  Uiso   1.00
C207   C     0.83228   0.02473   0.24580   0.00000  Uiso   1.00
C208   C     0.83191   0.47692   0.24669   0.00000  Uiso   1.00
H209   H     0.99154   0.24938   0.19438   0.00000  Uiso   1.00
H210   H     0.67500   0.25728   0.30523   0.00000  Uiso   1.00
H211   H     0.91535   0.02796   0.27149   0.00000  Uiso   1.00
H212   H     0.87789   0.47043   0.18935   0.00000  Uiso   1.00
H213   H     0.74919   0.02999   0.22092   0.00000  Uiso   1.00
H214   H     0.78521   0.47529   0.30352   0.00000  Uiso   1.00
H215   H     0.78901   0.31195   0.02902   0.00000  Uiso   1.00
H216   H     0.91018   0.21849   0.47532   0.00000  Uiso   1.00
H217   H     0.78910   0.31010   0.11586   0.00000  Uiso   1.00
H218   H     0.90798   0.21839   0.38826   0.00000  Uiso   1.00
H219   H     0.87773   0.18998   0.12748   0.00000  Uiso   1.00
H220   H     0.75868   0.28162   0.36859   0.00000  Uiso   1.00
H221   H     0.87788   0.18816   0.04069   0.00000  Uiso   1.00
H222   H     0.75657   0.28153   0.45503   0.00000  Uiso   1.00
N223   N     0.83333   0.24999   0.12624   0.00000  Uiso   1.00
N224   N     0.83333   0.25001   0.37376   0.00000  Uiso   1.00
O225   O     0.83334   0.18454   0.28974   0.00000  Uiso   1.00
O226   O     0.83333   0.31547   0.21026   0.00000  Uiso   1.00
O227   O     0.83334   0.18453   0.21026   0.00000  Uiso   1.00
O228   O     0.83333   0.31547   0.28974   0.00000  Uiso   1.00
O229   O     0.75725   0.25000   0.28044   0.00000  Uiso   1.00
O230   O     0.90942   0.25000   0.21956   0.00000  Uiso   1.00
O231   O     0.75725   0.25000   0.20096   0.00000  Uiso   1.00
O232   O     0.90942   0.25001   0.29903   0.00000  Uiso   1.00
Zn233  Zn    0.83333   0.25001   0.30307   0.00000  Uiso   1.00
Zn234  Zn    0.83333   0.25000   0.19693   0.00000  Uiso   1.00
O235   O     0.92583   0.11501   0.27975   0.00000  Uiso   1.00
C236   C     0.93878   0.11107   0.32995   0.00000  Uiso   1.00
H237   H     0.92619   0.07878   0.34424   0.00000  Uiso   1.00
H238   H     0.91936   0.13858   0.34745   0.00000  Uiso   1.00
C239   C     0.99843   0.11367   0.34425   0.00000  Uiso   1.00
H240   H     0.67501   0.10718   0.38317   0.00000  Uiso   1.00
H241   H     0.68450   0.08740   0.32500   0.00000  Uiso   1.00
C242   C     0.68641   0.15929   0.33331   0.00000  Uiso   1.00
H243   H     0.67747   0.16626   0.29455   0.00000  Uiso   1.00
H244   H     0.72975   0.15967   0.34388   0.00000  Uiso   1.00
H245   H     0.66856   0.18580   0.35342   0.00000  Uiso   1.00
O246   O     0.88141   0.38423   0.18201   0.00000  Uiso   1.00
C247   C     0.93242   0.36870   0.20076   0.00000  Uiso   1.00
H248   H     0.93723   0.33495   0.18552   0.00000  Uiso   1.00
H249   H     0.93913   0.36463   0.24040   0.00000  Uiso   1.00
C250   C     0.97392   0.39966   0.18531   0.00000  Uiso   1.00
H251   H     0.96323   0.40826   0.14694   0.00000  Uiso   1.00
H252   H     0.97526   0.43105   0.20645   0.00000  Uiso   1.00
C253   C     0.69488   0.37753   0.19262   0.00000  Uiso   1.00
H254   H     0.70495   0.36585   0.22995   0.00000  Uiso   1.00
H255   H     0.72485   0.40189   0.18483   0.00000  Uiso   1.00
H256   H     0.69560   0.34843   0.16833   0.00000  Uiso   1.00
C257   C     0.73312   0.11895   0.21895   0.00000  Uiso   1.00
C258   C     0.72029   0.12211   0.16478   0.00000  Uiso   1.00
H259   H     0.68253   0.14048   0.15497   0.00000  Uiso   1.00
H260   H     0.75173   0.14041   0.15006   0.00000  Uiso   1.00
H261   H     0.71639   0.08819   0.14875   0.00000  Uiso   1.00
H262   H     0.70087   0.10120   0.23314   0.00000  Uiso   1.00
H263   H     0.73396   0.15317   0.23406   0.00000  Uiso   1.00
C264   C     0.77228   0.38850   0.31648   0.00000  Uiso   1.00
C265   C     0.80352   0.38598   0.36658   0.00000  Uiso   1.00
H266   H     0.77891   0.37079   0.39130   0.00000  Uiso   1.00
H267   H     0.83953   0.36521   0.36671   0.00000  Uiso   1.00
H268   H     0.81499   0.42000   0.37971   0.00000  Uiso   1.00
H269   H     0.73630   0.40910   0.31786   0.00000  Uiso   1.00
H270   H     0.75744   0.35497   0.30504   0.00000  Uiso   1.00
C271   C     0.16720   0.66413   0.25006   0.00000  Uiso   1.00
C272   C     0.16552   0.83627   0.24990   0.00000  Uiso   1.00
C273   C     0.14159   0.78431   0.04933   0.00000  Uiso   1.00
C274   C     0.20927   0.73208   0.45302   0.00000  Uiso   1.00
C275   C     0.14192   0.78358   0.09901   0.00000  Uiso   1.00
C276   C     0.20838   0.73230   0.40327   0.00000  Uiso   1.00
C277   C     0.19153   0.71646   0.10552   0.00000  Uiso   1.00
C278   C     0.12494   0.76765   0.39226   0.00000  Uiso   1.00
C279   C     0.19192   0.71578   0.05594   0.00000  Uiso   1.00
C280   C     0.12412   0.76792   0.44178   0.00000  Uiso   1.00
C281   C     0.16674   0.75004   0.02670   0.00000  Uiso   1.00
C282   C     0.16671   0.75002   0.47333   0.00000  Uiso   1.00
C283   C     0.06702   0.75094   0.23756   0.00000  Uiso   1.00
C284   C     0.26628   0.75123   0.26239   0.00000  Uiso   1.00
C285   C     0.01200   0.75192   0.23071   0.00000  Uiso   1.00
C286   C     0.32117   0.75428   0.26896   0.00000  Uiso   1.00
C287   C     0.21252   0.54670   0.26114   0.00000  Uiso   1.00
C288   C     0.19157   0.95311   0.21524   0.00000  Uiso   1.00
C289   C     0.21256   0.59289   0.26479   0.00000  Uiso   1.00
C290   C     0.19218   0.90696   0.21659   0.00000  Uiso   1.00
C291   C     0.16568   0.61653   0.24976   0.00000  Uiso   1.00
C292   C     0.16517   0.88462   0.24972   0.00000  Uiso   1.00
C293   C     0.11807   0.59441   0.23375   0.00000  Uiso   1.00
C294   C     0.13804   0.90927   0.28163   0.00000  Uiso   1.00
C295   C     0.11860   0.54804   0.23236   0.00000  Uiso   1.00
C296   C     0.13882   0.95558   0.27956   0.00000  Uiso   1.00
C297   C     0.16561   0.52473   0.24580   0.00000  Uiso   1.00
C298   C     0.16525   0.97692   0.24669   0.00000  Uiso   1.00
H299   H     0.32488   0.74938   0.19438   0.00000  Uiso   1.00
H300   H     0.00833   0.75728   0.30523   0.00000  Uiso   1.00
H301   H     0.24869   0.52796   0.27149   0.00000  Uiso   1.00
H302   H     0.21122   0.97043   0.18935   0.00000  Uiso   1.00
H303   H     0.08252   0.52999   0.22092   0.00000  Uiso   1.00
H304   H     0.11854   0.97529   0.30352   0.00000  Uiso   1.00
H305   H     0.12234   0.81195   0.02902   0.00000  Uiso   1.00
H306   H     0.24351   0.71849   0.47532   0.00000  Uiso   1.00
H307   H     0.12243   0.81010   0.11586   0.00000  Uiso   1.00
H308   H     0.24131   0.71839   0.38826   0.00000  Uiso   1.00
H309   H     0.21106   0.68998   0.12748   0.00000  Uiso   1.00
H310   H     0.09201   0.78162   0.36859   0.00000  Uiso   1.00
H311   H     0.21122   0.68816   0.04069   0.00000  Uiso   1.00
H312   H     0.08991   0.78153   0.45503   0.00000  Uiso   1.00
N313   N     0.16667   0.74999   0.12624   0.00000  Uiso   1.00
N314   N     0.16667   0.75001   0.37376   0.00000  Uiso   1.00
O315   O     0.16667   0.68454   0.28974   0.00000  Uiso   1.00
O316   O     0.16666   0.81547   0.21026   0.00000  Uiso   1.00
O317   O     0.16667   0.68453   0.21026   0.00000  Uiso   1.00
O318   O     0.16666   0.81547   0.28974   0.00000  Uiso   1.00
O319   O     0.09058   0.75000   0.28044   0.00000  Uiso   1.00
O320   O     0.24275   0.75000   0.21956   0.00000  Uiso   1.00
O321   O     0.09058   0.75000   0.20096   0.00000  Uiso   1.00
O322   O     0.24275   0.75001   0.29903   0.00000  Uiso   1.00
Zn323  Zn    0.16667   0.75001   0.30307   0.00000  Uiso   1.00
Zn324  Zn    0.16667   0.75000   0.19693   0.00000  Uiso   1.00
O325   O     0.25917   0.61501   0.27975   0.00000  Uiso   1.00
C326   C     0.27211   0.61107   0.32995   0.00000  Uiso   1.00
H327   H     0.25952   0.57878   0.34424   0.00000  Uiso   1.00
H328   H     0.25269   0.63858   0.34745   0.00000  Uiso   1.00
C329   C     0.33177   0.61367   0.34425   0.00000  Uiso   1.00
H330   H     0.00834   0.60718   0.38317   0.00000  Uiso   1.00
H331   H     0.01784   0.58740   0.32500   0.00000  Uiso   1.00
C332   C     0.01974   0.65929   0.33331   0.00000  Uiso   1.00
H333   H     0.01081   0.66626   0.29455   0.00000  Uiso   1.00
H334   H     0.06308   0.65967   0.34388   0.00000  Uiso   1.00
H335   H     0.00190   0.68580   0.35342   0.00000  Uiso   1.00
O336   O     0.21474   0.88423   0.18201   0.00000  Uiso   1.00
C337   C     0.26575   0.86870   0.20076   0.00000  Uiso   1.00
H338   H     0.27057   0.83495   0.18552   0.00000  Uiso   1.00
H339   H     0.27246   0.86463   0.24040   0.00000  Uiso   1.00
C340   C     0.30726   0.89966   0.18531   0.00000  Uiso   1.00
H341   H     0.29656   0.90826   0.14694   0.00000  Uiso   1.00
H342   H     0.30859   0.93105   0.20645   0.00000  Uiso   1.00
C343   C     0.02821   0.87753   0.19262   0.00000  Uiso   1.00
H344   H     0.03828   0.86585   0.22995   0.00000  Uiso   1.00
H345   H     0.05818   0.90189   0.18483   0.00000  Uiso   1.00
H346   H     0.02893   0.84843   0.16833   0.00000  Uiso   1.00
C347   C     0.06645   0.61895   0.21895   0.00000  Uiso   1.00
C348   C     0.05362   0.62211   0.16478   0.00000  Uiso   1.00
H349   H     0.01587   0.64048   0.15497   0.00000  Uiso   1.00
H350   H     0.08507   0.64041   0.15006   0.00000  Uiso   1.00
H351   H     0.04973   0.58819   0.14875   0.00000  Uiso   1.00
H352   H     0.03421   0.60120   0.23314   0.00000  Uiso   1.00
H353   H     0.06729   0.65317   0.23406   0.00000  Uiso   1.00
C354   C     0.10561   0.88850   0.31648   0.00000  Uiso   1.00
C355   C     0.13685   0.88598   0.36658   0.00000  Uiso   1.00
H356   H     0.11225   0.87079   0.39130   0.00000  Uiso   1.00
H357   H     0.17287   0.86521   0.36671   0.00000  Uiso   1.00
H358   H     0.14832   0.92000   0.37971   0.00000  Uiso   1.00
H359   H     0.06963   0.90910   0.31786   0.00000  Uiso   1.00
H360   H     0.09077   0.85497   0.30504   0.00000  Uiso   1.00
C361   C     0.50053   0.66413   0.25006   0.00000  Uiso   1.00
C362   C     0.49885   0.83627   0.24990   0.00000  Uiso   1.00
C363   C     0.47492   0.78431   0.04933   0.00000  Uiso   1.00
C364   C     0.54260   0.73208   0.45302   0.00000  Uiso   1.00
C365   C     0.47525   0.78358   0.09901   0.00000  Uiso   1.00
C366   C     0.54171   0.73230   0.40327   0.00000  Uiso   1.00
C367   C     0.52486   0.71646   0.10552   0.00000  Uiso   1.00
C368   C     0.45828   0.76765   0.39226   0.00000  Uiso   1.00
C369   C     0.52526   0.71578   0.05594   0.00000  Uiso   1.00
C370   C     0.45745   0.76792   0.44178   0.00000  Uiso   1.00
C371   C     0.50008   0.75004   0.02670   0.00000  Uiso   1.00
C372   C     0.50005   0.75002   0.47333   0.00000  Uiso   1.00
C373   C     0.40035   0.75094   0.23756   0.00000  Uiso   1.00
C374   C     0.59961   0.75123   0.26239   0.00000  Uiso   1.00
C375   C     0.34533   0.75192   0.23071   0.00000  Uiso   1.00
C376   C     0.65450   0.75428   0.26896   0.00000  Uiso   1.00
C377   C     0.54586   0.54670   0.26114   0.00000  Uiso   1.00
C378   C     0.52491   0.95311   0.21524   0.00000  Uiso   1.00
C379   C     0.54590   0.59289   0.26479   0.00000  Uiso   1.00
C380   C     0.52551   0.90696   0.21659   0.00000  Uiso   1.00
C381   C     0.49901   0.61653   0.24976   0.00000  Uiso   1.00
C382   C     0.49850   0.88462   0.24972   0.00000  Uiso   1.00
C383   C     0.45140   0.59441   0.23375   0.00000  Uiso   1.00
C384   C     0.47137   0.90927   0.28163   0.00000  Uiso   1.00
C385   C     0.45193   0.54804   0.23236   0.00000  Uiso   1.00
C386   C     0.47216   0.95558   0.27956   0.00000  Uiso   1.00
C387   C     0.49894   0.52473   0.24580   0.00000  Uiso   1.00
C388   C     0.49858   0.97692   0.24669   0.00000  Uiso   1.00
H389   H     0.65821   0.74938   0.19438   0.00000  Uiso   1.00
H390   H     0.34166   0.75728   0.30523   0.00000  Uiso   1.00
H391   H     0.58202   0.52796   0.27149   0.00000  Uiso   1.00
H392   H     0.54455   0.97043   0.18935   0.00000  Uiso   1.00
H393   H     0.41585   0.52999   0.22092   0.00000  Uiso   1.00
H394   H     0.45188   0.97529   0.30352   0.00000  Uiso   1.00
H395   H     0.45567   0.81195   0.02902   0.00000  Uiso   1.00
H396   H     0.57684   0.71849   0.47532   0.00000  Uiso   1.00
H397   H     0.45577   0.81010   0.11586   0.00000  Uiso   1.00
H398   H     0.57465   0.71839   0.38826   0.00000  Uiso   1.00
H399   H     0.54440   0.68998   0.12748   0.00000  Uiso   1.00
H400   H     0.42534   0.78162   0.36859   0.00000  Uiso   1.00
H401   H     0.54455   0.68816   0.04069   0.00000  Uiso   1.00
H402   H     0.42324   0.78153   0.45503   0.00000  Uiso   1.00
N403   N     0.50000   0.74999   0.12624   0.00000  Uiso   1.00
N404   N     0.50000   0.75001   0.37376   0.00000  Uiso   1.00
O405   O     0.50000   0.68454   0.28974   0.00000  Uiso   1.00
O406   O     0.50000   0.81547   0.21026   0.00000  Uiso   1.00
O407   O     0.50000   0.68453   0.21026   0.00000  Uiso   1.00
O408   O     0.50000   0.81547   0.28974   0.00000  Uiso   1.00
O409   O     0.42392   0.75000   0.28044   0.00000  Uiso   1.00
O410   O     0.57608   0.75000   0.21956   0.00000  Uiso   1.00
O411   O     0.42392   0.75000   0.20096   0.00000  Uiso   1.00
O412   O     0.57608   0.75001   0.29903   0.00000  Uiso   1.00
Zn413  Zn    0.50000   0.75001   0.30307   0.00000  Uiso   1.00
Zn414  Zn    0.50000   0.75000   0.19693   0.00000  Uiso   1.00
O415   O     0.59250   0.61501   0.27975   0.00000  Uiso   1.00
C416   C     0.60544   0.61107   0.32995   0.00000  Uiso   1.00
H417   H     0.59286   0.57878   0.34424   0.00000  Uiso   1.00
H418   H     0.58602   0.63858   0.34745   0.00000  Uiso   1.00
C419   C     0.66510   0.61367   0.34425   0.00000  Uiso   1.00
H420   H     0.34168   0.60718   0.38317   0.00000  Uiso   1.00
H421   H     0.35117   0.58740   0.32500   0.00000  Uiso   1.00
C422   C     0.35308   0.65929   0.33331   0.00000  Uiso   1.00
H423   H     0.34414   0.66626   0.29455   0.00000  Uiso   1.00
H424   H     0.39642   0.65967   0.34388   0.00000  Uiso   1.00
H425   H     0.33523   0.68580   0.35342   0.00000  Uiso   1.00
O426   O     0.54808   0.88423   0.18201   0.00000  Uiso   1.00
C427   C     0.59908   0.86870   0.20076   0.00000  Uiso   1.00
H428   H     0.60390   0.83495   0.18552   0.00000  Uiso   1.00
H429   H     0.60579   0.86463   0.24040   0.00000  Uiso   1.00
C430   C     0.64059   0.89966   0.18531   0.00000  Uiso   1.00
H431   H     0.62989   0.90826   0.14694   0.00000  Uiso   1.00
H432   H     0.64193   0.93105   0.20645   0.00000  Uiso   1.00
C433   C     0.36155   0.87753   0.19262   0.00000  Uiso   1.00
H434   H     0.37162   0.86585   0.22995   0.00000  Uiso   1.00
H435   H     0.39151   0.90189   0.18483   0.00000  Uiso   1.00
H436   H     0.36227   0.84843   0.16833   0.00000  Uiso   1.00
C437   C     0.39979   0.61895   0.21895   0.00000  Uiso   1.00
C438   C     0.38696   0.62211   0.16478   0.00000  Uiso   1.00
H439   H     0.34920   0.64048   0.15497   0.00000  Uiso   1.00
H440   H     0.41840   0.64041   0.15006   0.00000  Uiso   1.00
H441   H     0.38306   0.58819   0.14875   0.00000  Uiso   1.00
H442   H     0.36754   0.60120   0.23314   0.00000  Uiso   1.00
H443   H     0.40063   0.65317   0.23406   0.00000  Uiso   1.00
C444   C     0.43895   0.88850   0.31648   0.00000  Uiso   1.00
C445   C     0.47018   0.88598   0.36658   0.00000  Uiso   1.00
H446   H     0.44558   0.87079   0.39130   0.00000  Uiso   1.00
H447   H     0.50620   0.86521   0.36671   0.00000  Uiso   1.00
H448   H     0.48166   0.92000   0.37971   0.00000  Uiso   1.00
H449   H     0.40296   0.90910   0.31786   0.00000  Uiso   1.00
H450   H     0.42411   0.85497   0.30504   0.00000  Uiso   1.00
C451   C     0.83387   0.66413   0.25006   0.00000  Uiso   1.00
C452   C     0.83219   0.83627   0.24990   0.00000  Uiso   1.00
C453   C     0.80825   0.78431   0.04933   0.00000  Uiso   1.00
C454   C     0.87593   0.73208   0.45302   0.00000  Uiso   1.00
C455   C     0.80858   0.78358   0.09901   0.00000  Uiso   1.00
C456   C     0.87504   0.73230   0.40327   0.00000  Uiso   1.00
C457   C     0.85820   0.71646   0.10552   0.00000  Uiso   1.00
C458   C     0.79161   0.76765   0.39226   0.00000  Uiso   1.00
C459   C     0.85859   0.71578   0.05594   0.00000  Uiso   1.00
C460   C     0.79079   0.76792   0.44178   0.00000  Uiso   1.00
C461   C     0.83341   0.75004   0.02670   0.00000  Uiso   1.00
C462   C     0.83338   0.75002   0.47333   0.00000  Uiso   1.00
C463   C     0.73368   0.75094   0.23756   0.00000  Uiso   1.00
C464   C     0.93295   0.75123   0.26239   0.00000  Uiso   1.00
C465   C     0.67867   0.75192   0.23071   0.00000  Uiso   1.00
C466   C     0.98784   0.75428   0.26896   0.00000  Uiso   1.00
C467   C     0.87919   0.54670   0.26114   0.00000  Uiso   1.00
C468   C     0.85824   0.95311   0.21524   0.00000  Uiso   1.00
C469   C     0.87923   0.59289   0.26479   0.00000  Uiso   1.00
C470   C     0.85884   0.90696   0.21659   0.00000  Uiso   1.00
C471   C     0.83234   0.61653   0.24976   0.00000  Uiso   1.00
C472   C     0.83184   0.88462   0.24972   0.00000  Uiso   1.00
C473   C     0.78473   0.59441   0.23375   0.00000  Uiso   1.00
C474   C     0.80470   0.90927   0.28163   0.00000  Uiso   1.00
C475   C     0.78526   0.54804   0.23236   0.00000  Uiso   1.00
C476   C     0.80549   0.95558   0.27956   0.00000  Uiso   1.00
C477   C     0.83228   0.52473   0.24580   0.00000  Uiso   1.00
C478   C     0.83191   0.97692   0.24669   0.00000  Uiso   1.00
H479   H     0.99154   0.74938   0.19438   0.00000  Uiso   1.00
H480   H     0.67500   0.75728   0.30523   0.00000  Uiso   1.00
H481   H     0.91535   0.52796   0.27149   0.00000  Uiso   1.00
H482   H     0.87789   0.97043   0.18935   0.00000  Uiso   1.00
H483   H     0.74919   0.52999   0.22092   0.00000  Uiso   1.00
H484   H     0.78521   0.97529   0.30352   0.00000  Uiso   1.00
H485   H     0.78901   0.81195   0.02902   0.00000  Uiso   1.00
H486   H     0.91018   0.71849   0.47532   0.00000  Uiso   1.00
H487   H     0.78910   0.81010   0.11586   0.00000  Uiso   1.00
H488   H     0.90798   0.71839   0.38826   0.00000  Uiso   1.00
H489   H     0.87773   0.68998   0.12748   0.00000  Uiso   1.00
H490   H     0.75868   0.78162   0.36859   0.00000  Uiso   1.00
H491   H     0.87788   0.68816   0.04069   0.00000  Uiso   1.00
H492   H     0.75657   0.78153   0.45503   0.00000  Uiso   1.00
N493   N     0.83333   0.74999   0.12624   0.00000  Uiso   1.00
N494   N     0.83333   0.75001   0.37376   0.00000  Uiso   1.00
O495   O     0.83334   0.68454   0.28974   0.00000  Uiso   1.00
O496   O     0.83333   0.81547   0.21026   0.00000  Uiso   1.00
O497   O     0.83334   0.68453   0.21026   0.00000  Uiso   1.00
O498   O     0.83333   0.81547   0.28974   0.00000  Uiso   1.00
O499   O     0.75725   0.75000   0.28044   0.00000  Uiso   1.00
O500   O     0.90942   0.75000   0.21956   0.00000  Uiso   1.00
O501   O     0.75725   0.75000   0.20096   0.00000  Uiso   1.00
O502   O     0.90942   0.75001   0.29903   0.00000  Uiso   1.00
Zn503  Zn    0.83333   0.75001   0.30307   0.00000  Uiso   1.00
Zn504  Zn    0.83333   0.75000   0.19693   0.00000  Uiso   1.00
O505   O     0.92583   0.61501   0.27975   0.00000  Uiso   1.00
C506   C     0.93878   0.61107   0.32995   0.00000  Uiso   1.00
H507   H     0.92619   0.57878   0.34424   0.00000  Uiso   1.00
H508   H     0.91936   0.63858   0.34745   0.00000  Uiso   1.00
C509   C     0.99843   0.61367   0.34425   0.00000  Uiso   1.00
H510   H     0.67501   0.60718   0.38317   0.00000  Uiso   1.00
H511   H     0.68450   0.58740   0.32500   0.00000  Uiso   1.00
C512   C     0.68641   0.65929   0.33331   0.00000  Uiso   1.00
H513   H     0.67747   0.66626   0.29455   0.00000  Uiso   1.00
H514   H     0.72975   0.65967   0.34388   0.00000  Uiso   1.00
H515   H     0.66856   0.68580   0.35342   0.00000  Uiso   1.00
O516   O     0.88141   0.88423   0.18201   0.00000  Uiso   1.00
C517   C     0.93242   0.86870   0.20076   0.00000  Uiso   1.00
H518   H     0.93723   0.83495   0.18552   0.00000  Uiso   1.00
H519   H     0.93913   0.86463   0.24040   0.00000  Uiso   1.00
C520   C     0.97392   0.89966   0.18531   0.00000  Uiso   1.00
H521   H     0.96323   0.90826   0.14694   0.00000  Uiso   1.00
H522   H     0.97526   0.93105   0.20645   0.00000  Uiso   1.00
C523   C     0.69488   0.87753   0.19262   0.00000  Uiso   1.00
H524   H     0.70495   0.86585   0.22995   0.00000  Uiso   1.00
H525   H     0.72485   0.90189   0.18483   0.00000  Uiso   1.00
H526   H     0.69560   0.84843   0.16833   0.00000  Uiso   1.00
C527   C     0.73312   0.61895   0.21895   0.00000  Uiso   1.00
C528   C     0.72029   0.62211   0.16478   0.00000  Uiso   1.00
H529   H     0.68253   0.64048   0.15497   0.00000  Uiso   1.00
H530   H     0.75173   0.64041   0.15006   0.00000  Uiso   1.00
H531   H     0.71639   0.58819   0.14875   0.00000  Uiso   1.00
H532   H     0.70087   0.60120   0.23314   0.00000  Uiso   1.00
H533   H     0.73396   0.65317   0.23406   0.00000  Uiso   1.00
C534   C     0.77228   0.88850   0.31648   0.00000  Uiso   1.00
C535   C     0.80352   0.88598   0.36658   0.00000  Uiso   1.00
H536   H     0.77891   0.87079   0.39130   0.00000  Uiso   1.00
H537   H     0.83953   0.86521   0.36671   0.00000  Uiso   1.00
H538   H     0.81499   0.92000   0.37971   0.00000  Uiso   1.00
H539   H     0.73630   0.90910   0.31786   0.00000  Uiso   1.00
H540   H     0.75744   0.85497   0.30504   0.00000  Uiso   1.00
C541   C     0.16720   0.16413   0.75006   0.00000  Uiso   1.00
C542   C     0.16552   0.33627   0.74990   0.00000  Uiso   1.00
C543   C     0.14159   0.28431   0.54933   0.00000  Uiso   1.00
C544   C     0.20927   0.23208   0.95302   0.00000  Uiso   1.00
C545   C     0.14192   0.28358   0.59901   0.00000  Uiso   1.00
C546   C     0.20838   0.23230   0.90327   0.00000  Uiso   1.00
C547   C     0.19153   0.21646   0.60552   0.00000  Uiso   1.00
C548   C     0.12494   0.26765   0.89226   0.00000  Uiso   1.00
C549   C     0.19192   0.21578   0.55594   0.00000  Uiso   1.00
C550   C     0.12412   0.26792   0.94178   0.00000  Uiso   1.00
C551   C     0.16674   0.25004   0.52670   0.00000  Uiso   1.00
C552   C     0.16671   0.25002   0.97333   0.00000  Uiso   1.00
C553   C     0.06702   0.25094   0.73756   0.00000  Uiso   1.00
C554   C     0.26628   0.25123   0.76239   0.00000  Uiso   1.00
C555   C     0.01200   0.25192   0.73071   0.00000  Uiso   1.00
C556   C     0.32117   0.25428   0.76896   0.00000  Uiso   1.00
C557   C     0.21252   0.04670   0.76114   0.00000  Uiso   1.00
C558   C     0.19157   0.45311   0.71524   0.00000  Uiso   1.00
C559   C     0.21256   0.09289   0.76479   0.00000  Uiso   1.00
C560   C     0.19218   0.40696   0.71659   0.00000  Uiso   1.00
C561   C     0.16568   0.11653   0.74976   0.00000  Uiso   1.00
C562   C     0.16517   0.38462   0.74972   0.00000  Uiso   1.00
C563   C     0.11807   0.09441   0.73375   0.00000  Uiso   1.00
C564   C     0.13804   0.40927   0.78163   0.00000  Uiso   1.00
C565   C     0.11860   0.04804   0.73236   0.00000  Uiso   1.00
C566   C     0.13882   0.45558   0.77956   0.00000  Uiso   1.00
C567   C     0.16561   0.02473   0.74580   0.00000  Uiso   1.00
C568   C     0.16525   0.47692   0.74669   0.00000  Uiso   1.00
H569   H     0.32488   0.24938   0.69438   0.00000  Uiso   1.00
H570   H     0.00833   0.25728   0.80523   0.00000  Uiso   1.00
H571   H     0.24869   0.02796   0.77149   0.00000  Uiso   1.00
H572   H     0.21122   0.47043   0.68935   0.00000  Uiso   1.00
H573   H     0.08252   0.02999   0.72092   0.00000  Uiso   1.00
H574   H     0.11854   0.47529   0.80352   0.00000  Uiso   1.00
H575   H     0.12234   0.31195   0.52902   0.00000  Uiso   1.00
H576   H     0.24351   0.21849   0.97532   0.00000  Uiso   1.00
H577   H     0.12243   0.31010   0.61586   0.00000  Uiso   1.00
H578   H     0.24131   0.21839   0.88826   0.00000  Uiso   1.00
H579   H     0.21106   0.18998   0.62748   0.00000  Uiso   1.00
H580   H     0.09201   0.28162   0.86859   0.00000  Uiso   1.00
H581   H     0.21122   0.18816   0.54069   0.00000  Uiso   1.00
H582   H     0.08991   0.28153   0.95503   0.00000  Uiso   1.00
N583   N     0.16667   0.24999   0.62624   0.00000  Uiso   1.00
N584   N     0.16667   0.25001   0.87376   0.00000  Uiso   1.00
O585   O     0.16667   0.18454   0.78974   0.00000  Uiso   1.00
O586   O     0.16666   0.31547   0.71026   0.00000  Uiso   1.00
O587   O     0.16667   0.18453   0.71026   0.00000  Uiso   1.00
O588   O     0.16666   0.31547   0.78974   0.00000  Uiso   1.00
O589   O     0.09058   0.25000   0.78044   0.00000  Uiso   1.00
O590   O     0.24275   0.25000   0.71956   0.00000  Uiso   1.00
O591   O     0.09058   0.25000   0.70096   0.00000  Uiso   1.00
O592   O     0.24275   0.25001   0.79903   0.00000  Uiso   1.00
Zn593  Zn    0.16667   0.25001   0.80307   0.00000  Uiso   1.00
Zn594  Zn    0.16667   0.25000   0.69693   0.00000  Uiso   1.00
O595   O     0.25917   0.11501   0.77975   0.00000  Uiso   1.00
C596   C     0.27211   0.11107   0.82995   0.00000  Uiso   1.00
H597   H     0.25952   0.07878   0.84424   0.00000  Uiso   1.00
H598   H     0.25269   0.13858   0.84745   0.00000  Uiso   1.00
C599   C     0.33177   0.11367   0.84425   0.00000  Uiso   1.00
H600   H     0.00834   0.10718   0.88317   0.00000  Uiso   1.00
H601   H     0.01784   0.08740   0.82500   0.00000  Uiso   1.00
C602   C     0.01974   0.15929   0.83331   0.00000  Uiso   1.00
H603   H     0.01081   0.16626   0.79455   0.00000  Uiso   1.00
H604   H     0.06308   0.15967   0.84388   0.00000  Uiso   1.00
H605   H     0.00190   0.18580   0.85342   0.00000  Uiso   1.00
O606   O     0.21474   0.38423   0.68201   0.00000  Uiso   1.00
C607   C     0.26575   0.36870   0.70076   0.00000  Uiso   1.00
H608   H     0.27057   0.33495   0.68552   0.00000  Uiso   1.00
H609   H     0.27246   0.36463   0.74040   0.00000  Uiso   1.00
C610   C     0.30726   0.39966   0.68531   0.00000  Uiso   1.00
H611   H     0.29656   0.40826   0.64694   0.00000  Uiso   1.00
H612   H     0.30859   0.43105   0.70645   0.00000  Uiso   1.00
C613   C     0.02821   0.37753   0.69262   0.00000  Uiso   1.00
H614   H     0.03828   0.36585   0.72995   0.00000  Uiso   1.00
H615   H     0.05818   0.40189   0.68483   0.00000  Uiso   1.00
H616   H     0.02893   0.34843   0.66833   0.00000  Uiso   1.00
C617   C     0.06645   0.11895   0.71895   0.00000  Uiso   1.00
C618   C     0.05362   0.12211   0.66478   0.00000  Uiso   1.00
H619   H     0.01587   0.14048   0.65497   0.00000  Uiso   1.00
H620   H     0.08507   0.14041   0.65006   0.00000  Uiso   1.00
H621   H     0.04973   0.08819   0.64875   0.00000  Uiso   1.00
H622   H     0.03421   0.10120   0.73314   0.00000  Uiso   1.00
H623   H     0.06729   0.15317   0.73406   0.00000  Uiso   1.00
C624   C     0.10561   0.38850   0.81648   0.00000  Uiso   1.00
C625   C     0.13685   0.38598   0.86658   0.00000  Uiso   1.00
H626   H     0.11225   0.37079   0.89130   0.00000  Uiso   1.00
H627   H     0.17287   0.36521   0.86671   0.00000  Uiso   1.00
H628   H     0.14832   0.42000   0.87971   0.00000  Uiso   1.00
H629   H     0.06963   0.40910   0.81786   0.00000  Uiso   1.00
H630   H     0.09077   0.35497   0.80504   0.00000  Uiso   1.00
C631   C     0.50053   0.16413   0.75006   0.00000  Uiso   1.00
C632   C     0.49885   0.33627   0.74990   0.00000  Uiso   1.00
C633   C     0.47492   0.28431   0.54933   0.00000  Uiso   1.00
C634   C     0.54260   0.23208   0.95302   0.00000  Uiso   1.00
C635   C     0.47525   0.28358   0.59901   0.00000  Uiso   1.00
C636   C     0.54171   0.23230   0.90327   0.00000  Uiso   1.00
C637   C     0.52486   0.21646   0.60552   0.00000  Uiso   1.00
C638   C     0.45828   0.26765   0.89226   0.00000  Uiso   1.00
C639   C     0.52526   0.21578   0.55594   0.00000  Uiso   1.00
C640   C     0.45745   0.26792   0.94178   0.00000  Uiso   1.00
C641   C     0.50008   0.25004   0.52670   0.00000  Uiso   1.00
C642   C     0.50005   0.25002   0.97333   0.00000  Uiso   1.00
C643   C     0.40035   0.25094   0.73756   0.00000  Uiso   1.00
C644   C     0.59961   0.25123   0.76239   0.00000  Uiso   1.00
C645   C     0.34533   0.25192   0.73071   0.00000  Uiso   1.00
C646   C     0.65450   0.25428   0.76896   0.00000  Uiso   1.00
C647   C     0.54586   0.04670   0.76114   0.00000  Uiso   1.00
C648   C     0.52491   0.45311   0.71524   0.00000  Uiso   1.00
C649   C     0.54590   0.09289   0.76479   0.00000  Uiso   1.00
C650   C     0.52551   0.40696   0.71659   0.00000  Uiso   1.00
C651   C     0.49901   0.11653   0.74976   0.00000  Uiso   1.00
C652   C     0.49850   0.38462   0.74972   0.00000  Uiso   1.00
C653   C     0.45140   0.09441   0.73375   0.00000  Uiso   1.00
C654   C     0.47137   0.40927   0.78163   0.00000  Uiso   1.00
C655   C     0.45193   0.04804   0.73236   0.00000  Uiso   1.00
C656   C     0.47216   0.45558   0.77956   0.00000  Uiso   1.00
C657   C     0.49894   0.02473   0.74580   0.00000  Uiso   1.00
C658   C     0.49858   0.47692   0.74669   0.00000  Uiso   1.00
H659   H     0.65821   0.24938   0.69438   0.00000  Uiso   1.00
H660   H     0.34166   0.25728   0.80523   0.00000  Uiso   1.00
H661   H     0.58202   0.02796   0.77149   0.00000  Uiso   1.00
H662   H     0.54455   0.47043   0.68935   0.00000  Uiso   1.00
H663   H     0.41585   0.02999   0.72092   0.00000  Uiso   1.00
H664   H     0.45188   0.47529   0.80352   0.00000  Uiso   1.00
H665   H     0.45567   0.31195   0.52902   0.00000  Uiso   1.00
H666   H     0.57684   0.21849   0.97532   0.00000  Uiso   1.00
H667   H     0.45577   0.31010   0.61586   0.00000  Uiso   1.00
H668   H     0.57465   0.21839   0.88826   0.00000  Uiso   1.00
H669   H     0.54440   0.18998   0.62748   0.00000  Uiso   1.00
H670   H     0.42534   0.28162   0.86859   0.00000  Uiso   1.00
H671   H     0.54455   0.18816   0.54069   0.00000  Uiso   1.00
H672   H     0.42324   0.28153   0.95503   0.00000  Uiso   1.00
N673   N     0.50000   0.24999   0.62624   0.00000  Uiso   1.00
N674   N     0.50000   0.25001   0.87376   0.00000  Uiso   1.00
O675   O     0.50000   0.18454   0.78974   0.00000  Uiso   1.00
O676   O     0.50000   0.31547   0.71026   0.00000  Uiso   1.00
O677   O     0.50000   0.18453   0.71026   0.00000  Uiso   1.00
O678   O     0.50000   0.31547   0.78974   0.00000  Uiso   1.00
O679   O     0.42392   0.25000   0.78044   0.00000  Uiso   1.00
O680   O     0.57608   0.25000   0.71956   0.00000  Uiso   1.00
O681   O     0.42392   0.25000   0.70096   0.00000  Uiso   1.00
O682   O     0.57608   0.25001   0.79903   0.00000  Uiso   1.00
Zn683  Zn    0.50000   0.25001   0.80307   0.00000  Uiso   1.00
Zn684  Zn    0.50000   0.25000   0.69693   0.00000  Uiso   1.00
O685   O     0.59250   0.11501   0.77975   0.00000  Uiso   1.00
C686   C     0.60544   0.11107   0.82995   0.00000  Uiso   1.00
H687   H     0.59286   0.07878   0.84424   0.00000  Uiso   1.00
H688   H     0.58602   0.13858   0.84745   0.00000  Uiso   1.00
C689   C     0.66510   0.11367   0.84425   0.00000  Uiso   1.00
H690   H     0.34168   0.10718   0.88317   0.00000  Uiso   1.00
H691   H     0.35117   0.08740   0.82500   0.00000  Uiso   1.00
C692   C     0.35308   0.15929   0.83331   0.00000  Uiso   1.00
H693   H     0.34414   0.16626   0.79455   0.00000  Uiso   1.00
H694   H     0.39642   0.15967   0.84388   0.00000  Uiso   1.00
H695   H     0.33523   0.18580   0.85342   0.00000  Uiso   1.00
O696   O     0.54808   0.38423   0.68201   0.00000  Uiso   1.00
C697   C     0.59908   0.36870   0.70076   0.00000  Uiso   1.00
H698   H     0.60390   0.33495   0.68552   0.00000  Uiso   1.00
H699   H     0.60579   0.36463   0.74040   0.00000  Uiso   1.00
C700   C     0.64059   0.39966   0.68531   0.00000  Uiso   1.00
H701   H     0.62989   0.40826   0.64694   0.00000  Uiso   1.00
H702   H     0.64193   0.43105   0.70645   0.00000  Uiso   1.00
C703   C     0.36155   0.37753   0.69262   0.00000  Uiso   1.00
H704   H     0.37162   0.36585   0.72995   0.00000  Uiso   1.00
H705   H     0.39151   0.40189   0.68483   0.00000  Uiso   1.00
H706   H     0.36227   0.34843   0.66833   0.00000  Uiso   1.00
C707   C     0.39979   0.11895   0.71895   0.00000  Uiso   1.00
C708   C     0.38696   0.12211   0.66478   0.00000  Uiso   1.00
H709   H     0.34920   0.14048   0.65497   0.00000  Uiso   1.00
H710   H     0.41840   0.14041   0.65006   0.00000  Uiso   1.00
H711   H     0.38306   0.08819   0.64875   0.00000  Uiso   1.00
H712   H     0.36754   0.10120   0.73314   0.00000  Uiso   1.00
H713   H     0.40063   0.15317   0.73406   0.00000  Uiso   1.00
C714   C     0.43895   0.38850   0.81648   0.00000  Uiso   1.00
C715   C     0.47018   0.38598   0.86658   0.00000  Uiso   1.00
H716   H     0.44558   0.37079   0.89130   0.00000  Uiso   1.00
H717   H     0.50620   0.36521   0.86671   0.00000  Uiso   1.00
H718   H     0.48166   0.42000   0.87971   0.00000  Uiso   1.00
H719   H     0.40296   0.40910   0.81786   0.00000  Uiso   1.00
H720   H     0.42411   0.35497   0.80504   0.00000  Uiso   1.00
C721   C     0.83387   0.16413   0.75006   0.00000  Uiso   1.00
C722   C     0.83219   0.33627   0.74990   0.00000  Uiso   1.00
C723   C     0.80825   0.28431   0.54933   0.00000  Uiso   1.00
C724   C     0.87593   0.23208   0.95302   0.00000  Uiso   1.00
C725   C     0.80858   0.28358   0.59901   0.00000  Uiso   1.00
C726   C     0.87504   0.23230   0.90327   0.00000  Uiso   1.00
C727   C     0.85820   0.21646   0.60552   0.00000  Uiso   1.00
C728   C     0.79161   0.26765   0.89226   0.00000  Uiso   1.00
C729   C     0.85859   0.21578   0.55594   0.00000  Uiso   1.00
C730   C     0.79079   0.26792   0.94178   0.00000  Uiso   1.00
C731   C     0.83341   0.25004   0.52670   0.00000  Uiso   1.00
C732   C     0.83338   0.25002   0.97333   0.00000  Uiso   1.00
C733   C     0.73368   0.25094   0.73756   0.00000  Uiso   1.00
C734   C     0.93295   0.25123   0.76239   0.00000  Uiso   1.00
C735   C     0.67867   0.25192   0.73071   0.00000  Uiso   1.00
C736   C     0.98784   0.25428   0.76896   0.00000  Uiso   1.00
C737   C     0.87919   0.04670   0.76114   0.00000  Uiso   1.00
C738   C     0.85824   0.45311   0.71524   0.00000  Uiso   1.00
C739   C     0.87923   0.09289   0.76479   0.00000  Uiso   1.00
C740   C     0.85884   0.40696   0.71659   0.00000  Uiso   1.00
C741   C     0.83234   0.11653   0.74976   0.00000  Uiso   1.00
C742   C     0.83184   0.38462   0.74972   0.00000  Uiso   1.00
C743   C     0.78473   0.09441   0.73375   0.00000  Uiso   1.00
C744   C     0.80470   0.40927   0.78163   0.00000  Uiso   1.00
C745   C     0.78526   0.04804   0.73236   0.00000  Uiso   1.00
C746   C     0.80549   0.45558   0.77956   0.00000  Uiso   1.00
C747   C     0.83228   0.02473   0.74580   0.00000  Uiso   1.00
C748   C     0.83191   0.47692   0.74669   0.00000  Uiso   1.00
H749   H     0.99154   0.24938   0.69438   0.00000  Uiso   1.00
H750   H     0.67500   0.25728   0.80523   0.00000  Uiso   1.00
H751   H     0.91535   0.02796   0.77149   0.00000  Uiso   1.00
H752   H     0.87789   0.47043   0.68935   0.00000  Uiso   1.00
H753   H     0.74919   0.02999   0.72092   0.00000  Uiso   1.00
H754   H     0.78521   0.47529   0.80352   0.00000  Uiso   1.00
H755   H     0.78901   0.31195   0.52902   0.00000  Uiso   1.00
H756   H     0.91018   0.21849   0.97532   0.00000  Uiso   1.00
H757   H     0.78910   0.31010   0.61586   0.00000  Uiso   1.00
H758   H     0.90798   0.21839   0.88826   0.00000  Uiso   1.00
H759   H     0.87773   0.18998   0.62748   0.00000  Uiso   1.00
H760   H     0.75868   0.28162   0.86859   0.00000  Uiso   1.00
H761   H     0.87788   0.18816   0.54069   0.00000  Uiso   1.00
H762   H     0.75657   0.28153   0.95503   0.00000  Uiso   1.00
N763   N     0.83333   0.24999   0.62624   0.00000  Uiso   1.00
N764   N     0.83333   0.25001   0.87376   0.00000  Uiso   1.00
O765   O     0.83334   0.18454   0.78974   0.00000  Uiso   1.00
O766   O     0.83333   0.31547   0.71026   0.00000  Uiso   1.00
O767   O     0.83334   0.18453   0.71026   0.00000  Uiso   1.00
O768   O     0.83333   0.31547   0.78974   0.00000  Uiso   1.00
O769   O     0.75725   0.25000   0.78044   0.00000  Uiso   1.00
O770   O     0.90942   0.25000   0.71956   0.00000  Uiso   1.00
O771   O     0.75725   0.25000   0.70096   0.00000  Uiso   1.00
O772   O     0.90942   0.25001   0.79903   0.00000  Uiso   1.00
Zn773  Zn    0.83333   0.25001   0.80307   0.00000  Uiso   1.00
Zn774  Zn    0.83333   0.25000   0.69693   0.00000  Uiso   1.00
O775   O     0.92583   0.11501   0.77975   0.00000  Uiso   1.00
C776   C     0.93878   0.11107   0.82995   0.00000  Uiso   1.00
H777   H     0.92619   0.07878   0.84424   0.00000  Uiso   1.00
H778   H     0.91936   0.13858   0.84745   0.00000  Uiso   1.00
C779   C     0.99843   0.11367   0.84425   0.00000  Uiso   1.00
H780   H     0.67501   0.10718   0.88317   0.00000  Uiso   1.00
H781   H     0.68450   0.08740   0.82500   0.00000  Uiso   1.00
C782   C     0.68641   0.15929   0.83331   0.00000  Uiso   1.00
H783   H     0.67747   0.16626   0.79455   0.00000  Uiso   1.00
H784   H     0.72975   0.15967   0.84388   0.00000  Uiso   1.00
H785   H     0.66856   0.18580   0.85342   0.00000  Uiso   1.00
O786   O     0.88141   0.38423   0.68201   0.00000  Uiso   1.00
C787   C     0.93242   0.36870   0.70076   0.00000  Uiso   1.00
H788   H     0.93723   0.33495   0.68552   0.00000  Uiso   1.00
H789   H     0.93913   0.36463   0.74040   0.00000  Uiso   1.00
C790   C     0.97392   0.39966   0.68531   0.00000  Uiso   1.00
H791   H     0.96323   0.40826   0.64694   0.00000  Uiso   1.00
H792   H     0.97526   0.43105   0.70645   0.00000  Uiso   1.00
C793   C     0.69488   0.37753   0.69262   0.00000  Uiso   1.00
H794   H     0.70495   0.36585   0.72995   0.00000  Uiso   1.00
H795   H     0.72485   0.40189   0.68483   0.00000  Uiso   1.00
H796   H     0.69560   0.34843   0.66833   0.00000  Uiso   1.00
C797   C     0.73312   0.11895   0.71895   0.00000  Uiso   1.00
C798   C     0.72029   0.12211   0.66478   0.00000  Uiso   1.00
H799   H     0.68253   0.14048   0.65497   0.00000  Uiso   1.00
H800   H     0.75173   0.14041   0.65006   0.00000  Uiso   1.00
H801   H     0.71639   0.08819   0.64875   0.00000  Uiso   1.00
H802   H     0.70087   0.10120   0.73314   0.00000  Uiso   1.00
H803   H     0.73396   0.15317   0.73406   0.00000  Uiso   1.00
C804   C     0.77228   0.38850   0.81648   0.00000  Uiso   1.00
C805   C     0.80352   0.38598   0.86658   0.00000  Uiso   1.00
H806   H     0.77891   0.37079   0.89130   0.00000  Uiso   1.00
H807   H     0.83953   0.36521   0.86671   0.00000  Uiso   1.00
H808   H     0.81499   0.42000   0.87971   0.00000  Uiso   1.00
H809   H     0.73630   0.40910   0.81786   0.00000  Uiso   1.00
H810   H     0.75744   0.35497   0.80504   0.00000  Uiso   1.00
C811   C     0.16720   0.66413   0.75006   0.00000  Uiso   1.00
C812   C     0.16552   0.83627   0.74990   0.00000  Uiso   1.00
C813   C     0.14159   0.78431   0.54933   0.00000  Uiso   1.00
C814   C     0.20927   0.73208   0.95302   0.00000  Uiso   1.00
C815   C     0.14192   0.78358   0.59901   0.00000  Uiso   1.00
C816   C     0.20838   0.73230   0.90327   0.00000  Uiso   1.00
C817   C     0.19153   0.71646   0.60552   0.00000  Uiso   1.00
C818   C     0.12494   0.76765   0.89226   0.00000  Uiso   1.00
C819   C     0.19192   0.71578   0.55594   0.00000  Uiso   1.00
C820   C     0.12412   0.76792   0.94178   0.00000  Uiso   1.00
C821   C     0.16674   0.75004   0.52670   0.00000  Uiso   1.00
C822   C     0.16671   0.75002   0.97333   0.00000  Uiso   1.00
C823   C     0.06702   0.75094   0.73756   0.00000  Uiso   1.00
C824   C     0.26628   0.75123   0.76239   0.00000  Uiso   1.00
C825   C     0.01200   0.75192   0.73071   0.00000  Uiso   1.00
C826   C     0.32117   0.75428   0.76896   0.00000  Uiso   1.00
C827   C     0.21252   0.54670   0.76114   0.00000  Uiso   1.00
C828   C     0.19157   0.95311   0.71524   0.00000  Uiso   1.00
C829   C     0.21256   0.59289   0.76479   0.00000  Uiso   1.00
C830   C     0.19218   0.90696   0.71659   0.00000  Uiso   1.00
C831   C     0.16568   0.61653   0.74976   0.00000  Uiso   1.00
C832   C     0.16517   0.88462   0.74972   0.00000  Uiso   1.00
C833   C     0.11807   0.59441   0.73375   0.00000  Uiso   1.00
C834   C     0.13804   0.90927   0.78163   0.00000  Uiso   1.00
C835   C     0.11860   0.54804   0.73236   0.00000  Uiso   1.00
C836   C     0.13882   0.95558   0.77956   0.00000  Uiso   1.00
C837   C     0.16561   0.52473   0.74580   0.00000  Uiso   1.00
C838   C     0.16525   0.97692   0.74669   0.00000  Uiso   1.00
H839   H     0.32488   0.74938   0.69438   0.00000  Uiso   1.00
H840   H     0.00833   0.75728   0.80523   0.00000  Uiso   1.00
H841   H     0.24869   0.52796   0.77149   0.00000  Uiso   1.00
H842   H     0.21122   0.97043   0.68935   0.00000  Uiso   1.00
H843   H     0.08252   0.52999   0.72092   0.00000  Uiso   1.00
H844   H     0.11854   0.97529   0.80352   0.00000  Uiso   1.00
H845   H     0.12234   0.81195   0.52902   0.00000  Uiso   1.00
H846   H     0.24351   0.71849   0.97532   0.00000  Uiso   1.00
H847   H     0.12243   0.81010   0.61586   0.00000  Uiso   1.00
H848   H     0.24131   0.71839   0.88826   0.00000  Uiso   1.00
H849   H     0.21106   0.68998   0.62748   0.00000  Uiso   1.00
H850   H     0.09201   0.78162   0.86859   0.00000  Uiso   1.00
H851   H     0.21122   0.68816   0.54069   0.00000  Uiso   1.00
H852   H     0.08991   0.78153   0.95503   0.00000  Uiso   1.00
N853   N     0.16667   0.74999   0.62624   0.00000  Uiso   1.00
N854   N     0.16667   0.75001   0.87376   0.00000  Uiso   1.00
O855   O     0.16667   0.68454   0.78974   0.00000  Uiso   1.00
O856   O     0.16666   0.81547   0.71026   0.00000  Uiso   1.00
O857   O     0.16667   0.68453   0.71026   0.00000  Uiso   1.00
O858   O     0.16666   0.81547   0.78974   0.00000  Uiso   1.00
O859   O     0.09058   0.75000   0.78044   0.00000  Uiso   1.00
O860   O     0.24275   0.75000   0.71956   0.00000  Uiso   1.00
O861   O     0.09058   0.75000   0.70096   0.00000  Uiso   1.00
O862   O     0.24275   0.75001   0.79903   0.00000  Uiso   1.00
Zn863  Zn    0.16667   0.75001   0.80307   0.00000  Uiso   1.00
Zn864  Zn    0.16667   0.75000   0.69693   0.00000  Uiso   1.00
O865   O     0.25917   0.61501   0.77975   0.00000  Uiso   1.00
C866   C     0.27211   0.61107   0.82995   0.00000  Uiso   1.00
H867   H     0.25952   0.57878   0.84424   0.00000  Uiso   1.00
H868   H     0.25269   0.63858   0.84745   0.00000  Uiso   1.00
C869   C     0.33177   0.61367   0.84425   0.00000  Uiso   1.00
H870   H     0.00834   0.60718   0.88317   0.00000  Uiso   1.00
H871   H     0.01784   0.58740   0.82500   0.00000  Uiso   1.00
C872   C     0.01974   0.65929   0.83331   0.00000  Uiso   1.00
H873   H     0.01081   0.66626   0.79455   0.00000  Uiso   1.00
H874   H     0.06308   0.65967   0.84388   0.00000  Uiso   1.00
H875   H     0.00190   0.68580   0.85342   0.00000  Uiso   1.00
O876   O     0.21474   0.88423   0.68201   0.00000  Uiso   1.00
C877   C     0.26575   0.86870   0.70076   0.00000  Uiso   1.00
H878   H     0.27057   0.83495   0.68552   0.00000  Uiso   1.00
H879   H     0.27246   0.86463   0.74040   0.00000  Uiso   1.00
C880   C     0.30726   0.89966   0.68531   0.00000  Uiso   1.00
H881   H     0.29656   0.90826   0.64694   0.00000  Uiso   1.00
H882   H     0.30859   0.93105   0.70645   0.00000  Uiso   1.00
C883   C     0.02821   0.87753   0.69262   0.00000  Uiso   1.00
H884   H     0.03828   0.86585   0.72995   0.00000  Uiso   1.00
H885   H     0.05818   0.90189   0.68483   0.00000  Uiso   1.00
H886   H     0.02893   0.84843   0.66833   0.00000  Uiso   1.00
C887   C     0.06645   0.61895   0.71895   0.00000  Uiso   1.00
C888   C     0.05362   0.62211   0.66478   0.00000  Uiso   1.00
H889   H     0.01587   0.64048   0.65497   0.00000  Uiso   1.00
H890   H     0.08507   0.64041   0.65006   0.00000  Uiso   1.00
H891   H     0.04973   0.58819   0.64875   0.00000  Uiso   1.00
H892   H     0.03421   0.60120   0.73314   0.00000  Uiso   1.00
H893   H     0.06729   0.65317   0.73406   0.00000  Uiso   1.00
C894   C     0.10561   0.88850   0.81648   0.00000  Uiso   1.00
C895   C     0.13685   0.88598   0.86658   0.00000  Uiso   1.00
H896   H     0.11225   0.87079   0.89130   0.00000  Uiso   1.00
H897   H     0.17287   0.86521   0.86671   0.00000  Uiso   1.00
H898   H     0.14832   0.92000   0.87971   0.00000  Uiso   1.00
H899   H     0.06963   0.90910   0.81786   0.00000  Uiso   1.00
H900   H     0.09077   0.85497   0.80504   0.00000  Uiso   1.00
C901   C     0.50053   0.66413   0.75006   0.00000  Uiso   1.00
C902   C     0.49885   0.83627   0.74990   0.00000  Uiso   1.00
C903   C     0.47492   0.78431   0.54933   0.00000  Uiso   1.00
C904   C     0.54260   0.73208   0.95302   0.00000  Uiso   1.00
C905   C     0.47525   0.78358   0.59901   0.00000  Uiso   1.00
C906   C     0.54171   0.73230   0.90327   0.00000  Uiso   1.00
C907   C     0.52486   0.71646   0.60552   0.00000  Uiso   1.00
C908   C     0.45828   0.76765   0.89226   0.00000  Uiso   1.00
C909   C     0.52526   0.71578   0.55594   0.00000  Uiso   1.00
C910   C     0.45745   0.76792   0.94178   0.00000  Uiso   1.00
C911   C     0.50008   0.75004   0.52670   0.00000  Uiso   1.00
C912   C     0.50005   0.75002   0.97333   0.00000  Uiso   1.00
C913   C     0.40035   0.75094   0.73756   0.00000  Uiso   1.00
C914   C     0.59961   0.75123   0.76239   0.00000  Uiso   1.00
C915   C     0.34533   0.75192   0.73071   0.00000  Uiso   1.00
C916   C     0.65450   0.75428   0.76896   0.00000  Uiso   1.00
C917   C     0.54586   0.54670   0.76114   0.00000  Uiso   1.00
C918   C     0.52491   0.95311   0.71524   0.00000  Uiso   1.00
C919   C     0.54590   0.59289   0.76479   0.00000  Uiso   1.00
C920   C     0.52551   0.90696   0.71659   0.00000  Uiso   1.00
C921   C     0.49901   0.61653   0.74976   0.00000  Uiso   1.00
C922   C     0.49850   0.88462   0.74972   0.00000  Uiso   1.00
C923   C     0.45140   0.59441   0.73375   0.00000  Uiso   1.00
C924   C     0.47137   0.90927   0.78163   0.00000  Uiso   1.00
C925   C     0.45193   0.54804   0.73236   0.00000  Uiso   1.00
C926   C     0.47216   0.95558   0.77956   0.00000  Uiso   1.00
C927   C     0.49894   0.52473   0.74580   0.00000  Uiso   1.00
C928   C     0.49858   0.97692   0.74669   0.00000  Uiso   1.00
H929   H     0.65821   0.74938   0.69438   0.00000  Uiso   1.00
H930   H     0.34166   0.75728   0.80523   0.00000  Uiso   1.00
H931   H     0.58202   0.52796   0.77149   0.00000  Uiso   1.00
H932   H     0.54455   0.97043   0.68935   0.00000  Uiso   1.00
H933   H     0.41585   0.52999   0.72092   0.00000  Uiso   1.00
H934   H     0.45188   0.97529   0.80352   0.00000  Uiso   1.00
H935   H     0.45567   0.81195   0.52902   0.00000  Uiso   1.00
H936   H     0.57684   0.71849   0.97532   0.00000  Uiso   1.00
H937   H     0.45577   0.81010   0.61586   0.00000  Uiso   1.00
H938   H     0.57465   0.71839   0.88826   0.00000  Uiso   1.00
H939   H     0.54440   0.68998   0.62748   0.00000  Uiso   1.00
H940   H     0.42534   0.78162   0.86859   0.00000  Uiso   1.00
H941   H     0.54455   0.68816   0.54069   0.00000  Uiso   1.00
H942   H     0.42324   0.78153   0.95503   0.00000  Uiso   1.00
N943   N     0.50000   0.74999   0.62624   0.00000  Uiso   1.00
N944   N     0.50000   0.75001   0.87376   0.00000  Uiso   1.00
O945   O     0.50000   0.68454   0.78974   0.00000  Uiso   1.00
O946   O     0.50000   0.81547   0.71026   0.00000  Uiso   1.00
O947   O     0.50000   0.68453   0.71026   0.00000  Uiso   1.00
O948   O     0.50000   0.81547   0.78974   0.00000  Uiso   1.00
O949   O     0.42392   0.75000   0.78044   0.00000  Uiso   1.00
O950   O     0.57608   0.75000   0.71956   0.00000  Uiso   1.00
O951   O     0.42392   0.75000   0.70096   0.00000  Uiso   1.00
O952   O     0.57608   0.75001   0.79903   0.00000  Uiso   1.00
Zn953  Zn    0.50000   0.75001   0.80307   0.00000  Uiso   1.00
Zn954  Zn    0.50000   0.75000   0.69693   0.00000  Uiso   1.00
O955   O     0.59250   0.61501   0.77975   0.00000  Uiso   1.00
C956   C     0.60544   0.61107   0.82995   0.00000  Uiso   1.00
H957   H     0.59286   0.57878   0.84424   0.00000  Uiso   1.00
H958   H     0.58602   0.63858   0.84745   0.00000  Uiso   1.00
C959   C     0.66510   0.61367   0.84425   0.00000  Uiso   1.00
H960   H     0.34168   0.60718   0.88317   0.00000  Uiso   1.00
H961   H     0.35117   0.58740   0.82500   0.00000  Uiso   1.00
C962   C     0.35308   0.65929   0.83331   0.00000  Uiso   1.00
H963   H     0.34414   0.66626   0.79455   0.00000  Uiso   1.00
H964   H     0.39642   0.65967   0.84388   0.00000  Uiso   1.00
H965   H     0.33523   0.68580   0.85342   0.00000  Uiso   1.00
O966   O     0.54808   0.88423   0.68201   0.00000  Uiso   1.00
C967   C     0.59908   0.86870   0.70076   0.00000  Uiso   1.00
H968   H     0.60390   0.83495   0.68552   0.00000  Uiso   1.00
H969   H     0.60579   0.86463   0.74040   0.00000  Uiso   1.00
C970   C     0.64059   0.89966   0.68531   0.00000  Uiso   1.00
H971   H     0.62989   0.90826   0.64694   0.00000  Uiso   1.00
H972   H     0.64193   0.93105   0.70645   0.00000  Uiso   1.00
C973   C     0.36155   0.87753   0.69262   0.00000  Uiso   1.00
H974   H     0.37162   0.86585   0.72995   0.00000  Uiso   1.00
H975   H     0.39151   0.90189   0.68483   0.00000  Uiso   1.00
H976   H     0.36227   0.84843   0.66833   0.00000  Uiso   1.00
C977   C     0.39979   0.61895   0.71895   0.00000  Uiso   1.00
C978   C     0.38696   0.62211   0.66478   0.00000  Uiso   1.00
H979   H     0.34920   0.64048   0.65497   0.00000  Uiso   1.00
H980   H     0.41840   0.64041   0.65006   0.00000  Uiso   1.00
H981   H     0.38306   0.58819   0.64875   0.00000  Uiso   1.00
H982   H     0.36754   0.60120   0.73314   0.00000  Uiso   1.00
H983   H     0.40063   0.65317   0.73406   0.00000  Uiso   1.00
C984   C     0.43895   0.88850   0.81648   0.00000  Uiso   1.00
C985   C     0.47018   0.88598   0.86658   0.00000  Uiso   1.00
H986   H     0.44558   0.87079   0.89130   0.00000  Uiso   1.00
H987   H     0.50620   0.86521   0.86671   0.00000  Uiso   1.00
H988   H     0.48166   0.92000   0.87971   0.00000  Uiso   1.00
H989   H     0.40296   0.90910   0.81786   0.00000  Uiso   1.00
H990   H     0.42411   0.85497   0.80504   0.00000  Uiso   1.00
C991   C     0.83387   0.66413   0.75006   0.00000  Uiso   1.00
C992   C     0.83219   0.83627   0.74990   0.00000  Uiso   1.00
C993   C     0.80825   0.78431   0.54933   0.00000  Uiso   1.00
C994   C     0.87593   0.73208   0.95302   0.00000  Uiso   1.00
C995   C     0.80858   0.78358   0.59901   0.00000  Uiso   1.00
C996   C     0.87504   0.73230   0.90327   0.00000  Uiso   1.00
C997   C     0.85820   0.71646   0.60552   0.00000  Uiso   1.00
C998   C     0.79161   0.76765   0.89226   0.00000  Uiso   1.00
C999   C     0.85859   0.71578   0.55594   0.00000  Uiso   1.00
C1000  C     0.79079   0.76792   0.94178   0.00000  Uiso   1.00
C1001  C     0.83341   0.75004   0.52670   0.00000  Uiso   1.00
C1002  C     0.83338   0.75002   0.97333   0.00000  Uiso   1.00
C1003  C     0.73368   0.75094   0.73756   0.00000  Uiso   1.00
C1004  C     0.93295   0.75123   0.76239   0.00000  Uiso   1.00
C1005  C     0.67867   0.75192   0.73071   0.00000  Uiso   1.00
C1006  C     0.98784   0.75428   0.76896   0.00000  Uiso   1.00
C1007  C     0.87919   0.54670   0.76114   0.00000  Uiso   1.00
C1008  C     0.85824   0.95311   0.71524   0.00000  Uiso   1.00
C1009  C     0.87923   0.59289   0.76479   0.00000  Uiso   1.00
C1010  C     0.85884   0.90696   0.71659   0.00000  Uiso   1.00
C1011  C     0.83234   0.61653   0.74976   0.00000  Uiso   1.00
C1012  C     0.83184   0.88462   0.74972   0.00000  Uiso   1.00
C1013  C     0.78473   0.59441   0.73375   0.00000  Uiso   1.00
C1014  C     0.80470   0.90927   0.78163   0.00000  Uiso   1.00
C1015  C     0.78526   0.54804   0.73236   0.00000  Uiso   1.00
C1016  C     0.80549   0.95558   0.77956   0.00000  Uiso   1.00
C1017  C     0.83228   0.52473   0.74580   0.00000  Uiso   1.00
C1018  C     0.83191   0.97692   0.74669   0.00000  Uiso   1.00
H1019  H     0.99154   0.74938   0.69438   0.00000  Uiso   1.00
H1020  H     0.67500   0.75728   0.80523   0.00000  Uiso   1.00
H1021  H     0.91535   0.52796   0.77149   0.00000  Uiso   1.00
H1022  H     0.87789   0.97043   0.68935   0.00000  Uiso   1.00
H1023  H     0.74919   0.52999   0.72092   0.00000  Uiso   1.00
H1024  H     0.78521   0.97529   0.80352   0.00000  Uiso   1.00
H1025  H     0.78901   0.81195   0.52902   0.00000  Uiso   1.00
H1026  H     0.91018   0.71849   0.97532   0.00000  Uiso   1.00
H1027  H     0.78910   0.81010   0.61586   0.00000  Uiso   1.00
H1028  H     0.90798   0.71839   0.88826   0.00000  Uiso   1.00
H1029  H     0.87773   0.68998   0.62748   0.00000  Uiso   1.00
H1030  H     0.75868   0.78162   0.86859   0.00000  Uiso   1.00
H1031  H     0.87788   0.68816   0.54069   0.00000  Uiso   1.00
H1032  H     0.75657   0.78153   0.95503   0.00000  Uiso   1.00
N1033  N     0.83333   0.74999   0.62624   0.00000  Uiso   1.00
N1034  N     0.83333   0.75001   0.87376   0.00000  Uiso   1.00
O1035  O     0.83334   0.68454   0.78974   0.00000  Uiso   1.00
O1036  O     0.83333   0.81547   0.71026   0.00000  Uiso   1.00
O1037  O     0.83334   0.68453   0.71026   0.00000  Uiso   1.00
O1038  O     0.83333   0.81547   0.78974   0.00000  Uiso   1.00
O1039  O     0.75725   0.75000   0.78044   0.00000  Uiso   1.00
O1040  O     0.90942   0.75000   0.71956   0.00000  Uiso   1.00
O1041  O     0.75725   0.75000   0.70096   0.00000  Uiso   1.00
O1042  O     0.90942   0.75001   0.79903   0.00000  Uiso   1.00
Zn1043 Zn    0.83333   0.75001   0.80307   0.00000  Uiso   1.00
Zn1044 Zn    0.83333   0.75000   0.69693   0.00000  Uiso   1.00
O1045  O     0.92583   0.61501   0.77975   0.00000  Uiso   1.00
C1046  C     0.93878   0.61107   0.82995   0.00000  Uiso   1.00
H1047  H     0.92619   0.57878   0.84424   0.00000  Uiso   1.00
H1048  H     0.91936   0.63858   0.84745   0.00000  Uiso   1.00
C1049  C     0.99843   0.61367   0.84425   0.00000  Uiso   1.00
H1050  H     0.67501   0.60718   0.88317   0.00000  Uiso   1.00
H1051  H     0.68450   0.58740   0.82500   0.00000  Uiso   1.00
C1052  C     0.68641   0.65929   0.83331   0.00000  Uiso   1.00
H1053  H     0.67747   0.66626   0.79455   0.00000  Uiso   1.00
H1054  H     0.72975   0.65967   0.84388   0.00000  Uiso   1.00
H1055  H     0.66856   0.68580   0.85342   0.00000  Uiso   1.00
O1056  O     0.88141   0.88423   0.68201   0.00000  Uiso   1.00
C1057  C     0.93242   0.86870   0.70076   0.00000  Uiso   1.00
H1058  H     0.93723   0.83495   0.68552   0.00000  Uiso   1.00
H1059  H     0.93913   0.86463   0.74040   0.00000  Uiso   1.00
C1060  C     0.97392   0.89966   0.68531   0.00000  Uiso   1.00
H1061  H     0.96323   0.90826   0.64694   0.00000  Uiso   1.00
H1062  H     0.97526   0.93105   0.70645   0.00000  Uiso   1.00
C1063  C     0.69488   0.87753   0.69262   0.00000  Uiso   1.00
H1064  H     0.70495   0.86585   0.72995   0.00000  Uiso   1.00
H1065  H     0.72485   0.90189   0.68483   0.00000  Uiso   1.00
H1066  H     0.69560   0.84843   0.66833   0.00000  Uiso   1.00
C1067  C     0.73312   0.61895   0.71895   0.00000  Uiso   1.00
C1068  C     0.72029   0.62211   0.66478   0.00000  Uiso   1.00
H1069  H     0.68253   0.64048   0.65497   0.00000  Uiso   1.00
H1070  H     0.75173   0.64041   0.65006   0.00000  Uiso   1.00
H1071  H     0.71639   0.58819   0.64875   0.00000  Uiso   1.00
H1072  H     0.70087   0.60120   0.73314   0.00000  Uiso   1.00
H1073  H     0.73396   0.65317   0.73406   0.00000  Uiso   1.00
C1074  C     0.77228   0.88850   0.81648   0.00000  Uiso   1.00
C1075  C     0.80352   0.88598   0.86658   0.00000  Uiso   1.00
H1076  H     0.77891   0.87079   0.89130   0.00000  Uiso   1.00
H1077  H     0.83953   0.86521   0.86671   0.00000  Uiso   1.00
H1078  H     0.81499   0.92000   0.87971   0.00000  Uiso   1.00
H1079  H     0.73630   0.90910   0.81786   0.00000  Uiso   1.00
H1080  H     0.75744   0.85497   0.80504   0.00000  Uiso   1.00
loop_
_geom_bond_atom_site_label_1
_geom_bond_atom_site_label_2
_geom_bond_distance
_geom_bond_site_symmetry_2
_ccdc_geom_bond_type
C1     C21     1.425   .     S
C1     O47     1.281   .     A
C1     O45     1.280   .     A
C2     O46     1.287   .     A
C2     C22     1.447   .     S
C2     O48     1.286   .     A
C3     H35     1.082   .     S
C3     C5      1.407   .     A
C3     C11     1.410   .     A
C4     H36     1.082   .     S
C4     C12     1.410   .     A
C4     C6      1.406   .     A
C5     H37     1.082   .     S
C5     N43     1.363   .     A
C6     H38     1.082   .     S
C6     N44     1.363   .     A
C7     N43     1.363   .     A
C7     C9      1.407   .     A
C7     H39     1.082   .     S
C8     N44     1.363   .     A
C8     C10     1.406   .     A
C8     H40     1.081   .     S
C9     C11     1.410   .     A
C9     H41     1.082   .     S
C10    H42     1.082   .     S
C10    C12     1.410   .     A
C11    C552    1.512   1_554 S
C12    C551    1.512   .     S
C13    O51     1.275   .     A
C13    O49     1.276   .     A
C13    C15     1.399   .     S
C14    O52     1.276   .     A
C14    C16     1.400   .     S
C14    O50     1.275   .     A
C15    C196    1.327   1_455 S
C15    H209    1.088   1_455 S
C16    C105    1.327   .     S
C16    H120    1.088   .     S
C17    C27     1.391   .     A
C17    H31     1.084   .     S
C17    C19     1.386   .     A
C18    C28     1.388   .     A
C18    H32     1.084   .     S
C18    C20     1.381   .     A
C19    C21     1.404   .     A
C19    O55     1.385   .     S
C20    O66     1.385   .     S
C20    C22     1.418   .     A
C21    C23     1.411   .     A
C22    C24     1.422   .     A
C23    C77     1.515   .     S
C23    C25     1.388   .     A
C24    C26     1.388   .     A
C24    C84     1.519   .     S
C25    C27     1.394   .     A
C25    H33     1.085   .     S
C26    H34     1.085   .     S
C26    C28     1.390   .     A
C27    C298    1.431   1_545 S
C28    C297    1.431   .     S
H29    C105    1.088   .     S
H30    C196    1.088   1_455 S
N43    Zn54    2.003   .     S
N44    Zn53    2.003   .     S
O45    Zn53    1.995   .     S
O46    Zn54    1.995   .     S
O47    Zn54    1.995   .     S
O48    Zn53    1.995   .     S
O49    Zn53    1.967   .     S
O50    Zn54    1.967   .     S
O51    Zn54    1.976   .     S
O52    Zn53    1.976   .     S
O55    C56     1.417   .     S
C56    H57     1.117   .     S
C56    C59     1.530   .     S
C56    H58     1.112   .     S
C59    H150    1.112   .     S
C59    H151    1.112   .     S
C59    C152    1.524   .     S
H60    C239    1.112   1_455 S
H61    C239    1.112   1_455 S
C62    H64     1.111   .     S
C62    H63     1.108   .     S
C62    H65     1.111   .     S
C62    C239    1.524   1_455 S
O66    C67     1.415   .     S
C67    H68     1.111   .     S
C67    H69     1.117   .     S
C67    C70     1.531   .     S
C70    H71     1.112   .     S
C70    H72     1.111   .     S
C70    C163    1.526   .     S
C73    H74     1.108   .     S
C73    H75     1.110   .     S
C73    H76     1.111   .     S
C73    C250    1.526   1_455 S
C77    C78     1.525   .     S
C77    H83     1.108   .     S
C77    H82     1.112   .     S
C78    H80     1.111   .     S
C78    H79     1.111   .     S
C78    H81     1.111   .     S
C84    H90     1.108   .     S
C84    C85     1.527   .     S
C84    H89     1.112   .     S
C85    H87     1.110   .     S
C85    H86     1.110   .     S
C85    H88     1.111   .     S
C91    C111    1.425   .     S
C91    O137    1.281   .     A
C91    O135    1.280   .     A
C92    O136    1.287   .     A
C92    C112    1.447   .     S
C92    O138    1.286   .     A
C93    H125    1.082   .     S
C93    C95     1.407   .     A
C93    C101    1.410   .     A
C94    H126    1.082   .     S
C94    C102    1.410   .     A
C94    C96     1.406   .     A
C95    H127    1.082   .     S
C95    N133    1.363   .     A
C96    H128    1.082   .     S
C96    N134    1.363   .     A
C97    N133    1.363   .     A
C97    C99     1.407   .     A
C97    H129    1.082   .     S
C98    N134    1.363   .     A
C98    C100    1.406   .     A
C98    H130    1.081   .     S
C99    C101    1.410   .     A
C99    H131    1.082   .     S
C100   H132    1.082   .     S
C100   C102    1.410   .     A
C101   C642    1.512   1_554 S
C102   C641    1.512   .     S
C103   O141    1.275   .     A
C103   O139    1.276   .     A
C103   C105    1.399   .     S
C104   O142    1.276   .     A
C104   C106    1.400   .     S
C104   O140    1.275   .     A
C106   C195    1.327   .     S
C106   H210    1.088   .     S
C107   C117    1.391   .     A
C107   H121    1.084   .     S
C107   C109    1.386   .     A
C108   C118    1.388   .     A
C108   H122    1.084   .     S
C108   C110    1.381   .     A
C109   C111    1.404   .     A
C109   O145    1.385   .     S
C110   O156    1.385   .     S
C110   C112    1.418   .     A
C111   C113    1.411   .     A
C112   C114    1.422   .     A
C113   C167    1.515   .     S
C113   C115    1.388   .     A
C114   C116    1.388   .     A
C114   C174    1.519   .     S
C115   C117    1.394   .     A
C115   H123    1.085   .     S
C116   H124    1.085   .     S
C116   C118    1.390   .     A
C117   C388    1.431   1_545 S
C118   C387    1.431   .     S
H119   C195    1.088   .     S
N133   Zn144   2.003   .     S
N134   Zn143   2.003   .     S
O135   Zn143   1.995   .     S
O136   Zn144   1.995   .     S
O137   Zn144   1.995   .     S
O138   Zn143   1.995   .     S
O139   Zn143   1.967   .     S
O140   Zn144   1.967   .     S
O141   Zn144   1.976   .     S
O142   Zn143   1.976   .     S
O145   C146    1.417   .     S
C146   H147    1.117   .     S
C146   C149    1.530   .     S
C146   H148    1.112   .     S
C149   H240    1.112   .     S
C149   H241    1.112   .     S
C149   C242    1.524   .     S
C152   H154    1.111   .     S
C152   H153    1.108   .     S
C152   H155    1.111   .     S
O156   C157    1.415   .     S
C157   H158    1.111   .     S
C157   H159    1.117   .     S
C157   C160    1.531   .     S
C160   H161    1.112   .     S
C160   H162    1.111   .     S
C160   C253    1.526   .     S
C163   H164    1.108   .     S
C163   H165    1.110   .     S
C163   H166    1.111   .     S
C167   C168    1.525   .     S
C167   H173    1.108   .     S
C167   H172    1.112   .     S
C168   H170    1.111   .     S
C168   H169    1.111   .     S
C168   H171    1.111   .     S
C174   H180    1.108   .     S
C174   C175    1.527   .     S
C174   H179    1.112   .     S
C175   H177    1.110   .     S
C175   H176    1.110   .     S
C175   H178    1.111   .     S
C181   C201    1.425   .     S
C181   O227    1.281   .     A
C181   O225    1.280   .     A
C182   O226    1.287   .     A
C182   C202    1.447   .     S
C182   O228    1.286   .     A
C183   H215    1.082   .     S
C183   C185    1.407   .     A
C183   C191    1.410   .     A
C184   H216    1.082   .     S
C184   C192    1.410   .     A
C184   C186    1.406   .     A
C185   H217    1.082   .     S
C185   N223    1.363   .     A
C186   H218    1.082   .     S
C186   N224    1.363   .     A
C187   N223    1.363   .     A
C187   C189    1.407   .     A
C187   H219    1.082   .     S
C188   N224    1.363   .     A
C188   C190    1.406   .     A
C188   H220    1.081   .     S
C189   C191    1.410   .     A
C189   H221    1.082   .     S
C190   H222    1.082   .     S
C190   C192    1.410   .     A
C191   C732    1.512   1_554 S
C192   C731    1.512   .     S
C193   O231    1.275   .     A
C193   O229    1.276   .     A
C193   C195    1.399   .     S
C194   O232    1.276   .     A
C194   C196    1.400   .     S
C194   O230    1.275   .     A
C196   C15     1.327   1_655 S
C196   H30     1.088   1_655 S
C197   C207    1.391   .     A
C197   H211    1.084   .     S
C197   C199    1.386   .     A
C198   C208    1.388   .     A
C198   H212    1.084   .     S
C198   C200    1.381   .     A
C199   C201    1.404   .     A
C199   O235    1.385   .     S
C200   O246    1.385   .     S
C200   C202    1.418   .     A
C201   C203    1.411   .     A
C202   C204    1.422   .     A
C203   C257    1.515   .     S
C203   C205    1.388   .     A
C204   C206    1.388   .     A
C204   C264    1.519   .     S
C205   C207    1.394   .     A
C205   H213    1.085   .     S
C206   H214    1.085   .     S
C206   C208    1.390   .     A
C207   C478    1.431   1_545 S
C208   C477    1.431   .     S
H209   C15     1.088   1_655 S
N223   Zn234   2.003   .     S
N224   Zn233   2.003   .     S
O225   Zn233   1.995   .     S
O226   Zn234   1.995   .     S
O227   Zn234   1.995   .     S
O228   Zn233   1.995   .     S
O229   Zn233   1.967   .     S
O230   Zn234   1.967   .     S
O231   Zn234   1.976   .     S
O232   Zn233   1.976   .     S
O235   C236    1.417   .     S
C236   H237    1.117   .     S
C236   C239    1.530   .     S
C236   H238    1.112   .     S
C239   H60     1.112   1_655 S
C239   H61     1.112   1_655 S
C239   C62     1.524   1_655 S
C242   H244    1.111   .     S
C242   H243    1.108   .     S
C242   H245    1.111   .     S
O246   C247    1.415   .     S
C247   H248    1.111   .     S
C247   H249    1.117   .     S
C247   C250    1.531   .     S
C250   H251    1.112   .     S
C250   H252    1.111   .     S
C250   C73     1.526   1_655 S
C253   H254    1.108   .     S
C253   H255    1.110   .     S
C253   H256    1.111   .     S
C257   C258    1.525   .     S
C257   H263    1.108   .     S
C257   H262    1.112   .     S
C258   H260    1.111   .     S
C258   H259    1.111   .     S
C258   H261    1.111   .     S
C264   H270    1.108   .     S
C264   C265    1.527   .     S
C264   H269    1.112   .     S
C265   H267    1.110   .     S
C265   H266    1.110   .     S
C265   H268    1.111   .     S
C271   C291    1.425   .     S
C271   O317    1.281   .     A
C271   O315    1.280   .     A
C272   O316    1.287   .     A
C272   C292    1.447   .     S
C272   O318    1.286   .     A
C273   H305    1.082   .     S
C273   C275    1.407   .     A
C273   C281    1.410   .     A
C274   H306    1.082   .     S
C274   C282    1.410   .     A
C274   C276    1.406   .     A
C275   H307    1.082   .     S
C275   N313    1.363   .     A
C276   H308    1.082   .     S
C276   N314    1.363   .     A
C277   N313    1.363   .     A
C277   C279    1.407   .     A
C277   H309    1.082   .     S
C278   N314    1.363   .     A
C278   C280    1.406   .     A
C278   H310    1.081   .     S
C279   C281    1.410   .     A
C279   H311    1.082   .     S
C280   H312    1.082   .     S
C280   C282    1.410   .     A
C281   C822    1.512   1_554 S
C282   C821    1.512   .     S
C283   O321    1.275   .     A
C283   O319    1.276   .     A
C283   C285    1.399   .     S
C284   O322    1.276   .     A
C284   C286    1.400   .     S
C284   O320    1.275   .     A
C285   C466    1.327   1_455 S
C285   H479    1.088   1_455 S
C286   C375    1.327   .     S
C286   H390    1.088   .     S
C287   C297    1.391   .     A
C287   H301    1.084   .     S
C287   C289    1.386   .     A
C288   C298    1.388   .     A
C288   H302    1.084   .     S
C288   C290    1.381   .     A
C289   C291    1.404   .     A
C289   O325    1.385   .     S
C290   O336    1.385   .     S
C290   C292    1.418   .     A
C291   C293    1.411   .     A
C292   C294    1.422   .     A
C293   C347    1.515   .     S
C293   C295    1.388   .     A
C294   C296    1.388   .     A
C294   C354    1.519   .     S
C295   C297    1.394   .     A
C295   H303    1.085   .     S
C296   H304    1.085   .     S
C296   C298    1.390   .     A
C298   C27     1.431   1_565 S
H299   C375    1.088   .     S
H300   C466    1.088   1_455 S
N313   Zn324   2.003   .     S
N314   Zn323   2.003   .     S
O315   Zn323   1.995   .     S
O316   Zn324   1.995   .     S
O317   Zn324   1.995   .     S
O318   Zn323   1.995   .     S
O319   Zn323   1.967   .     S
O320   Zn324   1.967   .     S
O321   Zn324   1.976   .     S
O322   Zn323   1.976   .     S
O325   C326    1.417   .     S
C326   H327    1.117   .     S
C326   C329    1.530   .     S
C326   H328    1.112   .     S
C329   H420    1.112   .     S
C329   H421    1.112   .     S
C329   C422    1.524   .     S
H330   C509    1.112   1_455 S
H331   C509    1.112   1_455 S
C332   H334    1.111   .     S
C332   H333    1.108   .     S
C332   H335    1.111   .     S
C332   C509    1.524   1_455 S
O336   C337    1.415   .     S
C337   H338    1.111   .     S
C337   H339    1.117   .     S
C337   C340    1.531   .     S
C340   H341    1.112   .     S
C340   H342    1.111   .     S
C340   C433    1.526   .     S
C343   H344    1.108   .     S
C343   H345    1.110   .     S
C343   H346    1.111   .     S
C343   C520    1.526   1_455 S
C347   C348    1.525   .     S
C347   H353    1.108   .     S
C347   H352    1.112   .     S
C348   H350    1.111   .     S
C348   H349    1.111   .     S
C348   H351    1.111   .     S
C354   H360    1.108   .     S
C354   C355    1.527   .     S
C354   H359    1.112   .     S
C355   H357    1.110   .     S
C355   H356    1.110   .     S
C355   H358    1.111   .     S
C361   C381    1.425   .     S
C361   O407    1.281   .     A
C361   O405    1.280   .     A
C362   O406    1.287   .     A
C362   C382    1.447   .     S
C362   O408    1.286   .     A
C363   H395    1.082   .     S
C363   C365    1.407   .     A
C363   C371    1.410   .     A
C364   H396    1.082   .     S
C364   C372    1.410   .     A
C364   C366    1.406   .     A
C365   H397    1.082   .     S
C365   N403    1.363   .     A
C366   H398    1.082   .     S
C366   N404    1.363   .     A
C367   N403    1.363   .     A
C367   C369    1.407   .     A
C367   H399    1.082   .     S
C368   N404    1.363   .     A
C368   C370    1.406   .     A
C368   H400    1.081   .     S
C369   C371    1.410   .     A
C369   H401    1.082   .     S
C370   H402    1.082   .     S
C370   C372    1.410   .     A
C371   C912    1.512   1_554 S
C372   C911    1.512   .     S
C373   O411    1.275   .     A
C373   O409    1.276   .     A
C373   C375    1.399   .     S
C374   O412    1.276   .     A
C374   C376    1.400   .     S
C374   O410    1.275   .     A
C376   C465    1.327   .     S
C376   H480    1.088   .     S
C377   C387    1.391   .     A
C377   H391    1.084   .     S
C377   C379    1.386   .     A
C378   C388    1.388   .     A
C378   H392    1.084   .     S
C378   C380    1.381   .     A
C379   C381    1.404   .     A
C379   O415    1.385   .     S
C380   O426    1.385   .     S
C380   C382    1.418   .     A
C381   C383    1.411   .     A
C382   C384    1.422   .     A
C383   C437    1.515   .     S
C383   C385    1.388   .     A
C384   C386    1.388   .     A
C384   C444    1.519   .     S
C385   C387    1.394   .     A
C385   H393    1.085   .     S
C386   H394    1.085   .     S
C386   C388    1.390   .     A
C388   C117    1.431   1_565 S
H389   C465    1.088   .     S
N403   Zn414   2.003   .     S
N404   Zn413   2.003   .     S
O405   Zn413   1.995   .     S
O406   Zn414   1.995   .     S
O407   Zn414   1.995   .     S
O408   Zn413   1.995   .     S
O409   Zn413   1.967   .     S
O410   Zn414   1.967   .     S
O411   Zn414   1.976   .     S
O412   Zn413   1.976   .     S
O415   C416    1.417   .     S
C416   H417    1.117   .     S
C416   C419    1.530   .     S
C416   H418    1.112   .     S
C419   H510    1.112   .     S
C419   H511    1.112   .     S
C419   C512    1.524   .     S
C422   H424    1.111   .     S
C422   H423    1.108   .     S
C422   H425    1.111   .     S
O426   C427    1.415   .     S
C427   H428    1.111   .     S
C427   H429    1.117   .     S
C427   C430    1.531   .     S
C430   H431    1.112   .     S
C430   H432    1.111   .     S
C430   C523    1.526   .     S
C433   H434    1.108   .     S
C433   H435    1.110   .     S
C433   H436    1.111   .     S
C437   C438    1.525   .     S
C437   H443    1.108   .     S
C437   H442    1.112   .     S
C438   H440    1.111   .     S
C438   H439    1.111   .     S
C438   H441    1.111   .     S
C444   H450    1.108   .     S
C444   C445    1.527   .     S
C444   H449    1.112   .     S
C445   H447    1.110   .     S
C445   H446    1.110   .     S
C445   H448    1.111   .     S
C451   C471    1.425   .     S
C451   O497    1.281   .     A
C451   O495    1.280   .     A
C452   O496    1.287   .     A
C452   C472    1.447   .     S
C452   O498    1.286   .     A
C453   H485    1.082   .     S
C453   C455    1.407   .     A
C453   C461    1.410   .     A
C454   H486    1.082   .     S
C454   C462    1.410   .     A
C454   C456    1.406   .     A
C455   H487    1.082   .     S
C455   N493    1.363   .     A
C456   H488    1.082   .     S
C456   N494    1.363   .     A
C457   N493    1.363   .     A
C457   C459    1.407   .     A
C457   H489    1.082   .     S
C458   N494    1.363   .     A
C458   C460    1.406   .     A
C458   H490    1.081   .     S
C459   C461    1.410   .     A
C459   H491    1.082   .     S
C460   H492    1.082   .     S
C460   C462    1.410   .     A
C461   C1002   1.512   1_554 S
C462   C1001   1.512   .     S
C463   O501    1.275   .     A
C463   O499    1.276   .     A
C463   C465    1.399   .     S
C464   O502    1.276   .     A
C464   C466    1.400   .     S
C464   O500    1.275   .     A
C466   C285    1.327   1_655 S
C466   H300    1.088   1_655 S
C467   C477    1.391   .     A
C467   H481    1.084   .     S
C467   C469    1.386   .     A
C468   C478    1.388   .     A
C468   H482    1.084   .     S
C468   C470    1.381   .     A
C469   C471    1.404   .     A
C469   O505    1.385   .     S
C470   O516    1.385   .     S
C470   C472    1.418   .     A
C471   C473    1.411   .     A
C472   C474    1.422   .     A
C473   C527    1.515   .     S
C473   C475    1.388   .     A
C474   C476    1.388   .     A
C474   C534    1.519   .     S
C475   C477    1.394   .     A
C475   H483    1.085   .     S
C476   H484    1.085   .     S
C476   C478    1.390   .     A
C478   C207    1.431   1_565 S
H479   C285    1.088   1_655 S
N493   Zn504   2.003   .     S
N494   Zn503   2.003   .     S
O495   Zn503   1.995   .     S
O496   Zn504   1.995   .     S
O497   Zn504   1.995   .     S
O498   Zn503   1.995   .     S
O499   Zn503   1.967   .     S
O500   Zn504   1.967   .     S
O501   Zn504   1.976   .     S
O502   Zn503   1.976   .     S
O505   C506    1.417   .     S
C506   H507    1.117   .     S
C506   C509    1.530   .     S
C506   H508    1.112   .     S
C509   H330    1.112   1_655 S
C509   H331    1.112   1_655 S
C509   C332    1.524   1_655 S
C512   H514    1.111   .     S
C512   H513    1.108   .     S
C512   H515    1.111   .     S
O516   C517    1.415   .     S
C517   H518    1.111   .     S
C517   H519    1.117   .     S
C517   C520    1.531   .     S
C520   H521    1.112   .     S
C520   H522    1.111   .     S
C520   C343    1.526   1_655 S
C523   H524    1.108   .     S
C523   H525    1.110   .     S
C523   H526    1.111   .     S
C527   C528    1.525   .     S
C527   H533    1.108   .     S
C527   H532    1.112   .     S
C528   H530    1.111   .     S
C528   H529    1.111   .     S
C528   H531    1.111   .     S
C534   H540    1.108   .     S
C534   C535    1.527   .     S
C534   H539    1.112   .     S
C535   H537    1.110   .     S
C535   H536    1.110   .     S
C535   H538    1.111   .     S
C541   C561    1.425   .     S
C541   O587    1.281   .     A
C541   O585    1.280   .     A
C542   O586    1.287   .     A
C542   C562    1.447   .     S
C542   O588    1.286   .     A
C543   H575    1.082   .     S
C543   C545    1.407   .     A
C543   C551    1.410   .     A
C544   H576    1.082   .     S
C544   C552    1.410   .     A
C544   C546    1.406   .     A
C545   H577    1.082   .     S
C545   N583    1.363   .     A
C546   H578    1.082   .     S
C546   N584    1.363   .     A
C547   N583    1.363   .     A
C547   C549    1.407   .     A
C547   H579    1.082   .     S
C548   N584    1.363   .     A
C548   C550    1.406   .     A
C548   H580    1.081   .     S
C549   C551    1.410   .     A
C549   H581    1.082   .     S
C550   H582    1.082   .     S
C550   C552    1.410   .     A
C552   C11     1.512   1_556 S
C553   O591    1.275   .     A
C553   O589    1.276   .     A
C553   C555    1.399   .     S
C554   O592    1.276   .     A
C554   C556    1.400   .     S
C554   O590    1.275   .     A
C555   C736    1.327   1_455 S
C555   H749    1.088   1_455 S
C556   C645    1.327   .     S
C556   H660    1.088   .     S
C557   C567    1.391   .     A
C557   H571    1.084   .     S
C557   C559    1.386   .     A
C558   C568    1.388   .     A
C558   H572    1.084   .     S
C558   C560    1.381   .     A
C559   C561    1.404   .     A
C559   O595    1.385   .     S
C560   O606    1.385   .     S
C560   C562    1.418   .     A
C561   C563    1.411   .     A
C562   C564    1.422   .     A
C563   C617    1.515   .     S
C563   C565    1.388   .     A
C564   C566    1.388   .     A
C564   C624    1.519   .     S
C565   C567    1.394   .     A
C565   H573    1.085   .     S
C566   H574    1.085   .     S
C566   C568    1.390   .     A
C567   C838    1.431   1_545 S
C568   C837    1.431   .     S
H569   C645    1.088   .     S
H570   C736    1.088   1_455 S
N583   Zn594   2.003   .     S
N584   Zn593   2.003   .     S
O585   Zn593   1.995   .     S
O586   Zn594   1.995   .     S
O587   Zn594   1.995   .     S
O588   Zn593   1.995   .     S
O589   Zn593   1.967   .     S
O590   Zn594   1.967   .     S
O591   Zn594   1.976   .     S
O592   Zn593   1.976   .     S
O595   C596    1.417   .     S
C596   H597    1.117   .     S
C596   C599    1.530   .     S
C596   H598    1.112   .     S
C599   H690    1.112   .     S
C599   H691    1.112   .     S
C599   C692    1.524   .     S
H600   C779    1.112   1_455 S
H601   C779    1.112   1_455 S
C602   H604    1.111   .     S
C602   H603    1.108   .     S
C602   H605    1.111   .     S
C602   C779    1.524   1_455 S
O606   C607    1.415   .     S
C607   H608    1.111   .     S
C607   H609    1.117   .     S
C607   C610    1.531   .     S
C610   H611    1.112   .     S
C610   H612    1.111   .     S
C610   C703    1.526   .     S
C613   H614    1.108   .     S
C613   H615    1.110   .     S
C613   H616    1.111   .     S
C613   C790    1.526   1_455 S
C617   C618    1.525   .     S
C617   H623    1.108   .     S
C617   H622    1.112   .     S
C618   H620    1.111   .     S
C618   H619    1.111   .     S
C618   H621    1.111   .     S
C624   H630    1.108   .     S
C624   C625    1.527   .     S
C624   H629    1.112   .     S
C625   H627    1.110   .     S
C625   H626    1.110   .     S
C625   H628    1.111   .     S
C631   C651    1.425   .     S
C631   O677    1.281   .     A
C631   O675    1.280   .     A
C632   O676    1.287   .     A
C632   C652    1.447   .     S
C632   O678    1.286   .     A
C633   H665    1.082   .     S
C633   C635    1.407   .     A
C633   C641    1.410   .     A
C634   H666    1.082   .     S
C634   C642    1.410   .     A
C634   C636    1.406   .     A
C635   H667    1.082   .     S
C635   N673    1.363   .     A
C636   H668    1.082   .     S
C636   N674    1.363   .     A
C637   N673    1.363   .     A
C637   C639    1.407   .     A
C637   H669    1.082   .     S
C638   N674    1.363   .     A
C638   C640    1.406   .     A
C638   H670    1.081   .     S
C639   C641    1.410   .     A
C639   H671    1.082   .     S
C640   H672    1.082   .     S
C640   C642    1.410   .     A
C642   C101    1.512   1_556 S
C643   O681    1.275   .     A
C643   O679    1.276   .     A
C643   C645    1.399   .     S
C644   O682    1.276   .     A
C644   C646    1.400   .     S
C644   O680    1.275   .     A
C646   C735    1.327   .     S
C646   H750    1.088   .     S
C647   C657    1.391   .     A
C647   H661    1.084   .     S
C647   C649    1.386   .     A
C648   C658    1.388   .     A
C648   H662    1.084   .     S
C648   C650    1.381   .     A
C649   C651    1.404   .     A
C649   O685    1.385   .     S
C650   O696    1.385   .     S
C650   C652    1.418   .     A
C651   C653    1.411   .     A
C652   C654    1.422   .     A
C653   C707    1.515   .     S
C653   C655    1.388   .     A
C654   C656    1.388   .     A
C654   C714    1.519   .     S
C655   C657    1.394   .     A
C655   H663    1.085   .     S
C656   H664    1.085   .     S
C656   C658    1.390   .     A
C657   C928    1.431   1_545 S
C658   C927    1.431   .     S
H659   C735    1.088   .     S
N673   Zn684   2.003   .     S
N674   Zn683   2.003   .     S
O675   Zn683   1.995   .     S
O676   Zn684   1.995   .     S
O677   Zn684   1.995   .     S
O678   Zn683   1.995   .     S
O679   Zn683   1.967   .     S
O680   Zn684   1.967   .     S
O681   Zn684   1.976   .     S
O682   Zn683   1.976   .     S
O685   C686    1.417   .     S
C686   H687    1.117   .     S
C686   C689    1.530   .     S
C686   H688    1.112   .     S
C689   H780    1.112   .     S
C689   H781    1.112   .     S
C689   C782    1.524   .     S
C692   H694    1.111   .     S
C692   H693    1.108   .     S
C692   H695    1.111   .     S
O696   C697    1.415   .     S
C697   H698    1.111   .     S
C697   H699    1.117   .     S
C697   C700    1.531   .     S
C700   H701    1.112   .     S
C700   H702    1.111   .     S
C700   C793    1.526   .     S
C703   H704    1.108   .     S
C703   H705    1.110   .     S
C703   H706    1.111   .     S
C707   C708    1.525   .     S
C707   H713    1.108   .     S
C707   H712    1.112   .     S
C708   H710    1.111   .     S
C708   H709    1.111   .     S
C708   H711    1.111   .     S
C714   H720    1.108   .     S
C714   C715    1.527   .     S
C714   H719    1.112   .     S
C715   H717    1.110   .     S
C715   H716    1.110   .     S
C715   H718    1.111   .     S
C721   C741    1.425   .     S
C721   O767    1.281   .     A
C721   O765    1.280   .     A
C722   O766    1.287   .     A
C722   C742    1.447   .     S
C722   O768    1.286   .     A
C723   H755    1.082   .     S
C723   C725    1.407   .     A
C723   C731    1.410   .     A
C724   H756    1.082   .     S
C724   C732    1.410   .     A
C724   C726    1.406   .     A
C725   H757    1.082   .     S
C725   N763    1.363   .     A
C726   H758    1.082   .     S
C726   N764    1.363   .     A
C727   N763    1.363   .     A
C727   C729    1.407   .     A
C727   H759    1.082   .     S
C728   N764    1.363   .     A
C728   C730    1.406   .     A
C728   H760    1.081   .     S
C729   C731    1.410   .     A
C729   H761    1.082   .     S
C730   H762    1.082   .     S
C730   C732    1.410   .     A
C732   C191    1.512   1_556 S
C733   O771    1.275   .     A
C733   O769    1.276   .     A
C733   C735    1.399   .     S
C734   O772    1.276   .     A
C734   C736    1.400   .     S
C734   O770    1.275   .     A
C736   C555    1.327   1_655 S
C736   H570    1.088   1_655 S
C737   C747    1.391   .     A
C737   H751    1.084   .     S
C737   C739    1.386   .     A
C738   C748    1.388   .     A
C738   H752    1.084   .     S
C738   C740    1.381   .     A
C739   C741    1.404   .     A
C739   O775    1.385   .     S
C740   O786    1.385   .     S
C740   C742    1.418   .     A
C741   C743    1.411   .     A
C742   C744    1.422   .     A
C743   C797    1.515   .     S
C743   C745    1.388   .     A
C744   C746    1.388   .     A
C744   C804    1.519   .     S
C745   C747    1.394   .     A
C745   H753    1.085   .     S
C746   H754    1.085   .     S
C746   C748    1.390   .     A
C747   C1018   1.431   1_545 S
C748   C1017   1.431   .     S
H749   C555    1.088   1_655 S
N763   Zn774   2.003   .     S
N764   Zn773   2.003   .     S
O765   Zn773   1.995   .     S
O766   Zn774   1.995   .     S
O767   Zn774   1.995   .     S
O768   Zn773   1.995   .     S
O769   Zn773   1.967   .     S
O770   Zn774   1.967   .     S
O771   Zn774   1.976   .     S
O772   Zn773   1.976   .     S
O775   C776    1.417   .     S
C776   H777    1.117   .     S
C776   C779    1.530   .     S
C776   H778    1.112   .     S
C779   H600    1.112   1_655 S
C779   H601    1.112   1_655 S
C779   C602    1.524   1_655 S
C782   H784    1.111   .     S
C782   H783    1.108   .     S
C782   H785    1.111   .     S
O786   C787    1.415   .     S
C787   H788    1.111   .     S
C787   H789    1.117   .     S
C787   C790    1.531   .     S
C790   H791    1.112   .     S
C790   H792    1.111   .     S
C790   C613    1.526   1_655 S
C793   H794    1.108   .     S
C793   H795    1.110   .     S
C793   H796    1.111   .     S
C797   C798    1.525   .     S
C797   H803    1.108   .     S
C797   H802    1.112   .     S
C798   H800    1.111   .     S
C798   H799    1.111   .     S
C798   H801    1.111   .     S
C804   H810    1.108   .     S
C804   C805    1.527   .     S
C804   H809    1.112   .     S
C805   H807    1.110   .     S
C805   H806    1.110   .     S
C805   H808    1.111   .     S
C811   C831    1.425   .     S
C811   O857    1.281   .     A
C811   O855    1.280   .     A
C812   O856    1.287   .     A
C812   C832    1.447   .     S
C812   O858    1.286   .     A
C813   H845    1.082   .     S
C813   C815    1.407   .     A
C813   C821    1.410   .     A
C814   H846    1.082   .     S
C814   C822    1.410   .     A
C814   C816    1.406   .     A
C815   H847    1.082   .     S
C815   N853    1.363   .     A
C816   H848    1.082   .     S
C816   N854    1.363   .     A
C817   N853    1.363   .     A
C817   C819    1.407   .     A
C817   H849    1.082   .     S
C818   N854    1.363   .     A
C818   C820    1.406   .     A
C818   H850    1.081   .     S
C819   C821    1.410   .     A
C819   H851    1.082   .     S
C820   H852    1.082   .     S
C820   C822    1.410   .     A
C822   C281    1.512   1_556 S
C823   O861    1.275   .     A
C823   O859    1.276   .     A
C823   C825    1.399   .     S
C824   O862    1.276   .     A
C824   C826    1.400   .     S
C824   O860    1.275   .     A
C825   C1006   1.327   1_455 S
C825   H1019   1.088   1_455 S
C826   C915    1.327   .     S
C826   H930    1.088   .     S
C827   C837    1.391   .     A
C827   H841    1.084   .     S
C827   C829    1.386   .     A
C828   C838    1.388   .     A
C828   H842    1.084   .     S
C828   C830    1.381   .     A
C829   C831    1.404   .     A
C829   O865    1.385   .     S
C830   O876    1.385   .     S
C830   C832    1.418   .     A
C831   C833    1.411   .     A
C832   C834    1.422   .     A
C833   C887    1.515   .     S
C833   C835    1.388   .     A
C834   C836    1.388   .     A
C834   C894    1.519   .     S
C835   C837    1.394   .     A
C835   H843    1.085   .     S
C836   H844    1.085   .     S
C836   C838    1.390   .     A
C838   C567    1.431   1_565 S
H839   C915    1.088   .     S
H840   C1006   1.088   1_455 S
N853   Zn864   2.003   .     S
N854   Zn863   2.003   .     S
O855   Zn863   1.995   .     S
O856   Zn864   1.995   .     S
O857   Zn864   1.995   .     S
O858   Zn863   1.995   .     S
O859   Zn863   1.967   .     S
O860   Zn864   1.967   .     S
O861   Zn864   1.976   .     S
O862   Zn863   1.976   .     S
O865   C866    1.417   .     S
C866   H867    1.117   .     S
C866   C869    1.530   .     S
C866   H868    1.112   .     S
C869   H960    1.112   .     S
C869   H961    1.112   .     S
C869   C962    1.524   .     S
H870   C1049   1.112   1_455 S
H871   C1049   1.112   1_455 S
C872   H874    1.111   .     S
C872   H873    1.108   .     S
C872   H875    1.111   .     S
C872   C1049   1.524   1_455 S
O876   C877    1.415   .     S
C877   H878    1.111   .     S
C877   H879    1.117   .     S
C877   C880    1.531   .     S
C880   H881    1.112   .     S
C880   H882    1.111   .     S
C880   C973    1.526   .     S
C883   H884    1.108   .     S
C883   H885    1.110   .     S
C883   H886    1.111   .     S
C883   C1060   1.526   1_455 S
C887   C888    1.525   .     S
C887   H893    1.108   .     S
C887   H892    1.112   .     S
C888   H890    1.111   .     S
C888   H889    1.111   .     S
C888   H891    1.111   .     S
C894   H900    1.108   .     S
C894   C895    1.527   .     S
C894   H899    1.112   .     S
C895   H897    1.110   .     S
C895   H896    1.110   .     S
C895   H898    1.111   .     S
C901   C921    1.425   .     S
C901   O947    1.281   .     A
C901   O945    1.280   .     A
C902   O946    1.287   .     A
C902   C922    1.447   .     S
C902   O948    1.286   .     A
C903   H935    1.082   .     S
C903   C905    1.407   .     A
C903   C911    1.410   .     A
C904   H936    1.082   .     S
C904   C912    1.410   .     A
C904   C906    1.406   .     A
C905   H937    1.082   .     S
C905   N943    1.363   .     A
C906   H938    1.082   .     S
C906   N944    1.363   .     A
C907   N943    1.363   .     A
C907   C909    1.407   .     A
C907   H939    1.082   .     S
C908   N944    1.363   .     A
C908   C910    1.406   .     A
C908   H940    1.081   .     S
C909   C911    1.410   .     A
C909   H941    1.082   .     S
C910   H942    1.082   .     S
C910   C912    1.410   .     A
C912   C371    1.512   1_556 S
C913   O951    1.275   .     A
C913   O949    1.276   .     A
C913   C915    1.399   .     S
C914   O952    1.276   .     A
C914   C916    1.400   .     S
C914   O950    1.275   .     A
C916   C1005   1.327   .     S
C916   H1020   1.088   .     S
C917   C927    1.391   .     A
C917   H931    1.084   .     S
C917   C919    1.386   .     A
C918   C928    1.388   .     A
C918   H932    1.084   .     S
C918   C920    1.381   .     A
C919   C921    1.404   .     A
C919   O955    1.385   .     S
C920   O966    1.385   .     S
C920   C922    1.418   .     A
C921   C923    1.411   .     A
C922   C924    1.422   .     A
C923   C977    1.515   .     S
C923   C925    1.388   .     A
C924   C926    1.388   .     A
C924   C984    1.519   .     S
C925   C927    1.394   .     A
C925   H933    1.085   .     S
C926   H934    1.085   .     S
C926   C928    1.390   .     A
C928   C657    1.431   1_565 S
H929   C1005   1.088   .     S
N943   Zn954   2.003   .     S
N944   Zn953   2.003   .     S
O945   Zn953   1.995   .     S
O946   Zn954   1.995   .     S
O947   Zn954   1.995   .     S
O948   Zn953   1.995   .     S
O949   Zn953   1.967   .     S
O950   Zn954   1.967   .     S
O951   Zn954   1.976   .     S
O952   Zn953   1.976   .     S
O955   C956    1.417   .     S
C956   H957    1.117   .     S
C956   C959    1.530   .     S
C956   H958    1.112   .     S
C959   H1050   1.112   .     S
C959   H1051   1.112   .     S
C959   C1052   1.524   .     S
C962   H964    1.111   .     S
C962   H963    1.108   .     S
C962   H965    1.111   .     S
O966   C967    1.415   .     S
C967   H968    1.111   .     S
C967   H969    1.117   .     S
C967   C970    1.531   .     S
C970   H971    1.112   .     S
C970   H972    1.111   .     S
C970   C1063   1.526   .     S
C973   H974    1.108   .     S
C973   H975    1.110   .     S
C973   H976    1.111   .     S
C977   C978    1.525   .     S
C977   H983    1.108   .     S
C977   H982    1.112   .     S
C978   H980    1.111   .     S
C978   H979    1.111   .     S
C978   H981    1.111   .     S
C984   H990    1.108   .     S
C984   C985    1.527   .     S
C984   H989    1.112   .     S
C985   H987    1.110   .     S
C985   H986    1.110   .     S
C985   H988    1.111   .     S
C991   C1011   1.425   .     S
C991   O1037   1.281   .     A
C991   O1035   1.280   .     A
C992   O1036   1.287   .     A
C992   C1012   1.447   .     S
C992   O1038   1.286   .     A
C993   H1025   1.082   .     S
C993   C995    1.407   .     A
C993   C1001   1.410   .     A
C994   H1026   1.082   .     S
C994   C1002   1.410   .     A
C994   C996    1.406   .     A
C995   H1027   1.082   .     S
C995   N1033   1.363   .     A
C996   H1028   1.082   .     S
C996   N1034   1.363   .     A
C997   N1033   1.363   .     A
C997   C999    1.407   .     A
C997   H1029   1.082   .     S
C998   N1034   1.363   .     A
C998   C1000   1.406   .     A
C998   H1030   1.081   .     S
C999   C1001   1.410   .     A
C999   H1031   1.082   .     S
C1000  H1032   1.082   .     S
C1000  C1002   1.410   .     A
C1002  C461    1.512   1_556 S
C1003  O1041   1.275   .     A
C1003  O1039   1.276   .     A
C1003  C1005   1.399   .     S
C1004  O1042   1.276   .     A
C1004  C1006   1.400   .     S
C1004  O1040   1.275   .     A
C1006  C825    1.327   1_655 S
C1006  H840    1.088   1_655 S
C1007  C1017   1.391   .     A
C1007  H1021   1.084   .     S
C1007  C1009   1.386   .     A
C1008  C1018   1.388   .     A
C1008  H1022   1.084   .     S
C1008  C1010   1.381   .     A
C1009  C1011   1.404   .     A
C1009  O1045   1.385   .     S
C1010  O1056   1.385   .     S
C1010  C1012   1.418   .     A
C1011  C1013   1.411   .     A
C1012  C1014   1.422   .     A
C1013  C1067   1.515   .     S
C1013  C1015   1.388   .     A
C1014  C1016   1.388   .     A
C1014  C1074   1.519   .     S
C1015  C1017   1.394   .     A
C1015  H1023   1.085   .     S
C1016  H1024   1.085   .     S
C1016  C1018   1.390   .     A
C1018  C747    1.431   1_565 S
H1019  C825    1.088   1_655 S
N1033  Zn1044  2.003   .     S
N1034  Zn1043  2.003   .     S
O1035  Zn1043  1.995   .     S
O1036  Zn1044  1.995   .     S
O1037  Zn1044  1.995   .     S
O1038  Zn1043  1.995   .     S
O1039  Zn1043  1.967   .     S
O1040  Zn1044  1.967   .     S
O1041  Zn1044  1.976   .     S
O1042  Zn1043  1.976   .     S
O1045  C1046   1.417   .     S
C1046  H1047   1.117   .     S
C1046  C1049   1.530   .     S
C1046  H1048   1.112   .     S
C1049  H870    1.112   1_655 S
C1049  H871    1.112   1_655 S
C1049  C872    1.524   1_655 S
C1052  H1054   1.111   .     S
C1052  H1053   1.108   .     S
C1052  H1055   1.111   .     S
O1056  C1057   1.415   .     S
C1057  H1058   1.111   .     S
C1057  H1059   1.117   .     S
C1057  C1060   1.531   .     S
C1060  H1061   1.112   .     S
C1060  H1062   1.111   .     S
C1060  C883    1.526   1_655 S
C1063  H1064   1.108   .     S
C1063  H1065   1.110   .     S
C1063  H1066   1.111   .     S
C1067  C1068   1.525   .     S
C1067  H1073   1.108   .     S
C1067  H1072   1.112   .     S
C1068  H1070   1.111   .     S
C1068  H1069   1.111   .     S
C1068  H1071   1.111   .     S
C1074  H1080   1.108   .     S
C1074  C1075   1.527   .     S
C1074  H1079   1.112   .     S
C1075  H1077   1.110   .     S
C1075  H1076   1.110   .     S
C1075  H1078   1.111   .     S
