data_str_m2_o10_o16_pcu_sym.137
_audit_creation_date              2020-01-03
_audit_creation_method            'Materials Studio'
_symmetry_space_group_name_H-M    'P1'
_symmetry_Int_Tables_number       1
_symmetry_cell_setting            triclinic
loop_
_symmetry_equiv_pos_as_xyz
  x,y,z
_cell_length_a                    22.6721
_cell_length_b                    26.4936
_cell_length_c                    26.8481
_cell_angle_alpha                 94.8373
_cell_angle_beta                  79.0504
_cell_angle_gamma                 102.7967
loop_
_atom_site_label
_atom_site_type_symbol
_atom_site_fract_x
_atom_site_fract_y
_atom_site_fract_z
_atom_site_U_iso_or_equiv
_atom_site_adp_type
_atom_site_occupancy
C1     C     0.18161   0.26630   0.25177   0.00000  Uiso   1.00
C2     C     0.14089   0.16744   0.48860   0.00000  Uiso   1.00
C3     C     0.16025   0.16495   0.43545   0.00000  Uiso   1.00
C4     C     0.18611   0.18735   0.01974   0.00000  Uiso   1.00
C5     C     0.24924   0.20049   0.49703   0.00000  Uiso   1.00
C6     C     0.26637   0.19091   0.44514   0.00000  Uiso   1.00
C7     C     0.22237   0.16592   0.41732   0.00000  Uiso   1.00
C8     C     0.17176   0.19189   0.07279   0.00000  Uiso   1.00
C9     C     0.27850   0.20755   0.07940   0.00000  Uiso   1.00
C10    C     0.11672   0.15267   0.40248   0.00000  Uiso   1.00
C11    C     0.19142   0.32179   0.25366   0.00000  Uiso   1.00
C12    C     0.13402   0.16091   0.34683   0.00000  Uiso   1.00
C13    C     0.14578   0.01130   0.24776   0.00000  Uiso   1.00
C14    C     0.15218   0.06688   0.24862   0.00000  Uiso   1.00
C15    C     0.19957   0.17599   0.15443   0.00000  Uiso   1.00
C16    C     0.29469   0.21634   0.02758   0.00000  Uiso   1.00
C17    C     0.21721   0.19087   0.10134   0.00000  Uiso   1.00
C18    C     0.05679   0.12987   0.42276   0.00000  Uiso   1.00
C19    C     0.03747   0.12249   0.47463   0.00000  Uiso   1.00
C20    C     0.07949   0.14333   0.00807   0.00000  Uiso   1.00
Cu21   Cu    0.10710   0.16105   0.24435   0.00000  Uiso   1.00
Cu22   Cu    0.22623   0.17228   0.25564   0.00000  Uiso   1.00
H23    H     0.31341   0.21212   0.10233   0.00000  Uiso   1.00
H24    H     0.10161   0.32132   0.24168   0.00000  Uiso   1.00
H25    H     0.00086   0.20117   0.29390   0.00000  Uiso   1.00
H26    H     0.31401   0.19382   0.42821   0.00000  Uiso   1.00
H27    H     0.02552   0.11509   0.39717   0.00000  Uiso   1.00
H28    H     0.06556   0.13932   0.04843   0.00000  Uiso   1.00
N29    N     0.31574   0.18074   0.26416   0.00000  Uiso   1.00
N30    N     0.01759   0.15259   0.23584   0.00000  Uiso   1.00
O31    O     0.12797   0.23807   0.24633   0.00000  Uiso   1.00
O32    O     0.22858   0.24755   0.25586   0.00000  Uiso   1.00
O33    O     0.09181   0.15960   0.31839   0.00000  Uiso   1.00
O34    O     0.19242   0.16908   0.32793   0.00000  Uiso   1.00
O35    O     0.10476   0.08578   0.24413   0.00000  Uiso   1.00
O36    O     0.20536   0.09526   0.25367   0.00000  Uiso   1.00
O37    O     0.14092   0.16425   0.17207   0.00000  Uiso   1.00
O38    O     0.24152   0.17373   0.18160   0.00000  Uiso   1.00
I39    I     0.33306   0.11222   0.16852   0.00000  Uiso   1.00
O40    O     0.02276   0.22827   0.00594   0.00000  Uiso   1.00
C41    C     0.04485   0.28240   0.00610   0.00000  Uiso   1.00
H42    H     0.09194   0.28988   0.01507   0.00000  Uiso   1.00
H43    H     0.01803   0.30445   0.03594   0.00000  Uiso   1.00
C44    C     0.04822   0.30221   0.45341   0.00000  Uiso   1.00
H45    H     0.05550   0.27132   0.42365   0.00000  Uiso   1.00
H46    H     0.00423   0.31332   0.45150   0.00000  Uiso   1.00
C47    C     0.10140   0.01507   0.44175   0.00000  Uiso   1.00
H48    H     0.10011   0.04483   0.47327   0.00000  Uiso   1.00
H49    H     0.09865   0.03205   0.40606   0.00000  Uiso   1.00
H50    H     0.14572   0.00230   0.43681   0.00000  Uiso   1.00
I51    I     0.10505   0.23545   0.10604   0.00000  Uiso   1.00
O52    O     0.30959   0.09751   0.48888   0.00000  Uiso   1.00
C53    C     0.29429   0.07970   0.03853   0.00000  Uiso   1.00
H54    H     0.29770   0.11295   0.06635   0.00000  Uiso   1.00
H55    H     0.32461   0.05376   0.04431   0.00000  Uiso   1.00
C56    C     0.22750   0.04992   0.04680   0.00000  Uiso   1.00
H57    H     0.19805   0.07431   0.03623   0.00000  Uiso   1.00
H58    H     0.22337   0.01400   0.02196   0.00000  Uiso   1.00
C59    C     0.20429   0.03575   0.10201   0.00000  Uiso   1.00
H60    H     0.22987   0.00826   0.11269   0.00000  Uiso   1.00
H61    H     0.15468   0.01757   0.10711   0.00000  Uiso   1.00
H62    H     0.20951   0.07091   0.12761   0.00000  Uiso   1.00
I63    I     0.24092   0.09666   0.37978   0.00000  Uiso   1.00
I64    I     0.28255   0.02354   0.26699   0.00000  Uiso   1.00
C65    C     0.51494   0.26630   0.25177   0.00000  Uiso   1.00
C66    C     0.47422   0.16744   0.48860   0.00000  Uiso   1.00
C67    C     0.49358   0.16495   0.43545   0.00000  Uiso   1.00
C68    C     0.51945   0.18735   0.01974   0.00000  Uiso   1.00
C69    C     0.58257   0.20049   0.49703   0.00000  Uiso   1.00
C70    C     0.59970   0.19091   0.44514   0.00000  Uiso   1.00
C71    C     0.55570   0.16592   0.41732   0.00000  Uiso   1.00
C72    C     0.50510   0.19189   0.07279   0.00000  Uiso   1.00
C73    C     0.61183   0.20755   0.07940   0.00000  Uiso   1.00
C74    C     0.45005   0.15267   0.40248   0.00000  Uiso   1.00
C75    C     0.52475   0.32179   0.25366   0.00000  Uiso   1.00
C76    C     0.46735   0.16091   0.34683   0.00000  Uiso   1.00
C77    C     0.47911   0.01130   0.24776   0.00000  Uiso   1.00
C78    C     0.48551   0.06688   0.24862   0.00000  Uiso   1.00
C79    C     0.53290   0.17599   0.15443   0.00000  Uiso   1.00
C80    C     0.62802   0.21634   0.02758   0.00000  Uiso   1.00
C81    C     0.55054   0.19087   0.10134   0.00000  Uiso   1.00
C82    C     0.39012   0.12987   0.42276   0.00000  Uiso   1.00
C83    C     0.37080   0.12249   0.47463   0.00000  Uiso   1.00
C84    C     0.41282   0.14333   0.00807   0.00000  Uiso   1.00
Cu85   Cu    0.44043   0.16105   0.24435   0.00000  Uiso   1.00
Cu86   Cu    0.55957   0.17228   0.25564   0.00000  Uiso   1.00
H87    H     0.64674   0.21212   0.10233   0.00000  Uiso   1.00
H88    H     0.43494   0.32132   0.24168   0.00000  Uiso   1.00
H89    H     0.33420   0.20117   0.29390   0.00000  Uiso   1.00
H90    H     0.64735   0.19382   0.42821   0.00000  Uiso   1.00
H91    H     0.35886   0.11509   0.39717   0.00000  Uiso   1.00
H92    H     0.39889   0.13932   0.04843   0.00000  Uiso   1.00
N93    N     0.64908   0.18074   0.26416   0.00000  Uiso   1.00
N94    N     0.35092   0.15259   0.23584   0.00000  Uiso   1.00
O95    O     0.46131   0.23807   0.24633   0.00000  Uiso   1.00
O96    O     0.56191   0.24755   0.25586   0.00000  Uiso   1.00
O97    O     0.42515   0.15960   0.31839   0.00000  Uiso   1.00
O98    O     0.52575   0.16908   0.32793   0.00000  Uiso   1.00
O99    O     0.43809   0.08578   0.24413   0.00000  Uiso   1.00
O100   O     0.53869   0.09526   0.25367   0.00000  Uiso   1.00
O101   O     0.47425   0.16425   0.17207   0.00000  Uiso   1.00
O102   O     0.57485   0.17373   0.18160   0.00000  Uiso   1.00
I103   I     0.66639   0.11222   0.16852   0.00000  Uiso   1.00
O104   O     0.35609   0.22827   0.00594   0.00000  Uiso   1.00
C105   C     0.37818   0.28240   0.00610   0.00000  Uiso   1.00
H106   H     0.42527   0.28988   0.01507   0.00000  Uiso   1.00
H107   H     0.35137   0.30445   0.03594   0.00000  Uiso   1.00
C108   C     0.38155   0.30221   0.45341   0.00000  Uiso   1.00
H109   H     0.38883   0.27132   0.42365   0.00000  Uiso   1.00
H110   H     0.33756   0.31332   0.45150   0.00000  Uiso   1.00
C111   C     0.43474   0.01507   0.44175   0.00000  Uiso   1.00
H112   H     0.43344   0.04483   0.47327   0.00000  Uiso   1.00
H113   H     0.43198   0.03205   0.40606   0.00000  Uiso   1.00
H114   H     0.47906   0.00230   0.43681   0.00000  Uiso   1.00
I115   I     0.43838   0.23545   0.10604   0.00000  Uiso   1.00
O116   O     0.64293   0.09751   0.48888   0.00000  Uiso   1.00
C117   C     0.62762   0.07970   0.03853   0.00000  Uiso   1.00
H118   H     0.63104   0.11295   0.06635   0.00000  Uiso   1.00
H119   H     0.65794   0.05376   0.04431   0.00000  Uiso   1.00
C120   C     0.56083   0.04992   0.04680   0.00000  Uiso   1.00
H121   H     0.53138   0.07431   0.03623   0.00000  Uiso   1.00
H122   H     0.55670   0.01400   0.02196   0.00000  Uiso   1.00
C123   C     0.53762   0.03575   0.10201   0.00000  Uiso   1.00
H124   H     0.56321   0.00826   0.11269   0.00000  Uiso   1.00
H125   H     0.48802   0.01757   0.10711   0.00000  Uiso   1.00
H126   H     0.54284   0.07091   0.12761   0.00000  Uiso   1.00
I127   I     0.57425   0.09666   0.37978   0.00000  Uiso   1.00
I128   I     0.61589   0.02354   0.26699   0.00000  Uiso   1.00
C129   C     0.84827   0.26630   0.25177   0.00000  Uiso   1.00
C130   C     0.80756   0.16744   0.48860   0.00000  Uiso   1.00
C131   C     0.82692   0.16495   0.43545   0.00000  Uiso   1.00
C132   C     0.85278   0.18735   0.01974   0.00000  Uiso   1.00
C133   C     0.91590   0.20049   0.49703   0.00000  Uiso   1.00
C134   C     0.93303   0.19091   0.44514   0.00000  Uiso   1.00
C135   C     0.88904   0.16592   0.41732   0.00000  Uiso   1.00
C136   C     0.83843   0.19189   0.07279   0.00000  Uiso   1.00
C137   C     0.94517   0.20755   0.07940   0.00000  Uiso   1.00
C138   C     0.78338   0.15267   0.40248   0.00000  Uiso   1.00
C139   C     0.85809   0.32179   0.25366   0.00000  Uiso   1.00
C140   C     0.80068   0.16091   0.34683   0.00000  Uiso   1.00
C141   C     0.81244   0.01130   0.24776   0.00000  Uiso   1.00
C142   C     0.81884   0.06688   0.24862   0.00000  Uiso   1.00
C143   C     0.86624   0.17599   0.15443   0.00000  Uiso   1.00
C144   C     0.96136   0.21634   0.02758   0.00000  Uiso   1.00
C145   C     0.88387   0.19087   0.10134   0.00000  Uiso   1.00
C146   C     0.72346   0.12987   0.42276   0.00000  Uiso   1.00
C147   C     0.70414   0.12249   0.47463   0.00000  Uiso   1.00
C148   C     0.74615   0.14333   0.00807   0.00000  Uiso   1.00
Cu149  Cu    0.77377   0.16105   0.24435   0.00000  Uiso   1.00
Cu150  Cu    0.89290   0.17228   0.25564   0.00000  Uiso   1.00
H151   H     0.98007   0.21212   0.10233   0.00000  Uiso   1.00
H152   H     0.76828   0.32132   0.24168   0.00000  Uiso   1.00
H153   H     0.66753   0.20117   0.29390   0.00000  Uiso   1.00
H154   H     0.98068   0.19382   0.42821   0.00000  Uiso   1.00
H155   H     0.69219   0.11509   0.39717   0.00000  Uiso   1.00
H156   H     0.73223   0.13932   0.04843   0.00000  Uiso   1.00
N157   N     0.98241   0.18074   0.26416   0.00000  Uiso   1.00
N158   N     0.68426   0.15259   0.23584   0.00000  Uiso   1.00
O159   O     0.79464   0.23807   0.24633   0.00000  Uiso   1.00
O160   O     0.89524   0.24755   0.25586   0.00000  Uiso   1.00
O161   O     0.75848   0.15960   0.31839   0.00000  Uiso   1.00
O162   O     0.85908   0.16908   0.32793   0.00000  Uiso   1.00
O163   O     0.77142   0.08578   0.24413   0.00000  Uiso   1.00
O164   O     0.87203   0.09526   0.25367   0.00000  Uiso   1.00
O165   O     0.80758   0.16425   0.17207   0.00000  Uiso   1.00
O166   O     0.90819   0.17373   0.18160   0.00000  Uiso   1.00
I167   I     0.99973   0.11222   0.16852   0.00000  Uiso   1.00
O168   O     0.68942   0.22827   0.00594   0.00000  Uiso   1.00
C169   C     0.71151   0.28240   0.00610   0.00000  Uiso   1.00
H170   H     0.75861   0.28988   0.01507   0.00000  Uiso   1.00
H171   H     0.68470   0.30445   0.03594   0.00000  Uiso   1.00
C172   C     0.71488   0.30221   0.45341   0.00000  Uiso   1.00
H173   H     0.72217   0.27132   0.42365   0.00000  Uiso   1.00
H174   H     0.67089   0.31332   0.45150   0.00000  Uiso   1.00
C175   C     0.76807   0.01507   0.44175   0.00000  Uiso   1.00
H176   H     0.76677   0.04483   0.47327   0.00000  Uiso   1.00
H177   H     0.76531   0.03205   0.40606   0.00000  Uiso   1.00
H178   H     0.81239   0.00230   0.43681   0.00000  Uiso   1.00
I179   I     0.77172   0.23545   0.10604   0.00000  Uiso   1.00
O180   O     0.97626   0.09751   0.48888   0.00000  Uiso   1.00
C181   C     0.96096   0.07970   0.03853   0.00000  Uiso   1.00
H182   H     0.96437   0.11295   0.06635   0.00000  Uiso   1.00
H183   H     0.99128   0.05376   0.04431   0.00000  Uiso   1.00
C184   C     0.89417   0.04992   0.04680   0.00000  Uiso   1.00
H185   H     0.86472   0.07431   0.03623   0.00000  Uiso   1.00
H186   H     0.89004   0.01400   0.02196   0.00000  Uiso   1.00
C187   C     0.87095   0.03575   0.10201   0.00000  Uiso   1.00
H188   H     0.89654   0.00826   0.11269   0.00000  Uiso   1.00
H189   H     0.82135   0.01757   0.10711   0.00000  Uiso   1.00
H190   H     0.87618   0.07091   0.12761   0.00000  Uiso   1.00
I191   I     0.90758   0.09666   0.37978   0.00000  Uiso   1.00
I192   I     0.94922   0.02354   0.26699   0.00000  Uiso   1.00
C193   C     0.18161   0.59963   0.25177   0.00000  Uiso   1.00
C194   C     0.14089   0.50077   0.48860   0.00000  Uiso   1.00
C195   C     0.16025   0.49828   0.43545   0.00000  Uiso   1.00
C196   C     0.18611   0.52069   0.01974   0.00000  Uiso   1.00
C197   C     0.24924   0.53382   0.49703   0.00000  Uiso   1.00
C198   C     0.26637   0.52425   0.44514   0.00000  Uiso   1.00
C199   C     0.22237   0.49925   0.41732   0.00000  Uiso   1.00
C200   C     0.17176   0.52522   0.07279   0.00000  Uiso   1.00
C201   C     0.27850   0.54088   0.07940   0.00000  Uiso   1.00
C202   C     0.11672   0.48601   0.40248   0.00000  Uiso   1.00
C203   C     0.19142   0.65513   0.25366   0.00000  Uiso   1.00
C204   C     0.13402   0.49424   0.34683   0.00000  Uiso   1.00
C205   C     0.14578   0.34463   0.24776   0.00000  Uiso   1.00
C206   C     0.15218   0.40021   0.24862   0.00000  Uiso   1.00
C207   C     0.19957   0.50932   0.15443   0.00000  Uiso   1.00
C208   C     0.29469   0.54967   0.02758   0.00000  Uiso   1.00
C209   C     0.21721   0.52420   0.10134   0.00000  Uiso   1.00
C210   C     0.05679   0.46321   0.42276   0.00000  Uiso   1.00
C211   C     0.03747   0.45583   0.47463   0.00000  Uiso   1.00
C212   C     0.07949   0.47666   0.00807   0.00000  Uiso   1.00
Cu213  Cu    0.10710   0.49439   0.24435   0.00000  Uiso   1.00
Cu214  Cu    0.22623   0.50561   0.25564   0.00000  Uiso   1.00
H215   H     0.31341   0.54546   0.10233   0.00000  Uiso   1.00
H216   H     0.10161   0.65465   0.24168   0.00000  Uiso   1.00
H217   H     0.00086   0.53451   0.29390   0.00000  Uiso   1.00
H218   H     0.31401   0.52715   0.42821   0.00000  Uiso   1.00
H219   H     0.02552   0.44842   0.39717   0.00000  Uiso   1.00
H220   H     0.06556   0.47265   0.04843   0.00000  Uiso   1.00
N221   N     0.31574   0.51407   0.26416   0.00000  Uiso   1.00
N222   N     0.01759   0.48593   0.23584   0.00000  Uiso   1.00
O223   O     0.12797   0.57141   0.24633   0.00000  Uiso   1.00
O224   O     0.22858   0.58089   0.25586   0.00000  Uiso   1.00
O225   O     0.09181   0.49293   0.31839   0.00000  Uiso   1.00
O226   O     0.19242   0.50241   0.32793   0.00000  Uiso   1.00
O227   O     0.10476   0.41911   0.24413   0.00000  Uiso   1.00
O228   O     0.20536   0.42859   0.25367   0.00000  Uiso   1.00
O229   O     0.14092   0.49759   0.17207   0.00000  Uiso   1.00
O230   O     0.24152   0.50707   0.18160   0.00000  Uiso   1.00
I231   I     0.33306   0.44555   0.16852   0.00000  Uiso   1.00
O232   O     0.02276   0.56161   0.00594   0.00000  Uiso   1.00
C233   C     0.04485   0.61574   0.00610   0.00000  Uiso   1.00
H234   H     0.09194   0.62321   0.01507   0.00000  Uiso   1.00
H235   H     0.01803   0.63779   0.03594   0.00000  Uiso   1.00
C236   C     0.04822   0.63554   0.45341   0.00000  Uiso   1.00
H237   H     0.05550   0.60465   0.42365   0.00000  Uiso   1.00
H238   H     0.00423   0.64665   0.45150   0.00000  Uiso   1.00
C239   C     0.10140   0.34840   0.44175   0.00000  Uiso   1.00
H240   H     0.10011   0.37816   0.47327   0.00000  Uiso   1.00
H241   H     0.09865   0.36538   0.40606   0.00000  Uiso   1.00
H242   H     0.14572   0.33564   0.43681   0.00000  Uiso   1.00
I243   I     0.10505   0.56878   0.10604   0.00000  Uiso   1.00
O244   O     0.30959   0.43085   0.48888   0.00000  Uiso   1.00
C245   C     0.29429   0.41304   0.03853   0.00000  Uiso   1.00
H246   H     0.29770   0.44629   0.06635   0.00000  Uiso   1.00
H247   H     0.32461   0.38710   0.04431   0.00000  Uiso   1.00
C248   C     0.22750   0.38326   0.04680   0.00000  Uiso   1.00
H249   H     0.19805   0.40764   0.03623   0.00000  Uiso   1.00
H250   H     0.22337   0.34733   0.02196   0.00000  Uiso   1.00
C251   C     0.20429   0.36908   0.10201   0.00000  Uiso   1.00
H252   H     0.22987   0.34160   0.11269   0.00000  Uiso   1.00
H253   H     0.15468   0.35090   0.10711   0.00000  Uiso   1.00
H254   H     0.20951   0.40425   0.12761   0.00000  Uiso   1.00
I255   I     0.24092   0.42999   0.37978   0.00000  Uiso   1.00
I256   I     0.28255   0.35687   0.26699   0.00000  Uiso   1.00
C257   C     0.51494   0.59963   0.25177   0.00000  Uiso   1.00
C258   C     0.47422   0.50077   0.48860   0.00000  Uiso   1.00
C259   C     0.49358   0.49828   0.43545   0.00000  Uiso   1.00
C260   C     0.51945   0.52069   0.01974   0.00000  Uiso   1.00
C261   C     0.58257   0.53382   0.49703   0.00000  Uiso   1.00
C262   C     0.59970   0.52425   0.44514   0.00000  Uiso   1.00
C263   C     0.55570   0.49925   0.41732   0.00000  Uiso   1.00
C264   C     0.50510   0.52522   0.07279   0.00000  Uiso   1.00
C265   C     0.61183   0.54088   0.07940   0.00000  Uiso   1.00
C266   C     0.45005   0.48601   0.40248   0.00000  Uiso   1.00
C267   C     0.52475   0.65513   0.25366   0.00000  Uiso   1.00
C268   C     0.46735   0.49424   0.34683   0.00000  Uiso   1.00
C269   C     0.47911   0.34463   0.24776   0.00000  Uiso   1.00
C270   C     0.48551   0.40021   0.24862   0.00000  Uiso   1.00
C271   C     0.53290   0.50932   0.15443   0.00000  Uiso   1.00
C272   C     0.62802   0.54967   0.02758   0.00000  Uiso   1.00
C273   C     0.55054   0.52420   0.10134   0.00000  Uiso   1.00
C274   C     0.39012   0.46321   0.42276   0.00000  Uiso   1.00
C275   C     0.37080   0.45583   0.47463   0.00000  Uiso   1.00
C276   C     0.41282   0.47666   0.00807   0.00000  Uiso   1.00
Cu277  Cu    0.44043   0.49439   0.24435   0.00000  Uiso   1.00
Cu278  Cu    0.55957   0.50561   0.25564   0.00000  Uiso   1.00
H279   H     0.64674   0.54546   0.10233   0.00000  Uiso   1.00
H280   H     0.43494   0.65465   0.24168   0.00000  Uiso   1.00
H281   H     0.33420   0.53451   0.29390   0.00000  Uiso   1.00
H282   H     0.64735   0.52715   0.42821   0.00000  Uiso   1.00
H283   H     0.35886   0.44842   0.39717   0.00000  Uiso   1.00
H284   H     0.39889   0.47265   0.04843   0.00000  Uiso   1.00
N285   N     0.64908   0.51407   0.26416   0.00000  Uiso   1.00
N286   N     0.35092   0.48593   0.23584   0.00000  Uiso   1.00
O287   O     0.46131   0.57141   0.24633   0.00000  Uiso   1.00
O288   O     0.56191   0.58089   0.25586   0.00000  Uiso   1.00
O289   O     0.42515   0.49293   0.31839   0.00000  Uiso   1.00
O290   O     0.52575   0.50241   0.32793   0.00000  Uiso   1.00
O291   O     0.43809   0.41911   0.24413   0.00000  Uiso   1.00
O292   O     0.53869   0.42859   0.25367   0.00000  Uiso   1.00
O293   O     0.47425   0.49759   0.17207   0.00000  Uiso   1.00
O294   O     0.57485   0.50707   0.18160   0.00000  Uiso   1.00
I295   I     0.66639   0.44555   0.16852   0.00000  Uiso   1.00
O296   O     0.35609   0.56161   0.00594   0.00000  Uiso   1.00
C297   C     0.37818   0.61574   0.00610   0.00000  Uiso   1.00
H298   H     0.42527   0.62321   0.01507   0.00000  Uiso   1.00
H299   H     0.35137   0.63779   0.03594   0.00000  Uiso   1.00
C300   C     0.38155   0.63554   0.45341   0.00000  Uiso   1.00
H301   H     0.38883   0.60465   0.42365   0.00000  Uiso   1.00
H302   H     0.33756   0.64665   0.45150   0.00000  Uiso   1.00
C303   C     0.43474   0.34840   0.44175   0.00000  Uiso   1.00
H304   H     0.43344   0.37816   0.47327   0.00000  Uiso   1.00
H305   H     0.43198   0.36538   0.40606   0.00000  Uiso   1.00
H306   H     0.47906   0.33564   0.43681   0.00000  Uiso   1.00
I307   I     0.43838   0.56878   0.10604   0.00000  Uiso   1.00
O308   O     0.64293   0.43085   0.48888   0.00000  Uiso   1.00
C309   C     0.62762   0.41304   0.03853   0.00000  Uiso   1.00
H310   H     0.63104   0.44629   0.06635   0.00000  Uiso   1.00
H311   H     0.65794   0.38710   0.04431   0.00000  Uiso   1.00
C312   C     0.56083   0.38326   0.04680   0.00000  Uiso   1.00
H313   H     0.53138   0.40764   0.03623   0.00000  Uiso   1.00
H314   H     0.55670   0.34733   0.02196   0.00000  Uiso   1.00
C315   C     0.53762   0.36908   0.10201   0.00000  Uiso   1.00
H316   H     0.56321   0.34160   0.11269   0.00000  Uiso   1.00
H317   H     0.48802   0.35090   0.10711   0.00000  Uiso   1.00
H318   H     0.54284   0.40425   0.12761   0.00000  Uiso   1.00
I319   I     0.57425   0.42999   0.37978   0.00000  Uiso   1.00
I320   I     0.61589   0.35687   0.26699   0.00000  Uiso   1.00
C321   C     0.84827   0.59963   0.25177   0.00000  Uiso   1.00
C322   C     0.80756   0.50077   0.48860   0.00000  Uiso   1.00
C323   C     0.82692   0.49828   0.43545   0.00000  Uiso   1.00
C324   C     0.85278   0.52069   0.01974   0.00000  Uiso   1.00
C325   C     0.91590   0.53382   0.49703   0.00000  Uiso   1.00
C326   C     0.93303   0.52425   0.44514   0.00000  Uiso   1.00
C327   C     0.88904   0.49925   0.41732   0.00000  Uiso   1.00
C328   C     0.83843   0.52522   0.07279   0.00000  Uiso   1.00
C329   C     0.94517   0.54088   0.07940   0.00000  Uiso   1.00
C330   C     0.78338   0.48601   0.40248   0.00000  Uiso   1.00
C331   C     0.85809   0.65513   0.25366   0.00000  Uiso   1.00
C332   C     0.80068   0.49424   0.34683   0.00000  Uiso   1.00
C333   C     0.81244   0.34463   0.24776   0.00000  Uiso   1.00
C334   C     0.81884   0.40021   0.24862   0.00000  Uiso   1.00
C335   C     0.86624   0.50932   0.15443   0.00000  Uiso   1.00
C336   C     0.96136   0.54967   0.02758   0.00000  Uiso   1.00
C337   C     0.88387   0.52420   0.10134   0.00000  Uiso   1.00
C338   C     0.72346   0.46321   0.42276   0.00000  Uiso   1.00
C339   C     0.70414   0.45583   0.47463   0.00000  Uiso   1.00
C340   C     0.74615   0.47666   0.00807   0.00000  Uiso   1.00
Cu341  Cu    0.77377   0.49439   0.24435   0.00000  Uiso   1.00
Cu342  Cu    0.89290   0.50561   0.25564   0.00000  Uiso   1.00
H343   H     0.98007   0.54546   0.10233   0.00000  Uiso   1.00
H344   H     0.76828   0.65465   0.24168   0.00000  Uiso   1.00
H345   H     0.66753   0.53451   0.29390   0.00000  Uiso   1.00
H346   H     0.98068   0.52715   0.42821   0.00000  Uiso   1.00
H347   H     0.69219   0.44842   0.39717   0.00000  Uiso   1.00
H348   H     0.73223   0.47265   0.04843   0.00000  Uiso   1.00
N349   N     0.98241   0.51407   0.26416   0.00000  Uiso   1.00
N350   N     0.68426   0.48593   0.23584   0.00000  Uiso   1.00
O351   O     0.79464   0.57141   0.24633   0.00000  Uiso   1.00
O352   O     0.89524   0.58089   0.25586   0.00000  Uiso   1.00
O353   O     0.75848   0.49293   0.31839   0.00000  Uiso   1.00
O354   O     0.85908   0.50241   0.32793   0.00000  Uiso   1.00
O355   O     0.77142   0.41911   0.24413   0.00000  Uiso   1.00
O356   O     0.87203   0.42859   0.25367   0.00000  Uiso   1.00
O357   O     0.80758   0.49759   0.17207   0.00000  Uiso   1.00
O358   O     0.90819   0.50707   0.18160   0.00000  Uiso   1.00
I359   I     0.99973   0.44555   0.16852   0.00000  Uiso   1.00
O360   O     0.68942   0.56161   0.00594   0.00000  Uiso   1.00
C361   C     0.71151   0.61574   0.00610   0.00000  Uiso   1.00
H362   H     0.75861   0.62321   0.01507   0.00000  Uiso   1.00
H363   H     0.68470   0.63779   0.03594   0.00000  Uiso   1.00
C364   C     0.71488   0.63554   0.45341   0.00000  Uiso   1.00
H365   H     0.72217   0.60465   0.42365   0.00000  Uiso   1.00
H366   H     0.67089   0.64665   0.45150   0.00000  Uiso   1.00
C367   C     0.76807   0.34840   0.44175   0.00000  Uiso   1.00
H368   H     0.76677   0.37816   0.47327   0.00000  Uiso   1.00
H369   H     0.76531   0.36538   0.40606   0.00000  Uiso   1.00
H370   H     0.81239   0.33564   0.43681   0.00000  Uiso   1.00
I371   I     0.77172   0.56878   0.10604   0.00000  Uiso   1.00
O372   O     0.97626   0.43085   0.48888   0.00000  Uiso   1.00
C373   C     0.96096   0.41304   0.03853   0.00000  Uiso   1.00
H374   H     0.96437   0.44629   0.06635   0.00000  Uiso   1.00
H375   H     0.99128   0.38710   0.04431   0.00000  Uiso   1.00
C376   C     0.89417   0.38326   0.04680   0.00000  Uiso   1.00
H377   H     0.86472   0.40764   0.03623   0.00000  Uiso   1.00
H378   H     0.89004   0.34733   0.02196   0.00000  Uiso   1.00
C379   C     0.87095   0.36908   0.10201   0.00000  Uiso   1.00
H380   H     0.89654   0.34160   0.11269   0.00000  Uiso   1.00
H381   H     0.82135   0.35090   0.10711   0.00000  Uiso   1.00
H382   H     0.87618   0.40425   0.12761   0.00000  Uiso   1.00
I383   I     0.90758   0.42999   0.37978   0.00000  Uiso   1.00
I384   I     0.94922   0.35687   0.26699   0.00000  Uiso   1.00
C385   C     0.18161   0.93296   0.25177   0.00000  Uiso   1.00
C386   C     0.14089   0.83411   0.48860   0.00000  Uiso   1.00
C387   C     0.16025   0.83161   0.43545   0.00000  Uiso   1.00
C388   C     0.18611   0.85402   0.01974   0.00000  Uiso   1.00
C389   C     0.24924   0.86716   0.49703   0.00000  Uiso   1.00
C390   C     0.26637   0.85758   0.44514   0.00000  Uiso   1.00
C391   C     0.22237   0.83258   0.41732   0.00000  Uiso   1.00
C392   C     0.17176   0.85855   0.07279   0.00000  Uiso   1.00
C393   C     0.27850   0.87422   0.07940   0.00000  Uiso   1.00
C394   C     0.11672   0.81934   0.40248   0.00000  Uiso   1.00
C395   C     0.19142   0.98846   0.25366   0.00000  Uiso   1.00
C396   C     0.13402   0.82757   0.34683   0.00000  Uiso   1.00
C397   C     0.14578   0.67796   0.24776   0.00000  Uiso   1.00
C398   C     0.15218   0.73354   0.24862   0.00000  Uiso   1.00
C399   C     0.19957   0.84265   0.15443   0.00000  Uiso   1.00
C400   C     0.29469   0.88300   0.02758   0.00000  Uiso   1.00
C401   C     0.21721   0.85753   0.10134   0.00000  Uiso   1.00
C402   C     0.05679   0.79654   0.42276   0.00000  Uiso   1.00
C403   C     0.03747   0.78916   0.47463   0.00000  Uiso   1.00
C404   C     0.07949   0.81000   0.00807   0.00000  Uiso   1.00
Cu405  Cu    0.10710   0.82772   0.24435   0.00000  Uiso   1.00
Cu406  Cu    0.22623   0.83895   0.25564   0.00000  Uiso   1.00
H407   H     0.31341   0.87879   0.10233   0.00000  Uiso   1.00
H408   H     0.10161   0.98799   0.24168   0.00000  Uiso   1.00
H409   H     0.00086   0.86784   0.29390   0.00000  Uiso   1.00
H410   H     0.31401   0.86049   0.42821   0.00000  Uiso   1.00
H411   H     0.02552   0.78176   0.39717   0.00000  Uiso   1.00
H412   H     0.06556   0.80599   0.04843   0.00000  Uiso   1.00
N413   N     0.31574   0.84741   0.26416   0.00000  Uiso   1.00
N414   N     0.01759   0.81926   0.23584   0.00000  Uiso   1.00
O415   O     0.12797   0.90474   0.24633   0.00000  Uiso   1.00
O416   O     0.22858   0.91422   0.25586   0.00000  Uiso   1.00
O417   O     0.09181   0.82627   0.31839   0.00000  Uiso   1.00
O418   O     0.19242   0.83575   0.32793   0.00000  Uiso   1.00
O419   O     0.10476   0.75245   0.24413   0.00000  Uiso   1.00
O420   O     0.20536   0.76193   0.25367   0.00000  Uiso   1.00
O421   O     0.14092   0.83092   0.17207   0.00000  Uiso   1.00
O422   O     0.24152   0.84040   0.18160   0.00000  Uiso   1.00
I423   I     0.33306   0.77888   0.16852   0.00000  Uiso   1.00
O424   O     0.02276   0.89494   0.00594   0.00000  Uiso   1.00
C425   C     0.04485   0.94907   0.00610   0.00000  Uiso   1.00
H426   H     0.09194   0.95654   0.01507   0.00000  Uiso   1.00
H427   H     0.01803   0.97112   0.03594   0.00000  Uiso   1.00
C428   C     0.04822   0.96888   0.45341   0.00000  Uiso   1.00
H429   H     0.05550   0.93798   0.42365   0.00000  Uiso   1.00
H430   H     0.00423   0.97999   0.45150   0.00000  Uiso   1.00
C431   C     0.10140   0.68173   0.44175   0.00000  Uiso   1.00
H432   H     0.10011   0.71150   0.47327   0.00000  Uiso   1.00
H433   H     0.09865   0.69871   0.40606   0.00000  Uiso   1.00
H434   H     0.14572   0.66897   0.43681   0.00000  Uiso   1.00
I435   I     0.10505   0.90211   0.10604   0.00000  Uiso   1.00
O436   O     0.30959   0.76418   0.48888   0.00000  Uiso   1.00
C437   C     0.29429   0.74637   0.03853   0.00000  Uiso   1.00
H438   H     0.29770   0.77962   0.06635   0.00000  Uiso   1.00
H439   H     0.32461   0.72043   0.04431   0.00000  Uiso   1.00
C440   C     0.22750   0.71659   0.04680   0.00000  Uiso   1.00
H441   H     0.19805   0.74097   0.03623   0.00000  Uiso   1.00
H442   H     0.22337   0.68067   0.02196   0.00000  Uiso   1.00
C443   C     0.20429   0.70242   0.10201   0.00000  Uiso   1.00
H444   H     0.22987   0.67493   0.11269   0.00000  Uiso   1.00
H445   H     0.15468   0.68424   0.10711   0.00000  Uiso   1.00
H446   H     0.20951   0.73758   0.12761   0.00000  Uiso   1.00
I447   I     0.24092   0.76333   0.37978   0.00000  Uiso   1.00
I448   I     0.28255   0.69021   0.26699   0.00000  Uiso   1.00
C449   C     0.51494   0.93296   0.25177   0.00000  Uiso   1.00
C450   C     0.47422   0.83411   0.48860   0.00000  Uiso   1.00
C451   C     0.49358   0.83161   0.43545   0.00000  Uiso   1.00
C452   C     0.51945   0.85402   0.01974   0.00000  Uiso   1.00
C453   C     0.58257   0.86716   0.49703   0.00000  Uiso   1.00
C454   C     0.59970   0.85758   0.44514   0.00000  Uiso   1.00
C455   C     0.55570   0.83258   0.41732   0.00000  Uiso   1.00
C456   C     0.50510   0.85855   0.07279   0.00000  Uiso   1.00
C457   C     0.61183   0.87422   0.07940   0.00000  Uiso   1.00
C458   C     0.45005   0.81934   0.40248   0.00000  Uiso   1.00
C459   C     0.52475   0.98846   0.25366   0.00000  Uiso   1.00
C460   C     0.46735   0.82757   0.34683   0.00000  Uiso   1.00
C461   C     0.47911   0.67796   0.24776   0.00000  Uiso   1.00
C462   C     0.48551   0.73354   0.24862   0.00000  Uiso   1.00
C463   C     0.53290   0.84265   0.15443   0.00000  Uiso   1.00
C464   C     0.62802   0.88300   0.02758   0.00000  Uiso   1.00
C465   C     0.55054   0.85753   0.10134   0.00000  Uiso   1.00
C466   C     0.39012   0.79654   0.42276   0.00000  Uiso   1.00
C467   C     0.37080   0.78916   0.47463   0.00000  Uiso   1.00
C468   C     0.41282   0.81000   0.00807   0.00000  Uiso   1.00
Cu469  Cu    0.44043   0.82772   0.24435   0.00000  Uiso   1.00
Cu470  Cu    0.55957   0.83895   0.25564   0.00000  Uiso   1.00
H471   H     0.64674   0.87879   0.10233   0.00000  Uiso   1.00
H472   H     0.43494   0.98799   0.24168   0.00000  Uiso   1.00
H473   H     0.33420   0.86784   0.29390   0.00000  Uiso   1.00
H474   H     0.64735   0.86049   0.42821   0.00000  Uiso   1.00
H475   H     0.35886   0.78176   0.39717   0.00000  Uiso   1.00
H476   H     0.39889   0.80599   0.04843   0.00000  Uiso   1.00
N477   N     0.64908   0.84741   0.26416   0.00000  Uiso   1.00
N478   N     0.35092   0.81926   0.23584   0.00000  Uiso   1.00
O479   O     0.46131   0.90474   0.24633   0.00000  Uiso   1.00
O480   O     0.56191   0.91422   0.25586   0.00000  Uiso   1.00
O481   O     0.42515   0.82627   0.31839   0.00000  Uiso   1.00
O482   O     0.52575   0.83575   0.32793   0.00000  Uiso   1.00
O483   O     0.43809   0.75245   0.24413   0.00000  Uiso   1.00
O484   O     0.53869   0.76193   0.25367   0.00000  Uiso   1.00
O485   O     0.47425   0.83092   0.17207   0.00000  Uiso   1.00
O486   O     0.57485   0.84040   0.18160   0.00000  Uiso   1.00
I487   I     0.66639   0.77888   0.16852   0.00000  Uiso   1.00
O488   O     0.35609   0.89494   0.00594   0.00000  Uiso   1.00
C489   C     0.37818   0.94907   0.00610   0.00000  Uiso   1.00
H490   H     0.42527   0.95654   0.01507   0.00000  Uiso   1.00
H491   H     0.35137   0.97112   0.03594   0.00000  Uiso   1.00
C492   C     0.38155   0.96888   0.45341   0.00000  Uiso   1.00
H493   H     0.38883   0.93798   0.42365   0.00000  Uiso   1.00
H494   H     0.33756   0.97999   0.45150   0.00000  Uiso   1.00
C495   C     0.43474   0.68173   0.44175   0.00000  Uiso   1.00
H496   H     0.43344   0.71150   0.47327   0.00000  Uiso   1.00
H497   H     0.43198   0.69871   0.40606   0.00000  Uiso   1.00
H498   H     0.47906   0.66897   0.43681   0.00000  Uiso   1.00
I499   I     0.43838   0.90211   0.10604   0.00000  Uiso   1.00
O500   O     0.64293   0.76418   0.48888   0.00000  Uiso   1.00
C501   C     0.62762   0.74637   0.03853   0.00000  Uiso   1.00
H502   H     0.63104   0.77962   0.06635   0.00000  Uiso   1.00
H503   H     0.65794   0.72043   0.04431   0.00000  Uiso   1.00
C504   C     0.56083   0.71659   0.04680   0.00000  Uiso   1.00
H505   H     0.53138   0.74097   0.03623   0.00000  Uiso   1.00
H506   H     0.55670   0.68067   0.02196   0.00000  Uiso   1.00
C507   C     0.53762   0.70242   0.10201   0.00000  Uiso   1.00
H508   H     0.56321   0.67493   0.11269   0.00000  Uiso   1.00
H509   H     0.48802   0.68424   0.10711   0.00000  Uiso   1.00
H510   H     0.54284   0.73758   0.12761   0.00000  Uiso   1.00
I511   I     0.57425   0.76333   0.37978   0.00000  Uiso   1.00
I512   I     0.61589   0.69021   0.26699   0.00000  Uiso   1.00
C513   C     0.84827   0.93296   0.25177   0.00000  Uiso   1.00
C514   C     0.80756   0.83411   0.48860   0.00000  Uiso   1.00
C515   C     0.82692   0.83161   0.43545   0.00000  Uiso   1.00
C516   C     0.85278   0.85402   0.01974   0.00000  Uiso   1.00
C517   C     0.91590   0.86716   0.49703   0.00000  Uiso   1.00
C518   C     0.93303   0.85758   0.44514   0.00000  Uiso   1.00
C519   C     0.88904   0.83258   0.41732   0.00000  Uiso   1.00
C520   C     0.83843   0.85855   0.07279   0.00000  Uiso   1.00
C521   C     0.94517   0.87422   0.07940   0.00000  Uiso   1.00
C522   C     0.78338   0.81934   0.40248   0.00000  Uiso   1.00
C523   C     0.85809   0.98846   0.25366   0.00000  Uiso   1.00
C524   C     0.80068   0.82757   0.34683   0.00000  Uiso   1.00
C525   C     0.81244   0.67796   0.24776   0.00000  Uiso   1.00
C526   C     0.81884   0.73354   0.24862   0.00000  Uiso   1.00
C527   C     0.86624   0.84265   0.15443   0.00000  Uiso   1.00
C528   C     0.96136   0.88300   0.02758   0.00000  Uiso   1.00
C529   C     0.88387   0.85753   0.10134   0.00000  Uiso   1.00
C530   C     0.72346   0.79654   0.42276   0.00000  Uiso   1.00
C531   C     0.70414   0.78916   0.47463   0.00000  Uiso   1.00
C532   C     0.74615   0.81000   0.00807   0.00000  Uiso   1.00
Cu533  Cu    0.77377   0.82772   0.24435   0.00000  Uiso   1.00
Cu534  Cu    0.89290   0.83895   0.25564   0.00000  Uiso   1.00
H535   H     0.98007   0.87879   0.10233   0.00000  Uiso   1.00
H536   H     0.76828   0.98799   0.24168   0.00000  Uiso   1.00
H537   H     0.66753   0.86784   0.29390   0.00000  Uiso   1.00
H538   H     0.98068   0.86049   0.42821   0.00000  Uiso   1.00
H539   H     0.69219   0.78176   0.39717   0.00000  Uiso   1.00
H540   H     0.73223   0.80599   0.04843   0.00000  Uiso   1.00
N541   N     0.98241   0.84741   0.26416   0.00000  Uiso   1.00
N542   N     0.68426   0.81926   0.23584   0.00000  Uiso   1.00
O543   O     0.79464   0.90474   0.24633   0.00000  Uiso   1.00
O544   O     0.89524   0.91422   0.25586   0.00000  Uiso   1.00
O545   O     0.75848   0.82627   0.31839   0.00000  Uiso   1.00
O546   O     0.85908   0.83575   0.32793   0.00000  Uiso   1.00
O547   O     0.77142   0.75245   0.24413   0.00000  Uiso   1.00
O548   O     0.87203   0.76193   0.25367   0.00000  Uiso   1.00
O549   O     0.80758   0.83092   0.17207   0.00000  Uiso   1.00
O550   O     0.90819   0.84040   0.18160   0.00000  Uiso   1.00
I551   I     0.99973   0.77888   0.16852   0.00000  Uiso   1.00
O552   O     0.68942   0.89494   0.00594   0.00000  Uiso   1.00
C553   C     0.71151   0.94907   0.00610   0.00000  Uiso   1.00
H554   H     0.75861   0.95654   0.01507   0.00000  Uiso   1.00
H555   H     0.68470   0.97112   0.03594   0.00000  Uiso   1.00
C556   C     0.71488   0.96888   0.45341   0.00000  Uiso   1.00
H557   H     0.72217   0.93798   0.42365   0.00000  Uiso   1.00
H558   H     0.67089   0.97999   0.45150   0.00000  Uiso   1.00
C559   C     0.76807   0.68173   0.44175   0.00000  Uiso   1.00
H560   H     0.76677   0.71150   0.47327   0.00000  Uiso   1.00
H561   H     0.76531   0.69871   0.40606   0.00000  Uiso   1.00
H562   H     0.81239   0.66897   0.43681   0.00000  Uiso   1.00
I563   I     0.77172   0.90211   0.10604   0.00000  Uiso   1.00
O564   O     0.97626   0.76418   0.48888   0.00000  Uiso   1.00
C565   C     0.96096   0.74637   0.03853   0.00000  Uiso   1.00
H566   H     0.96437   0.77962   0.06635   0.00000  Uiso   1.00
H567   H     0.99128   0.72043   0.04431   0.00000  Uiso   1.00
C568   C     0.89417   0.71659   0.04680   0.00000  Uiso   1.00
H569   H     0.86472   0.74097   0.03623   0.00000  Uiso   1.00
H570   H     0.89004   0.68067   0.02196   0.00000  Uiso   1.00
C571   C     0.87095   0.70242   0.10201   0.00000  Uiso   1.00
H572   H     0.89654   0.67493   0.11269   0.00000  Uiso   1.00
H573   H     0.82135   0.68424   0.10711   0.00000  Uiso   1.00
H574   H     0.87618   0.73758   0.12761   0.00000  Uiso   1.00
I575   I     0.90758   0.76333   0.37978   0.00000  Uiso   1.00
I576   I     0.94922   0.69021   0.26699   0.00000  Uiso   1.00
C577   C     0.18161   0.26630   0.75177   0.00000  Uiso   1.00
C578   C     0.14089   0.16744   0.98860   0.00000  Uiso   1.00
C579   C     0.16025   0.16495   0.93545   0.00000  Uiso   1.00
C580   C     0.18611   0.18735   0.51974   0.00000  Uiso   1.00
C581   C     0.24924   0.20049   0.99703   0.00000  Uiso   1.00
C582   C     0.26637   0.19091   0.94514   0.00000  Uiso   1.00
C583   C     0.22237   0.16592   0.91732   0.00000  Uiso   1.00
C584   C     0.17176   0.19189   0.57279   0.00000  Uiso   1.00
C585   C     0.27850   0.20755   0.57940   0.00000  Uiso   1.00
C586   C     0.11672   0.15267   0.90248   0.00000  Uiso   1.00
C587   C     0.19142   0.32179   0.75366   0.00000  Uiso   1.00
C588   C     0.13402   0.16091   0.84683   0.00000  Uiso   1.00
C589   C     0.14578   0.01130   0.74776   0.00000  Uiso   1.00
C590   C     0.15218   0.06688   0.74862   0.00000  Uiso   1.00
C591   C     0.19957   0.17599   0.65443   0.00000  Uiso   1.00
C592   C     0.29469   0.21634   0.52758   0.00000  Uiso   1.00
C593   C     0.21721   0.19087   0.60134   0.00000  Uiso   1.00
C594   C     0.05679   0.12987   0.92276   0.00000  Uiso   1.00
C595   C     0.03747   0.12249   0.97463   0.00000  Uiso   1.00
C596   C     0.07949   0.14333   0.50807   0.00000  Uiso   1.00
Cu597  Cu    0.10710   0.16105   0.74435   0.00000  Uiso   1.00
Cu598  Cu    0.22623   0.17228   0.75564   0.00000  Uiso   1.00
H599   H     0.31341   0.21212   0.60233   0.00000  Uiso   1.00
H600   H     0.10161   0.32132   0.74168   0.00000  Uiso   1.00
H601   H     0.00086   0.20117   0.79390   0.00000  Uiso   1.00
H602   H     0.31401   0.19382   0.92821   0.00000  Uiso   1.00
H603   H     0.02552   0.11509   0.89717   0.00000  Uiso   1.00
H604   H     0.06556   0.13932   0.54843   0.00000  Uiso   1.00
N605   N     0.31574   0.18074   0.76416   0.00000  Uiso   1.00
N606   N     0.01759   0.15259   0.73584   0.00000  Uiso   1.00
O607   O     0.12797   0.23807   0.74633   0.00000  Uiso   1.00
O608   O     0.22858   0.24755   0.75586   0.00000  Uiso   1.00
O609   O     0.09181   0.15960   0.81839   0.00000  Uiso   1.00
O610   O     0.19242   0.16908   0.82793   0.00000  Uiso   1.00
O611   O     0.10476   0.08578   0.74413   0.00000  Uiso   1.00
O612   O     0.20536   0.09526   0.75367   0.00000  Uiso   1.00
O613   O     0.14092   0.16425   0.67207   0.00000  Uiso   1.00
O614   O     0.24152   0.17373   0.68160   0.00000  Uiso   1.00
I615   I     0.33306   0.11222   0.66852   0.00000  Uiso   1.00
O616   O     0.02276   0.22827   0.50594   0.00000  Uiso   1.00
C617   C     0.04485   0.28240   0.50610   0.00000  Uiso   1.00
H618   H     0.09194   0.28988   0.51507   0.00000  Uiso   1.00
H619   H     0.01803   0.30445   0.53594   0.00000  Uiso   1.00
C620   C     0.04822   0.30221   0.95341   0.00000  Uiso   1.00
H621   H     0.05550   0.27132   0.92365   0.00000  Uiso   1.00
H622   H     0.00423   0.31332   0.95150   0.00000  Uiso   1.00
C623   C     0.10140   0.01507   0.94175   0.00000  Uiso   1.00
H624   H     0.10011   0.04483   0.97327   0.00000  Uiso   1.00
H625   H     0.09865   0.03205   0.90606   0.00000  Uiso   1.00
H626   H     0.14572   0.00230   0.93681   0.00000  Uiso   1.00
I627   I     0.10505   0.23545   0.60604   0.00000  Uiso   1.00
O628   O     0.30959   0.09751   0.98888   0.00000  Uiso   1.00
C629   C     0.29429   0.07970   0.53853   0.00000  Uiso   1.00
H630   H     0.29770   0.11295   0.56635   0.00000  Uiso   1.00
H631   H     0.32461   0.05376   0.54431   0.00000  Uiso   1.00
C632   C     0.22750   0.04992   0.54680   0.00000  Uiso   1.00
H633   H     0.19805   0.07431   0.53623   0.00000  Uiso   1.00
H634   H     0.22337   0.01400   0.52196   0.00000  Uiso   1.00
C635   C     0.20429   0.03575   0.60201   0.00000  Uiso   1.00
H636   H     0.22987   0.00826   0.61269   0.00000  Uiso   1.00
H637   H     0.15468   0.01757   0.60711   0.00000  Uiso   1.00
H638   H     0.20951   0.07091   0.62761   0.00000  Uiso   1.00
I639   I     0.24092   0.09666   0.87978   0.00000  Uiso   1.00
I640   I     0.28255   0.02354   0.76699   0.00000  Uiso   1.00
C641   C     0.51494   0.26630   0.75177   0.00000  Uiso   1.00
C642   C     0.47422   0.16744   0.98860   0.00000  Uiso   1.00
C643   C     0.49358   0.16495   0.93545   0.00000  Uiso   1.00
C644   C     0.51945   0.18735   0.51974   0.00000  Uiso   1.00
C645   C     0.58257   0.20049   0.99703   0.00000  Uiso   1.00
C646   C     0.59970   0.19091   0.94514   0.00000  Uiso   1.00
C647   C     0.55570   0.16592   0.91732   0.00000  Uiso   1.00
C648   C     0.50510   0.19189   0.57279   0.00000  Uiso   1.00
C649   C     0.61183   0.20755   0.57940   0.00000  Uiso   1.00
C650   C     0.45005   0.15267   0.90248   0.00000  Uiso   1.00
C651   C     0.52475   0.32179   0.75366   0.00000  Uiso   1.00
C652   C     0.46735   0.16091   0.84683   0.00000  Uiso   1.00
C653   C     0.47911   0.01130   0.74776   0.00000  Uiso   1.00
C654   C     0.48551   0.06688   0.74862   0.00000  Uiso   1.00
C655   C     0.53290   0.17599   0.65443   0.00000  Uiso   1.00
C656   C     0.62802   0.21634   0.52758   0.00000  Uiso   1.00
C657   C     0.55054   0.19087   0.60134   0.00000  Uiso   1.00
C658   C     0.39012   0.12987   0.92276   0.00000  Uiso   1.00
C659   C     0.37080   0.12249   0.97463   0.00000  Uiso   1.00
C660   C     0.41282   0.14333   0.50807   0.00000  Uiso   1.00
Cu661  Cu    0.44043   0.16105   0.74435   0.00000  Uiso   1.00
Cu662  Cu    0.55957   0.17228   0.75564   0.00000  Uiso   1.00
H663   H     0.64674   0.21212   0.60233   0.00000  Uiso   1.00
H664   H     0.43494   0.32132   0.74168   0.00000  Uiso   1.00
H665   H     0.33420   0.20117   0.79390   0.00000  Uiso   1.00
H666   H     0.64735   0.19382   0.92821   0.00000  Uiso   1.00
H667   H     0.35886   0.11509   0.89717   0.00000  Uiso   1.00
H668   H     0.39889   0.13932   0.54843   0.00000  Uiso   1.00
N669   N     0.64908   0.18074   0.76416   0.00000  Uiso   1.00
N670   N     0.35092   0.15259   0.73584   0.00000  Uiso   1.00
O671   O     0.46131   0.23807   0.74633   0.00000  Uiso   1.00
O672   O     0.56191   0.24755   0.75586   0.00000  Uiso   1.00
O673   O     0.42515   0.15960   0.81839   0.00000  Uiso   1.00
O674   O     0.52575   0.16908   0.82793   0.00000  Uiso   1.00
O675   O     0.43809   0.08578   0.74413   0.00000  Uiso   1.00
O676   O     0.53869   0.09526   0.75367   0.00000  Uiso   1.00
O677   O     0.47425   0.16425   0.67207   0.00000  Uiso   1.00
O678   O     0.57485   0.17373   0.68160   0.00000  Uiso   1.00
I679   I     0.66639   0.11222   0.66852   0.00000  Uiso   1.00
O680   O     0.35609   0.22827   0.50594   0.00000  Uiso   1.00
C681   C     0.37818   0.28240   0.50610   0.00000  Uiso   1.00
H682   H     0.42527   0.28988   0.51507   0.00000  Uiso   1.00
H683   H     0.35137   0.30445   0.53594   0.00000  Uiso   1.00
C684   C     0.38155   0.30221   0.95341   0.00000  Uiso   1.00
H685   H     0.38883   0.27132   0.92365   0.00000  Uiso   1.00
H686   H     0.33756   0.31332   0.95150   0.00000  Uiso   1.00
C687   C     0.43474   0.01507   0.94175   0.00000  Uiso   1.00
H688   H     0.43344   0.04483   0.97327   0.00000  Uiso   1.00
H689   H     0.43198   0.03205   0.90606   0.00000  Uiso   1.00
H690   H     0.47906   0.00230   0.93681   0.00000  Uiso   1.00
I691   I     0.43838   0.23545   0.60604   0.00000  Uiso   1.00
O692   O     0.64293   0.09751   0.98888   0.00000  Uiso   1.00
C693   C     0.62762   0.07970   0.53853   0.00000  Uiso   1.00
H694   H     0.63104   0.11295   0.56635   0.00000  Uiso   1.00
H695   H     0.65794   0.05376   0.54431   0.00000  Uiso   1.00
C696   C     0.56083   0.04992   0.54680   0.00000  Uiso   1.00
H697   H     0.53138   0.07431   0.53623   0.00000  Uiso   1.00
H698   H     0.55670   0.01400   0.52196   0.00000  Uiso   1.00
C699   C     0.53762   0.03575   0.60201   0.00000  Uiso   1.00
H700   H     0.56321   0.00826   0.61269   0.00000  Uiso   1.00
H701   H     0.48802   0.01757   0.60711   0.00000  Uiso   1.00
H702   H     0.54284   0.07091   0.62761   0.00000  Uiso   1.00
I703   I     0.57425   0.09666   0.87978   0.00000  Uiso   1.00
I704   I     0.61589   0.02354   0.76699   0.00000  Uiso   1.00
C705   C     0.84827   0.26630   0.75177   0.00000  Uiso   1.00
C706   C     0.80756   0.16744   0.98860   0.00000  Uiso   1.00
C707   C     0.82692   0.16495   0.93545   0.00000  Uiso   1.00
C708   C     0.85278   0.18735   0.51974   0.00000  Uiso   1.00
C709   C     0.91590   0.20049   0.99703   0.00000  Uiso   1.00
C710   C     0.93303   0.19091   0.94514   0.00000  Uiso   1.00
C711   C     0.88904   0.16592   0.91732   0.00000  Uiso   1.00
C712   C     0.83843   0.19189   0.57279   0.00000  Uiso   1.00
C713   C     0.94517   0.20755   0.57940   0.00000  Uiso   1.00
C714   C     0.78338   0.15267   0.90248   0.00000  Uiso   1.00
C715   C     0.85809   0.32179   0.75366   0.00000  Uiso   1.00
C716   C     0.80068   0.16091   0.84683   0.00000  Uiso   1.00
C717   C     0.81244   0.01130   0.74776   0.00000  Uiso   1.00
C718   C     0.81884   0.06688   0.74862   0.00000  Uiso   1.00
C719   C     0.86624   0.17599   0.65443   0.00000  Uiso   1.00
C720   C     0.96136   0.21634   0.52758   0.00000  Uiso   1.00
C721   C     0.88387   0.19087   0.60134   0.00000  Uiso   1.00
C722   C     0.72346   0.12987   0.92276   0.00000  Uiso   1.00
C723   C     0.70414   0.12249   0.97463   0.00000  Uiso   1.00
C724   C     0.74615   0.14333   0.50807   0.00000  Uiso   1.00
Cu725  Cu    0.77377   0.16105   0.74435   0.00000  Uiso   1.00
Cu726  Cu    0.89290   0.17228   0.75564   0.00000  Uiso   1.00
H727   H     0.98007   0.21212   0.60233   0.00000  Uiso   1.00
H728   H     0.76828   0.32132   0.74168   0.00000  Uiso   1.00
H729   H     0.66753   0.20117   0.79390   0.00000  Uiso   1.00
H730   H     0.98068   0.19382   0.92821   0.00000  Uiso   1.00
H731   H     0.69219   0.11509   0.89717   0.00000  Uiso   1.00
H732   H     0.73223   0.13932   0.54843   0.00000  Uiso   1.00
N733   N     0.98241   0.18074   0.76416   0.00000  Uiso   1.00
N734   N     0.68426   0.15259   0.73584   0.00000  Uiso   1.00
O735   O     0.79464   0.23807   0.74633   0.00000  Uiso   1.00
O736   O     0.89524   0.24755   0.75586   0.00000  Uiso   1.00
O737   O     0.75848   0.15960   0.81839   0.00000  Uiso   1.00
O738   O     0.85908   0.16908   0.82793   0.00000  Uiso   1.00
O739   O     0.77142   0.08578   0.74413   0.00000  Uiso   1.00
O740   O     0.87203   0.09526   0.75367   0.00000  Uiso   1.00
O741   O     0.80758   0.16425   0.67207   0.00000  Uiso   1.00
O742   O     0.90819   0.17373   0.68160   0.00000  Uiso   1.00
I743   I     0.99973   0.11222   0.66852   0.00000  Uiso   1.00
O744   O     0.68942   0.22827   0.50594   0.00000  Uiso   1.00
C745   C     0.71151   0.28240   0.50610   0.00000  Uiso   1.00
H746   H     0.75861   0.28988   0.51507   0.00000  Uiso   1.00
H747   H     0.68470   0.30445   0.53594   0.00000  Uiso   1.00
C748   C     0.71488   0.30221   0.95341   0.00000  Uiso   1.00
H749   H     0.72217   0.27132   0.92365   0.00000  Uiso   1.00
H750   H     0.67089   0.31332   0.95150   0.00000  Uiso   1.00
C751   C     0.76807   0.01507   0.94175   0.00000  Uiso   1.00
H752   H     0.76677   0.04483   0.97327   0.00000  Uiso   1.00
H753   H     0.76531   0.03205   0.90606   0.00000  Uiso   1.00
H754   H     0.81239   0.00230   0.93681   0.00000  Uiso   1.00
I755   I     0.77172   0.23545   0.60604   0.00000  Uiso   1.00
O756   O     0.97626   0.09751   0.98888   0.00000  Uiso   1.00
C757   C     0.96096   0.07970   0.53853   0.00000  Uiso   1.00
H758   H     0.96437   0.11295   0.56635   0.00000  Uiso   1.00
H759   H     0.99128   0.05376   0.54431   0.00000  Uiso   1.00
C760   C     0.89417   0.04992   0.54680   0.00000  Uiso   1.00
H761   H     0.86472   0.07431   0.53623   0.00000  Uiso   1.00
H762   H     0.89004   0.01400   0.52196   0.00000  Uiso   1.00
C763   C     0.87095   0.03575   0.60201   0.00000  Uiso   1.00
H764   H     0.89654   0.00826   0.61269   0.00000  Uiso   1.00
H765   H     0.82135   0.01757   0.60711   0.00000  Uiso   1.00
H766   H     0.87618   0.07091   0.62761   0.00000  Uiso   1.00
I767   I     0.90758   0.09666   0.87978   0.00000  Uiso   1.00
I768   I     0.94922   0.02354   0.76699   0.00000  Uiso   1.00
C769   C     0.18161   0.59963   0.75177   0.00000  Uiso   1.00
C770   C     0.14089   0.50077   0.98860   0.00000  Uiso   1.00
C771   C     0.16025   0.49828   0.93545   0.00000  Uiso   1.00
C772   C     0.18611   0.52069   0.51974   0.00000  Uiso   1.00
C773   C     0.24924   0.53382   0.99703   0.00000  Uiso   1.00
C774   C     0.26637   0.52425   0.94514   0.00000  Uiso   1.00
C775   C     0.22237   0.49925   0.91732   0.00000  Uiso   1.00
C776   C     0.17176   0.52522   0.57279   0.00000  Uiso   1.00
C777   C     0.27850   0.54088   0.57940   0.00000  Uiso   1.00
C778   C     0.11672   0.48601   0.90248   0.00000  Uiso   1.00
C779   C     0.19142   0.65513   0.75366   0.00000  Uiso   1.00
C780   C     0.13402   0.49424   0.84683   0.00000  Uiso   1.00
C781   C     0.14578   0.34463   0.74776   0.00000  Uiso   1.00
C782   C     0.15218   0.40021   0.74862   0.00000  Uiso   1.00
C783   C     0.19957   0.50932   0.65443   0.00000  Uiso   1.00
C784   C     0.29469   0.54967   0.52758   0.00000  Uiso   1.00
C785   C     0.21721   0.52420   0.60134   0.00000  Uiso   1.00
C786   C     0.05679   0.46321   0.92276   0.00000  Uiso   1.00
C787   C     0.03747   0.45583   0.97463   0.00000  Uiso   1.00
C788   C     0.07949   0.47666   0.50807   0.00000  Uiso   1.00
Cu789  Cu    0.10710   0.49439   0.74435   0.00000  Uiso   1.00
Cu790  Cu    0.22623   0.50561   0.75564   0.00000  Uiso   1.00
H791   H     0.31341   0.54546   0.60233   0.00000  Uiso   1.00
H792   H     0.10161   0.65465   0.74168   0.00000  Uiso   1.00
H793   H     0.00086   0.53451   0.79390   0.00000  Uiso   1.00
H794   H     0.31401   0.52715   0.92821   0.00000  Uiso   1.00
H795   H     0.02552   0.44842   0.89717   0.00000  Uiso   1.00
H796   H     0.06556   0.47265   0.54843   0.00000  Uiso   1.00
N797   N     0.31574   0.51407   0.76416   0.00000  Uiso   1.00
N798   N     0.01759   0.48593   0.73584   0.00000  Uiso   1.00
O799   O     0.12797   0.57141   0.74633   0.00000  Uiso   1.00
O800   O     0.22858   0.58089   0.75586   0.00000  Uiso   1.00
O801   O     0.09181   0.49293   0.81839   0.00000  Uiso   1.00
O802   O     0.19242   0.50241   0.82793   0.00000  Uiso   1.00
O803   O     0.10476   0.41911   0.74413   0.00000  Uiso   1.00
O804   O     0.20536   0.42859   0.75367   0.00000  Uiso   1.00
O805   O     0.14092   0.49759   0.67207   0.00000  Uiso   1.00
O806   O     0.24152   0.50707   0.68160   0.00000  Uiso   1.00
I807   I     0.33306   0.44555   0.66852   0.00000  Uiso   1.00
O808   O     0.02276   0.56161   0.50594   0.00000  Uiso   1.00
C809   C     0.04485   0.61574   0.50610   0.00000  Uiso   1.00
H810   H     0.09194   0.62321   0.51507   0.00000  Uiso   1.00
H811   H     0.01803   0.63779   0.53594   0.00000  Uiso   1.00
C812   C     0.04822   0.63554   0.95341   0.00000  Uiso   1.00
H813   H     0.05550   0.60465   0.92365   0.00000  Uiso   1.00
H814   H     0.00423   0.64665   0.95150   0.00000  Uiso   1.00
C815   C     0.10140   0.34840   0.94175   0.00000  Uiso   1.00
H816   H     0.10011   0.37816   0.97327   0.00000  Uiso   1.00
H817   H     0.09865   0.36538   0.90606   0.00000  Uiso   1.00
H818   H     0.14572   0.33564   0.93681   0.00000  Uiso   1.00
I819   I     0.10505   0.56878   0.60604   0.00000  Uiso   1.00
O820   O     0.30959   0.43085   0.98888   0.00000  Uiso   1.00
C821   C     0.29429   0.41304   0.53853   0.00000  Uiso   1.00
H822   H     0.29770   0.44629   0.56635   0.00000  Uiso   1.00
H823   H     0.32461   0.38710   0.54431   0.00000  Uiso   1.00
C824   C     0.22750   0.38326   0.54680   0.00000  Uiso   1.00
H825   H     0.19805   0.40764   0.53623   0.00000  Uiso   1.00
H826   H     0.22337   0.34733   0.52196   0.00000  Uiso   1.00
C827   C     0.20429   0.36908   0.60201   0.00000  Uiso   1.00
H828   H     0.22987   0.34160   0.61269   0.00000  Uiso   1.00
H829   H     0.15468   0.35090   0.60711   0.00000  Uiso   1.00
H830   H     0.20951   0.40425   0.62761   0.00000  Uiso   1.00
I831   I     0.24092   0.42999   0.87978   0.00000  Uiso   1.00
I832   I     0.28255   0.35687   0.76699   0.00000  Uiso   1.00
C833   C     0.51494   0.59963   0.75177   0.00000  Uiso   1.00
C834   C     0.47422   0.50077   0.98860   0.00000  Uiso   1.00
C835   C     0.49358   0.49828   0.93545   0.00000  Uiso   1.00
C836   C     0.51945   0.52069   0.51974   0.00000  Uiso   1.00
C837   C     0.58257   0.53382   0.99703   0.00000  Uiso   1.00
C838   C     0.59970   0.52425   0.94514   0.00000  Uiso   1.00
C839   C     0.55570   0.49925   0.91732   0.00000  Uiso   1.00
C840   C     0.50510   0.52522   0.57279   0.00000  Uiso   1.00
C841   C     0.61183   0.54088   0.57940   0.00000  Uiso   1.00
C842   C     0.45005   0.48601   0.90248   0.00000  Uiso   1.00
C843   C     0.52475   0.65513   0.75366   0.00000  Uiso   1.00
C844   C     0.46735   0.49424   0.84683   0.00000  Uiso   1.00
C845   C     0.47911   0.34463   0.74776   0.00000  Uiso   1.00
C846   C     0.48551   0.40021   0.74862   0.00000  Uiso   1.00
C847   C     0.53290   0.50932   0.65443   0.00000  Uiso   1.00
C848   C     0.62802   0.54967   0.52758   0.00000  Uiso   1.00
C849   C     0.55054   0.52420   0.60134   0.00000  Uiso   1.00
C850   C     0.39012   0.46321   0.92276   0.00000  Uiso   1.00
C851   C     0.37080   0.45583   0.97463   0.00000  Uiso   1.00
C852   C     0.41282   0.47666   0.50807   0.00000  Uiso   1.00
Cu853  Cu    0.44043   0.49439   0.74435   0.00000  Uiso   1.00
Cu854  Cu    0.55957   0.50561   0.75564   0.00000  Uiso   1.00
H855   H     0.64674   0.54546   0.60233   0.00000  Uiso   1.00
H856   H     0.43494   0.65465   0.74168   0.00000  Uiso   1.00
H857   H     0.33420   0.53451   0.79390   0.00000  Uiso   1.00
H858   H     0.64735   0.52715   0.92821   0.00000  Uiso   1.00
H859   H     0.35886   0.44842   0.89717   0.00000  Uiso   1.00
H860   H     0.39889   0.47265   0.54843   0.00000  Uiso   1.00
N861   N     0.64908   0.51407   0.76416   0.00000  Uiso   1.00
N862   N     0.35092   0.48593   0.73584   0.00000  Uiso   1.00
O863   O     0.46131   0.57141   0.74633   0.00000  Uiso   1.00
O864   O     0.56191   0.58089   0.75586   0.00000  Uiso   1.00
O865   O     0.42515   0.49293   0.81839   0.00000  Uiso   1.00
O866   O     0.52575   0.50241   0.82793   0.00000  Uiso   1.00
O867   O     0.43809   0.41911   0.74413   0.00000  Uiso   1.00
O868   O     0.53869   0.42859   0.75367   0.00000  Uiso   1.00
O869   O     0.47425   0.49759   0.67207   0.00000  Uiso   1.00
O870   O     0.57485   0.50707   0.68160   0.00000  Uiso   1.00
I871   I     0.66639   0.44555   0.66852   0.00000  Uiso   1.00
O872   O     0.35609   0.56161   0.50594   0.00000  Uiso   1.00
C873   C     0.37818   0.61574   0.50610   0.00000  Uiso   1.00
H874   H     0.42527   0.62321   0.51507   0.00000  Uiso   1.00
H875   H     0.35137   0.63779   0.53594   0.00000  Uiso   1.00
C876   C     0.38155   0.63554   0.95341   0.00000  Uiso   1.00
H877   H     0.38883   0.60465   0.92365   0.00000  Uiso   1.00
H878   H     0.33756   0.64665   0.95150   0.00000  Uiso   1.00
C879   C     0.43474   0.34840   0.94175   0.00000  Uiso   1.00
H880   H     0.43344   0.37816   0.97327   0.00000  Uiso   1.00
H881   H     0.43198   0.36538   0.90606   0.00000  Uiso   1.00
H882   H     0.47906   0.33564   0.93681   0.00000  Uiso   1.00
I883   I     0.43838   0.56878   0.60604   0.00000  Uiso   1.00
O884   O     0.64293   0.43085   0.98888   0.00000  Uiso   1.00
C885   C     0.62762   0.41304   0.53853   0.00000  Uiso   1.00
H886   H     0.63104   0.44629   0.56635   0.00000  Uiso   1.00
H887   H     0.65794   0.38710   0.54431   0.00000  Uiso   1.00
C888   C     0.56083   0.38326   0.54680   0.00000  Uiso   1.00
H889   H     0.53138   0.40764   0.53623   0.00000  Uiso   1.00
H890   H     0.55670   0.34733   0.52196   0.00000  Uiso   1.00
C891   C     0.53762   0.36908   0.60201   0.00000  Uiso   1.00
H892   H     0.56321   0.34160   0.61269   0.00000  Uiso   1.00
H893   H     0.48802   0.35090   0.60711   0.00000  Uiso   1.00
H894   H     0.54284   0.40425   0.62761   0.00000  Uiso   1.00
I895   I     0.57425   0.42999   0.87978   0.00000  Uiso   1.00
I896   I     0.61589   0.35687   0.76699   0.00000  Uiso   1.00
C897   C     0.84827   0.59963   0.75177   0.00000  Uiso   1.00
C898   C     0.80756   0.50077   0.98860   0.00000  Uiso   1.00
C899   C     0.82692   0.49828   0.93545   0.00000  Uiso   1.00
C900   C     0.85278   0.52069   0.51974   0.00000  Uiso   1.00
C901   C     0.91590   0.53382   0.99703   0.00000  Uiso   1.00
C902   C     0.93303   0.52425   0.94514   0.00000  Uiso   1.00
C903   C     0.88904   0.49925   0.91732   0.00000  Uiso   1.00
C904   C     0.83843   0.52522   0.57279   0.00000  Uiso   1.00
C905   C     0.94517   0.54088   0.57940   0.00000  Uiso   1.00
C906   C     0.78338   0.48601   0.90248   0.00000  Uiso   1.00
C907   C     0.85809   0.65513   0.75366   0.00000  Uiso   1.00
C908   C     0.80068   0.49424   0.84683   0.00000  Uiso   1.00
C909   C     0.81244   0.34463   0.74776   0.00000  Uiso   1.00
C910   C     0.81884   0.40021   0.74862   0.00000  Uiso   1.00
C911   C     0.86624   0.50932   0.65443   0.00000  Uiso   1.00
C912   C     0.96136   0.54967   0.52758   0.00000  Uiso   1.00
C913   C     0.88387   0.52420   0.60134   0.00000  Uiso   1.00
C914   C     0.72346   0.46321   0.92276   0.00000  Uiso   1.00
C915   C     0.70414   0.45583   0.97463   0.00000  Uiso   1.00
C916   C     0.74615   0.47666   0.50807   0.00000  Uiso   1.00
Cu917  Cu    0.77377   0.49439   0.74435   0.00000  Uiso   1.00
Cu918  Cu    0.89290   0.50561   0.75564   0.00000  Uiso   1.00
H919   H     0.98007   0.54546   0.60233   0.00000  Uiso   1.00
H920   H     0.76828   0.65465   0.74168   0.00000  Uiso   1.00
H921   H     0.66753   0.53451   0.79390   0.00000  Uiso   1.00
H922   H     0.98068   0.52715   0.92821   0.00000  Uiso   1.00
H923   H     0.69219   0.44842   0.89717   0.00000  Uiso   1.00
H924   H     0.73223   0.47265   0.54843   0.00000  Uiso   1.00
N925   N     0.98241   0.51407   0.76416   0.00000  Uiso   1.00
N926   N     0.68426   0.48593   0.73584   0.00000  Uiso   1.00
O927   O     0.79464   0.57141   0.74633   0.00000  Uiso   1.00
O928   O     0.89524   0.58089   0.75586   0.00000  Uiso   1.00
O929   O     0.75848   0.49293   0.81839   0.00000  Uiso   1.00
O930   O     0.85908   0.50241   0.82793   0.00000  Uiso   1.00
O931   O     0.77142   0.41911   0.74413   0.00000  Uiso   1.00
O932   O     0.87203   0.42859   0.75367   0.00000  Uiso   1.00
O933   O     0.80758   0.49759   0.67207   0.00000  Uiso   1.00
O934   O     0.90819   0.50707   0.68160   0.00000  Uiso   1.00
I935   I     0.99973   0.44555   0.66852   0.00000  Uiso   1.00
O936   O     0.68942   0.56161   0.50594   0.00000  Uiso   1.00
C937   C     0.71151   0.61574   0.50610   0.00000  Uiso   1.00
H938   H     0.75861   0.62321   0.51507   0.00000  Uiso   1.00
H939   H     0.68470   0.63779   0.53594   0.00000  Uiso   1.00
C940   C     0.71488   0.63554   0.95341   0.00000  Uiso   1.00
H941   H     0.72217   0.60465   0.92365   0.00000  Uiso   1.00
H942   H     0.67089   0.64665   0.95150   0.00000  Uiso   1.00
C943   C     0.76807   0.34840   0.94175   0.00000  Uiso   1.00
H944   H     0.76677   0.37816   0.97327   0.00000  Uiso   1.00
H945   H     0.76531   0.36538   0.90606   0.00000  Uiso   1.00
H946   H     0.81239   0.33564   0.93681   0.00000  Uiso   1.00
I947   I     0.77172   0.56878   0.60604   0.00000  Uiso   1.00
O948   O     0.97626   0.43085   0.98888   0.00000  Uiso   1.00
C949   C     0.96096   0.41304   0.53853   0.00000  Uiso   1.00
H950   H     0.96437   0.44629   0.56635   0.00000  Uiso   1.00
H951   H     0.99128   0.38710   0.54431   0.00000  Uiso   1.00
C952   C     0.89417   0.38326   0.54680   0.00000  Uiso   1.00
H953   H     0.86472   0.40764   0.53623   0.00000  Uiso   1.00
H954   H     0.89004   0.34733   0.52196   0.00000  Uiso   1.00
C955   C     0.87095   0.36908   0.60201   0.00000  Uiso   1.00
H956   H     0.89654   0.34160   0.61269   0.00000  Uiso   1.00
H957   H     0.82135   0.35090   0.60711   0.00000  Uiso   1.00
H958   H     0.87618   0.40425   0.62761   0.00000  Uiso   1.00
I959   I     0.90758   0.42999   0.87978   0.00000  Uiso   1.00
I960   I     0.94922   0.35687   0.76699   0.00000  Uiso   1.00
C961   C     0.18161   0.93296   0.75177   0.00000  Uiso   1.00
C962   C     0.14089   0.83411   0.98860   0.00000  Uiso   1.00
C963   C     0.16025   0.83161   0.93545   0.00000  Uiso   1.00
C964   C     0.18611   0.85402   0.51974   0.00000  Uiso   1.00
C965   C     0.24924   0.86716   0.99703   0.00000  Uiso   1.00
C966   C     0.26637   0.85758   0.94514   0.00000  Uiso   1.00
C967   C     0.22237   0.83258   0.91732   0.00000  Uiso   1.00
C968   C     0.17176   0.85855   0.57279   0.00000  Uiso   1.00
C969   C     0.27850   0.87422   0.57940   0.00000  Uiso   1.00
C970   C     0.11672   0.81934   0.90248   0.00000  Uiso   1.00
C971   C     0.19142   0.98846   0.75366   0.00000  Uiso   1.00
C972   C     0.13402   0.82757   0.84683   0.00000  Uiso   1.00
C973   C     0.14578   0.67796   0.74776   0.00000  Uiso   1.00
C974   C     0.15218   0.73354   0.74862   0.00000  Uiso   1.00
C975   C     0.19957   0.84265   0.65443   0.00000  Uiso   1.00
C976   C     0.29469   0.88300   0.52758   0.00000  Uiso   1.00
C977   C     0.21721   0.85753   0.60134   0.00000  Uiso   1.00
C978   C     0.05679   0.79654   0.92276   0.00000  Uiso   1.00
C979   C     0.03747   0.78916   0.97463   0.00000  Uiso   1.00
C980   C     0.07949   0.81000   0.50807   0.00000  Uiso   1.00
Cu981  Cu    0.10710   0.82772   0.74435   0.00000  Uiso   1.00
Cu982  Cu    0.22623   0.83895   0.75564   0.00000  Uiso   1.00
H983   H     0.31341   0.87879   0.60233   0.00000  Uiso   1.00
H984   H     0.10161   0.98799   0.74168   0.00000  Uiso   1.00
H985   H     0.00086   0.86784   0.79390   0.00000  Uiso   1.00
H986   H     0.31401   0.86049   0.92821   0.00000  Uiso   1.00
H987   H     0.02552   0.78176   0.89717   0.00000  Uiso   1.00
H988   H     0.06556   0.80599   0.54843   0.00000  Uiso   1.00
N989   N     0.31574   0.84741   0.76416   0.00000  Uiso   1.00
N990   N     0.01759   0.81926   0.73584   0.00000  Uiso   1.00
O991   O     0.12797   0.90474   0.74633   0.00000  Uiso   1.00
O992   O     0.22858   0.91422   0.75586   0.00000  Uiso   1.00
O993   O     0.09181   0.82627   0.81839   0.00000  Uiso   1.00
O994   O     0.19242   0.83575   0.82793   0.00000  Uiso   1.00
O995   O     0.10476   0.75245   0.74413   0.00000  Uiso   1.00
O996   O     0.20536   0.76193   0.75367   0.00000  Uiso   1.00
O997   O     0.14092   0.83092   0.67207   0.00000  Uiso   1.00
O998   O     0.24152   0.84040   0.68160   0.00000  Uiso   1.00
I999   I     0.33306   0.77888   0.66852   0.00000  Uiso   1.00
O1000  O     0.02276   0.89494   0.50594   0.00000  Uiso   1.00
C1001  C     0.04485   0.94907   0.50610   0.00000  Uiso   1.00
H1002  H     0.09194   0.95654   0.51507   0.00000  Uiso   1.00
H1003  H     0.01803   0.97112   0.53594   0.00000  Uiso   1.00
C1004  C     0.04822   0.96888   0.95341   0.00000  Uiso   1.00
H1005  H     0.05550   0.93798   0.92365   0.00000  Uiso   1.00
H1006  H     0.00423   0.97999   0.95150   0.00000  Uiso   1.00
C1007  C     0.10140   0.68173   0.94175   0.00000  Uiso   1.00
H1008  H     0.10011   0.71150   0.97327   0.00000  Uiso   1.00
H1009  H     0.09865   0.69871   0.90606   0.00000  Uiso   1.00
H1010  H     0.14572   0.66897   0.93681   0.00000  Uiso   1.00
I1011  I     0.10505   0.90211   0.60604   0.00000  Uiso   1.00
O1012  O     0.30959   0.76418   0.98888   0.00000  Uiso   1.00
C1013  C     0.29429   0.74637   0.53853   0.00000  Uiso   1.00
H1014  H     0.29770   0.77962   0.56635   0.00000  Uiso   1.00
H1015  H     0.32461   0.72043   0.54431   0.00000  Uiso   1.00
C1016  C     0.22750   0.71659   0.54680   0.00000  Uiso   1.00
H1017  H     0.19805   0.74097   0.53623   0.00000  Uiso   1.00
H1018  H     0.22337   0.68067   0.52196   0.00000  Uiso   1.00
C1019  C     0.20429   0.70242   0.60201   0.00000  Uiso   1.00
H1020  H     0.22987   0.67493   0.61269   0.00000  Uiso   1.00
H1021  H     0.15468   0.68424   0.60711   0.00000  Uiso   1.00
H1022  H     0.20951   0.73758   0.62761   0.00000  Uiso   1.00
I1023  I     0.24092   0.76333   0.87978   0.00000  Uiso   1.00
I1024  I     0.28255   0.69021   0.76699   0.00000  Uiso   1.00
C1025  C     0.51494   0.93296   0.75177   0.00000  Uiso   1.00
C1026  C     0.47422   0.83411   0.98860   0.00000  Uiso   1.00
C1027  C     0.49358   0.83161   0.93545   0.00000  Uiso   1.00
C1028  C     0.51945   0.85402   0.51974   0.00000  Uiso   1.00
C1029  C     0.58257   0.86716   0.99703   0.00000  Uiso   1.00
C1030  C     0.59970   0.85758   0.94514   0.00000  Uiso   1.00
C1031  C     0.55570   0.83258   0.91732   0.00000  Uiso   1.00
C1032  C     0.50510   0.85855   0.57279   0.00000  Uiso   1.00
C1033  C     0.61183   0.87422   0.57940   0.00000  Uiso   1.00
C1034  C     0.45005   0.81934   0.90248   0.00000  Uiso   1.00
C1035  C     0.52475   0.98846   0.75366   0.00000  Uiso   1.00
C1036  C     0.46735   0.82757   0.84683   0.00000  Uiso   1.00
C1037  C     0.47911   0.67796   0.74776   0.00000  Uiso   1.00
C1038  C     0.48551   0.73354   0.74862   0.00000  Uiso   1.00
C1039  C     0.53290   0.84265   0.65443   0.00000  Uiso   1.00
C1040  C     0.62802   0.88300   0.52758   0.00000  Uiso   1.00
C1041  C     0.55054   0.85753   0.60134   0.00000  Uiso   1.00
C1042  C     0.39012   0.79654   0.92276   0.00000  Uiso   1.00
C1043  C     0.37080   0.78916   0.97463   0.00000  Uiso   1.00
C1044  C     0.41282   0.81000   0.50807   0.00000  Uiso   1.00
Cu1045 Cu    0.44043   0.82772   0.74435   0.00000  Uiso   1.00
Cu1046 Cu    0.55957   0.83895   0.75564   0.00000  Uiso   1.00
H1047  H     0.64674   0.87879   0.60233   0.00000  Uiso   1.00
H1048  H     0.43494   0.98799   0.74168   0.00000  Uiso   1.00
H1049  H     0.33420   0.86784   0.79390   0.00000  Uiso   1.00
H1050  H     0.64735   0.86049   0.92821   0.00000  Uiso   1.00
H1051  H     0.35886   0.78176   0.89717   0.00000  Uiso   1.00
H1052  H     0.39889   0.80599   0.54843   0.00000  Uiso   1.00
N1053  N     0.64908   0.84741   0.76416   0.00000  Uiso   1.00
N1054  N     0.35092   0.81926   0.73584   0.00000  Uiso   1.00
O1055  O     0.46131   0.90474   0.74633   0.00000  Uiso   1.00
O1056  O     0.56191   0.91422   0.75586   0.00000  Uiso   1.00
O1057  O     0.42515   0.82627   0.81839   0.00000  Uiso   1.00
O1058  O     0.52575   0.83575   0.82793   0.00000  Uiso   1.00
O1059  O     0.43809   0.75245   0.74413   0.00000  Uiso   1.00
O1060  O     0.53869   0.76193   0.75367   0.00000  Uiso   1.00
O1061  O     0.47425   0.83092   0.67207   0.00000  Uiso   1.00
O1062  O     0.57485   0.84040   0.68160   0.00000  Uiso   1.00
I1063  I     0.66639   0.77888   0.66852   0.00000  Uiso   1.00
O1064  O     0.35609   0.89494   0.50594   0.00000  Uiso   1.00
C1065  C     0.37818   0.94907   0.50610   0.00000  Uiso   1.00
H1066  H     0.42527   0.95654   0.51507   0.00000  Uiso   1.00
H1067  H     0.35137   0.97112   0.53594   0.00000  Uiso   1.00
C1068  C     0.38155   0.96888   0.95341   0.00000  Uiso   1.00
H1069  H     0.38883   0.93798   0.92365   0.00000  Uiso   1.00
H1070  H     0.33756   0.97999   0.95150   0.00000  Uiso   1.00
C1071  C     0.43474   0.68173   0.94175   0.00000  Uiso   1.00
H1072  H     0.43344   0.71150   0.97327   0.00000  Uiso   1.00
H1073  H     0.43198   0.69871   0.90606   0.00000  Uiso   1.00
H1074  H     0.47906   0.66897   0.93681   0.00000  Uiso   1.00
I1075  I     0.43838   0.90211   0.60604   0.00000  Uiso   1.00
O1076  O     0.64293   0.76418   0.98888   0.00000  Uiso   1.00
C1077  C     0.62762   0.74637   0.53853   0.00000  Uiso   1.00
H1078  H     0.63104   0.77962   0.56635   0.00000  Uiso   1.00
H1079  H     0.65794   0.72043   0.54431   0.00000  Uiso   1.00
C1080  C     0.56083   0.71659   0.54680   0.00000  Uiso   1.00
H1081  H     0.53138   0.74097   0.53623   0.00000  Uiso   1.00
H1082  H     0.55670   0.68067   0.52196   0.00000  Uiso   1.00
C1083  C     0.53762   0.70242   0.60201   0.00000  Uiso   1.00
H1084  H     0.56321   0.67493   0.61269   0.00000  Uiso   1.00
H1085  H     0.48802   0.68424   0.60711   0.00000  Uiso   1.00
H1086  H     0.54284   0.73758   0.62761   0.00000  Uiso   1.00
I1087  I     0.57425   0.76333   0.87978   0.00000  Uiso   1.00
I1088  I     0.61589   0.69021   0.76699   0.00000  Uiso   1.00
C1089  C     0.84827   0.93296   0.75177   0.00000  Uiso   1.00
C1090  C     0.80756   0.83411   0.98860   0.00000  Uiso   1.00
C1091  C     0.82692   0.83161   0.93545   0.00000  Uiso   1.00
C1092  C     0.85278   0.85402   0.51974   0.00000  Uiso   1.00
C1093  C     0.91590   0.86716   0.99703   0.00000  Uiso   1.00
C1094  C     0.93303   0.85758   0.94514   0.00000  Uiso   1.00
C1095  C     0.88904   0.83258   0.91732   0.00000  Uiso   1.00
C1096  C     0.83843   0.85855   0.57279   0.00000  Uiso   1.00
C1097  C     0.94517   0.87422   0.57940   0.00000  Uiso   1.00
C1098  C     0.78338   0.81934   0.90248   0.00000  Uiso   1.00
C1099  C     0.85809   0.98846   0.75366   0.00000  Uiso   1.00
C1100  C     0.80068   0.82757   0.84683   0.00000  Uiso   1.00
C1101  C     0.81244   0.67796   0.74776   0.00000  Uiso   1.00
C1102  C     0.81884   0.73354   0.74862   0.00000  Uiso   1.00
C1103  C     0.86624   0.84265   0.65443   0.00000  Uiso   1.00
C1104  C     0.96136   0.88300   0.52758   0.00000  Uiso   1.00
C1105  C     0.88387   0.85753   0.60134   0.00000  Uiso   1.00
C1106  C     0.72346   0.79654   0.92276   0.00000  Uiso   1.00
C1107  C     0.70414   0.78916   0.97463   0.00000  Uiso   1.00
C1108  C     0.74615   0.81000   0.50807   0.00000  Uiso   1.00
Cu1109 Cu    0.77377   0.82772   0.74435   0.00000  Uiso   1.00
Cu1110 Cu    0.89290   0.83895   0.75564   0.00000  Uiso   1.00
H1111  H     0.98007   0.87879   0.60233   0.00000  Uiso   1.00
H1112  H     0.76828   0.98799   0.74168   0.00000  Uiso   1.00
H1113  H     0.66753   0.86784   0.79390   0.00000  Uiso   1.00
H1114  H     0.98068   0.86049   0.92821   0.00000  Uiso   1.00
H1115  H     0.69219   0.78176   0.89717   0.00000  Uiso   1.00
H1116  H     0.73223   0.80599   0.54843   0.00000  Uiso   1.00
N1117  N     0.98241   0.84741   0.76416   0.00000  Uiso   1.00
N1118  N     0.68426   0.81926   0.73584   0.00000  Uiso   1.00
O1119  O     0.79464   0.90474   0.74633   0.00000  Uiso   1.00
O1120  O     0.89524   0.91422   0.75586   0.00000  Uiso   1.00
O1121  O     0.75848   0.82627   0.81839   0.00000  Uiso   1.00
O1122  O     0.85908   0.83575   0.82793   0.00000  Uiso   1.00
O1123  O     0.77142   0.75245   0.74413   0.00000  Uiso   1.00
O1124  O     0.87203   0.76193   0.75367   0.00000  Uiso   1.00
O1125  O     0.80758   0.83092   0.67207   0.00000  Uiso   1.00
O1126  O     0.90819   0.84040   0.68160   0.00000  Uiso   1.00
I1127  I     0.99973   0.77888   0.66852   0.00000  Uiso   1.00
O1128  O     0.68942   0.89494   0.50594   0.00000  Uiso   1.00
C1129  C     0.71151   0.94907   0.50610   0.00000  Uiso   1.00
H1130  H     0.75861   0.95654   0.51507   0.00000  Uiso   1.00
H1131  H     0.68470   0.97112   0.53594   0.00000  Uiso   1.00
C1132  C     0.71488   0.96888   0.95341   0.00000  Uiso   1.00
H1133  H     0.72217   0.93798   0.92365   0.00000  Uiso   1.00
H1134  H     0.67089   0.97999   0.95150   0.00000  Uiso   1.00
C1135  C     0.76807   0.68173   0.94175   0.00000  Uiso   1.00
H1136  H     0.76677   0.71150   0.97327   0.00000  Uiso   1.00
H1137  H     0.76531   0.69871   0.90606   0.00000  Uiso   1.00
H1138  H     0.81239   0.66897   0.93681   0.00000  Uiso   1.00
I1139  I     0.77172   0.90211   0.60604   0.00000  Uiso   1.00
O1140  O     0.97626   0.76418   0.98888   0.00000  Uiso   1.00
C1141  C     0.96096   0.74637   0.53853   0.00000  Uiso   1.00
H1142  H     0.96437   0.77962   0.56635   0.00000  Uiso   1.00
H1143  H     0.99128   0.72043   0.54431   0.00000  Uiso   1.00
C1144  C     0.89417   0.71659   0.54680   0.00000  Uiso   1.00
H1145  H     0.86472   0.74097   0.53623   0.00000  Uiso   1.00
H1146  H     0.89004   0.68067   0.52196   0.00000  Uiso   1.00
C1147  C     0.87095   0.70242   0.60201   0.00000  Uiso   1.00
H1148  H     0.89654   0.67493   0.61269   0.00000  Uiso   1.00
H1149  H     0.82135   0.68424   0.60711   0.00000  Uiso   1.00
H1150  H     0.87618   0.73758   0.62761   0.00000  Uiso   1.00
I1151  I     0.90758   0.76333   0.87978   0.00000  Uiso   1.00
I1152  I     0.94922   0.69021   0.76699   0.00000  Uiso   1.00
loop_
_geom_bond_atom_site_label_1
_geom_bond_atom_site_label_2
_geom_bond_distance
_geom_bond_site_symmetry_2
_ccdc_geom_bond_type
C1     C11     1.436   .     S
C1     O31     1.306   .     A
C1     O32     1.296   .     A
C2     C3      1.412   .     A
C2     C580    1.428   .     S
C2     C596    1.416   .     S
C3     C10     1.416   .     A
C3     C7      1.395   .     A
C4     C8      1.400   .     A
C4     C578    1.428   1_554 S
C4     C581    1.423   1_554 S
C5     C6      1.391   .     A
C5     C580    1.423   .     S
C5     C592    1.408   .     S
C6     H26     1.078   .     S
C6     C7      1.378   .     A
C7     I63     2.104   .     S
C8     C17     1.402   .     A
C8     I51     2.122   .     S
C9     C17     1.391   .     A
C9     C16     1.396   .     A
C9     H23     1.072   .     S
C10    C12     1.493   .     S
C10    C18     1.385   .     A
C11    C205    1.348   .     S
C11    I256    2.153   .     S
C12    O34     1.301   .     A
C12    O33     1.326   .     A
C13    C14     1.446   .     S
C13    C395    1.348   1_545 S
C13    H408    1.087   1_545 S
C14    O36     1.297   .     A
C14    O35     1.311   .     A
C15    O38     1.318   .     A
C15    C17     1.468   .     S
C15    O37     1.301   .     A
C16    C581    1.408   1_554 S
C16    O104    1.380   .     S
C18    C19     1.395   .     A
C18    H27     1.070   .     S
C19    C596    1.424   .     S
C19    O180    1.394   1_455 S
C20    H28     1.077   .     S
C20    C578    1.416   1_554 S
C20    C595    1.424   1_554 S
Cu21   O35     1.983   .     S
Cu21   O31     1.988   .     S
Cu21   N30     2.046   .     S
Cu21   Cu22    2.723   .     S
Cu21   O33     1.954   .     S
Cu21   O37     1.948   .     S
Cu22   N29     2.046   .     S
Cu22   O32     1.983   .     S
Cu22   O34     1.948   .     S
Cu22   O38     1.954   .     S
Cu22   O36     1.988   .     S
H24    C205    1.087   .     S
H25    N157    1.029   1_455 S
N29    H89     1.029   .     S
N29    N94     1.307   .     S
N30    N157    1.307   1_455 S
N30    I167    2.082   1_455 S
I39    N94     2.082   .     S
O40    C41     1.410   .     S
O40    C144    1.380   1_455 S
C41    H43     1.116   .     S
C41    H42     1.110   .     S
C41    C620    1.533   1_554 S
C44    H45     1.111   .     S
C44    H46     1.112   .     S
C44    C617    1.533   .     S
C44    C239    1.522   .     S
C47    H50     1.111   .     S
C47    H49     1.110   .     S
C47    H48     1.108   .     S
C47    C428    1.522   1_545 S
O52    C83     1.394   .     S
O52    C629    1.406   .     S
C53    H54     1.105   .     S
C53    H55     1.112   .     S
C53    C56     1.529   .     S
C53    O628    1.406   1_554 S
C56    C59     1.525   .     S
C56    H57     1.112   .     S
C56    H58     1.112   .     S
C59    H60     1.111   .     S
C59    H61     1.108   .     S
C59    H62     1.108   .     S
I64    C395    2.153   1_545 S
C65    C75     1.436   .     S
C65    O95     1.306   .     A
C65    O96     1.296   .     A
C66    C67     1.412   .     A
C66    C644    1.428   .     S
C66    C660    1.416   .     S
C67    C74     1.416   .     A
C67    C71     1.395   .     A
C68    C72     1.400   .     A
C68    C642    1.428   1_554 S
C68    C645    1.423   1_554 S
C69    C70     1.391   .     A
C69    C644    1.423   .     S
C69    C656    1.408   .     S
C70    H90     1.078   .     S
C70    C71     1.378   .     A
C71    I127    2.104   .     S
C72    C81     1.402   .     A
C72    I115    2.122   .     S
C73    C81     1.391   .     A
C73    C80     1.396   .     A
C73    H87     1.072   .     S
C74    C76     1.493   .     S
C74    C82     1.385   .     A
C75    C269    1.348   .     S
C75    I320    2.153   .     S
C76    O98     1.301   .     A
C76    O97     1.326   .     A
C77    C78     1.446   .     S
C77    C459    1.348   1_545 S
C77    H472    1.087   1_545 S
C78    O100    1.297   .     A
C78    O99     1.311   .     A
C79    O102    1.318   .     A
C79    C81     1.468   .     S
C79    O101    1.301   .     A
C80    C645    1.408   1_554 S
C80    O168    1.380   .     S
C82    C83     1.395   .     A
C82    H91     1.070   .     S
C83    C660    1.424   .     S
C84    H92     1.077   .     S
C84    C642    1.416   1_554 S
C84    C659    1.424   1_554 S
Cu85   O99     1.983   .     S
Cu85   O95     1.988   .     S
Cu85   N94     2.046   .     S
Cu85   Cu86    2.723   .     S
Cu85   O97     1.954   .     S
Cu85   O101    1.948   .     S
Cu86   N93     2.046   .     S
Cu86   O96     1.983   .     S
Cu86   O98     1.948   .     S
Cu86   O102    1.954   .     S
Cu86   O100    1.988   .     S
H88    C269    1.087   .     S
N93    H153    1.029   .     S
N93    N158    1.307   .     S
I103   N158    2.082   .     S
O104   C105    1.410   .     S
C105   H107    1.116   .     S
C105   H106    1.110   .     S
C105   C684    1.533   1_554 S
C108   H109    1.111   .     S
C108   H110    1.112   .     S
C108   C681    1.533   .     S
C108   C303    1.522   .     S
C111   H114    1.111   .     S
C111   H113    1.110   .     S
C111   H112    1.108   .     S
C111   C492    1.522   1_545 S
O116   C147    1.394   .     S
O116   C693    1.406   .     S
C117   H118    1.105   .     S
C117   H119    1.112   .     S
C117   C120    1.529   .     S
C117   O692    1.406   1_554 S
C120   C123    1.525   .     S
C120   H121    1.112   .     S
C120   H122    1.112   .     S
C123   H124    1.111   .     S
C123   H125    1.108   .     S
C123   H126    1.108   .     S
I128   C459    2.153   1_545 S
C129   C139    1.436   .     S
C129   O159    1.306   .     A
C129   O160    1.296   .     A
C130   C131    1.412   .     A
C130   C708    1.428   .     S
C130   C724    1.416   .     S
C131   C138    1.416   .     A
C131   C135    1.395   .     A
C132   C136    1.400   .     A
C132   C706    1.428   1_554 S
C132   C709    1.423   1_554 S
C133   C134    1.391   .     A
C133   C708    1.423   .     S
C133   C720    1.408   .     S
C134   H154    1.078   .     S
C134   C135    1.378   .     A
C135   I191    2.104   .     S
C136   C145    1.402   .     A
C136   I179    2.122   .     S
C137   C145    1.391   .     A
C137   C144    1.396   .     A
C137   H151    1.072   .     S
C138   C140    1.493   .     S
C138   C146    1.385   .     A
C139   C333    1.348   .     S
C139   I384    2.153   .     S
C140   O162    1.301   .     A
C140   O161    1.326   .     A
C141   C142    1.446   .     S
C141   C523    1.348   1_545 S
C141   H536    1.087   1_545 S
C142   O164    1.297   .     A
C142   O163    1.311   .     A
C143   O166    1.318   .     A
C143   C145    1.468   .     S
C143   O165    1.301   .     A
C144   C709    1.408   1_554 S
C144   O40     1.380   1_655 S
C146   C147    1.395   .     A
C146   H155    1.070   .     S
C147   C724    1.424   .     S
C148   H156    1.077   .     S
C148   C706    1.416   1_554 S
C148   C723    1.424   1_554 S
Cu149  O163    1.983   .     S
Cu149  O159    1.988   .     S
Cu149  N158    2.046   .     S
Cu149  Cu150   2.723   .     S
Cu149  O161    1.954   .     S
Cu149  O165    1.948   .     S
Cu150  N157    2.046   .     S
Cu150  O160    1.983   .     S
Cu150  O162    1.948   .     S
Cu150  O166    1.954   .     S
Cu150  O164    1.988   .     S
H152   C333    1.087   .     S
N157   H25     1.029   1_655 S
N157   N30     1.307   1_655 S
I167   N30     2.082   1_655 S
O168   C169    1.410   .     S
C169   H171    1.116   .     S
C169   H170    1.110   .     S
C169   C748    1.533   1_554 S
C172   H173    1.111   .     S
C172   H174    1.112   .     S
C172   C745    1.533   .     S
C172   C367    1.522   .     S
C175   H178    1.111   .     S
C175   H177    1.110   .     S
C175   H176    1.108   .     S
C175   C556    1.522   1_545 S
O180   C19     1.394   1_655 S
O180   C757    1.406   .     S
C181   H182    1.105   .     S
C181   H183    1.112   .     S
C181   C184    1.529   .     S
C181   O756    1.406   1_554 S
C184   C187    1.525   .     S
C184   H185    1.112   .     S
C184   H186    1.112   .     S
C187   H188    1.111   .     S
C187   H189    1.108   .     S
C187   H190    1.108   .     S
I192   C523    2.153   1_545 S
C193   C203    1.436   .     S
C193   O223    1.306   .     A
C193   O224    1.296   .     A
C194   C195    1.412   .     A
C194   C772    1.428   .     S
C194   C788    1.416   .     S
C195   C202    1.416   .     A
C195   C199    1.395   .     A
C196   C200    1.400   .     A
C196   C770    1.428   1_554 S
C196   C773    1.423   1_554 S
C197   C198    1.391   .     A
C197   C772    1.423   .     S
C197   C784    1.408   .     S
C198   H218    1.078   .     S
C198   C199    1.378   .     A
C199   I255    2.104   .     S
C200   C209    1.402   .     A
C200   I243    2.122   .     S
C201   C209    1.391   .     A
C201   C208    1.396   .     A
C201   H215    1.072   .     S
C202   C204    1.493   .     S
C202   C210    1.385   .     A
C203   C397    1.348   .     S
C203   I448    2.153   .     S
C204   O226    1.301   .     A
C204   O225    1.326   .     A
C205   C206    1.446   .     S
C206   O228    1.297   .     A
C206   O227    1.311   .     A
C207   O230    1.318   .     A
C207   C209    1.468   .     S
C207   O229    1.301   .     A
C208   C773    1.408   1_554 S
C208   O296    1.380   .     S
C210   C211    1.395   .     A
C210   H219    1.070   .     S
C211   C788    1.424   .     S
C211   O372    1.394   1_455 S
C212   H220    1.077   .     S
C212   C770    1.416   1_554 S
C212   C787    1.424   1_554 S
Cu213  O227    1.983   .     S
Cu213  O223    1.988   .     S
Cu213  N222    2.046   .     S
Cu213  Cu214   2.723   .     S
Cu213  O225    1.954   .     S
Cu213  O229    1.948   .     S
Cu214  N221    2.046   .     S
Cu214  O224    1.983   .     S
Cu214  O226    1.948   .     S
Cu214  O230    1.954   .     S
Cu214  O228    1.988   .     S
H216   C397    1.087   .     S
H217   N349    1.029   1_455 S
N221   H281    1.029   .     S
N221   N286    1.307   .     S
N222   N349    1.307   1_455 S
N222   I359    2.082   1_455 S
I231   N286    2.082   .     S
O232   C233    1.410   .     S
O232   C336    1.380   1_455 S
C233   H235    1.116   .     S
C233   H234    1.110   .     S
C233   C812    1.533   1_554 S
C236   H237    1.111   .     S
C236   H238    1.112   .     S
C236   C809    1.533   .     S
C236   C431    1.522   .     S
C239   H242    1.111   .     S
C239   H241    1.110   .     S
C239   H240    1.108   .     S
O244   C275    1.394   .     S
O244   C821    1.406   .     S
C245   H246    1.105   .     S
C245   H247    1.112   .     S
C245   C248    1.529   .     S
C245   O820    1.406   1_554 S
C248   C251    1.525   .     S
C248   H249    1.112   .     S
C248   H250    1.112   .     S
C251   H252    1.111   .     S
C251   H253    1.108   .     S
C251   H254    1.108   .     S
C257   C267    1.436   .     S
C257   O287    1.306   .     A
C257   O288    1.296   .     A
C258   C259    1.412   .     A
C258   C836    1.428   .     S
C258   C852    1.416   .     S
C259   C266    1.416   .     A
C259   C263    1.395   .     A
C260   C264    1.400   .     A
C260   C834    1.428   1_554 S
C260   C837    1.423   1_554 S
C261   C262    1.391   .     A
C261   C836    1.423   .     S
C261   C848    1.408   .     S
C262   H282    1.078   .     S
C262   C263    1.378   .     A
C263   I319    2.104   .     S
C264   C273    1.402   .     A
C264   I307    2.122   .     S
C265   C273    1.391   .     A
C265   C272    1.396   .     A
C265   H279    1.072   .     S
C266   C268    1.493   .     S
C266   C274    1.385   .     A
C267   C461    1.348   .     S
C267   I512    2.153   .     S
C268   O290    1.301   .     A
C268   O289    1.326   .     A
C269   C270    1.446   .     S
C270   O292    1.297   .     A
C270   O291    1.311   .     A
C271   O294    1.318   .     A
C271   C273    1.468   .     S
C271   O293    1.301   .     A
C272   C837    1.408   1_554 S
C272   O360    1.380   .     S
C274   C275    1.395   .     A
C274   H283    1.070   .     S
C275   C852    1.424   .     S
C276   H284    1.077   .     S
C276   C834    1.416   1_554 S
C276   C851    1.424   1_554 S
Cu277  O291    1.983   .     S
Cu277  O287    1.988   .     S
Cu277  N286    2.046   .     S
Cu277  Cu278   2.723   .     S
Cu277  O289    1.954   .     S
Cu277  O293    1.948   .     S
Cu278  N285    2.046   .     S
Cu278  O288    1.983   .     S
Cu278  O290    1.948   .     S
Cu278  O294    1.954   .     S
Cu278  O292    1.988   .     S
H280   C461    1.087   .     S
N285   H345    1.029   .     S
N285   N350    1.307   .     S
I295   N350    2.082   .     S
O296   C297    1.410   .     S
C297   H299    1.116   .     S
C297   H298    1.110   .     S
C297   C876    1.533   1_554 S
C300   H301    1.111   .     S
C300   H302    1.112   .     S
C300   C873    1.533   .     S
C300   C495    1.522   .     S
C303   H306    1.111   .     S
C303   H305    1.110   .     S
C303   H304    1.108   .     S
O308   C339    1.394   .     S
O308   C885    1.406   .     S
C309   H310    1.105   .     S
C309   H311    1.112   .     S
C309   C312    1.529   .     S
C309   O884    1.406   1_554 S
C312   C315    1.525   .     S
C312   H313    1.112   .     S
C312   H314    1.112   .     S
C315   H316    1.111   .     S
C315   H317    1.108   .     S
C315   H318    1.108   .     S
C321   C331    1.436   .     S
C321   O351    1.306   .     A
C321   O352    1.296   .     A
C322   C323    1.412   .     A
C322   C900    1.428   .     S
C322   C916    1.416   .     S
C323   C330    1.416   .     A
C323   C327    1.395   .     A
C324   C328    1.400   .     A
C324   C898    1.428   1_554 S
C324   C901    1.423   1_554 S
C325   C326    1.391   .     A
C325   C900    1.423   .     S
C325   C912    1.408   .     S
C326   H346    1.078   .     S
C326   C327    1.378   .     A
C327   I383    2.104   .     S
C328   C337    1.402   .     A
C328   I371    2.122   .     S
C329   C337    1.391   .     A
C329   C336    1.396   .     A
C329   H343    1.072   .     S
C330   C332    1.493   .     S
C330   C338    1.385   .     A
C331   C525    1.348   .     S
C331   I576    2.153   .     S
C332   O354    1.301   .     A
C332   O353    1.326   .     A
C333   C334    1.446   .     S
C334   O356    1.297   .     A
C334   O355    1.311   .     A
C335   O358    1.318   .     A
C335   C337    1.468   .     S
C335   O357    1.301   .     A
C336   C901    1.408   1_554 S
C336   O232    1.380   1_655 S
C338   C339    1.395   .     A
C338   H347    1.070   .     S
C339   C916    1.424   .     S
C340   H348    1.077   .     S
C340   C898    1.416   1_554 S
C340   C915    1.424   1_554 S
Cu341  O355    1.983   .     S
Cu341  O351    1.988   .     S
Cu341  N350    2.046   .     S
Cu341  Cu342   2.723   .     S
Cu341  O353    1.954   .     S
Cu341  O357    1.948   .     S
Cu342  N349    2.046   .     S
Cu342  O352    1.983   .     S
Cu342  O354    1.948   .     S
Cu342  O358    1.954   .     S
Cu342  O356    1.988   .     S
H344   C525    1.087   .     S
N349   H217    1.029   1_655 S
N349   N222    1.307   1_655 S
I359   N222    2.082   1_655 S
O360   C361    1.410   .     S
C361   H363    1.116   .     S
C361   H362    1.110   .     S
C361   C940    1.533   1_554 S
C364   H365    1.111   .     S
C364   H366    1.112   .     S
C364   C937    1.533   .     S
C364   C559    1.522   .     S
C367   H370    1.111   .     S
C367   H369    1.110   .     S
C367   H368    1.108   .     S
O372   C211    1.394   1_655 S
O372   C949    1.406   .     S
C373   H374    1.105   .     S
C373   H375    1.112   .     S
C373   C376    1.529   .     S
C373   O948    1.406   1_554 S
C376   C379    1.525   .     S
C376   H377    1.112   .     S
C376   H378    1.112   .     S
C379   H380    1.111   .     S
C379   H381    1.108   .     S
C379   H382    1.108   .     S
C385   C395    1.436   .     S
C385   O415    1.306   .     A
C385   O416    1.296   .     A
C386   C387    1.412   .     A
C386   C964    1.428   .     S
C386   C980    1.416   .     S
C387   C394    1.416   .     A
C387   C391    1.395   .     A
C388   C392    1.400   .     A
C388   C962    1.428   1_554 S
C388   C965    1.423   1_554 S
C389   C390    1.391   .     A
C389   C964    1.423   .     S
C389   C976    1.408   .     S
C390   H410    1.078   .     S
C390   C391    1.378   .     A
C391   I447    2.104   .     S
C392   C401    1.402   .     A
C392   I435    2.122   .     S
C393   C401    1.391   .     A
C393   C400    1.396   .     A
C393   H407    1.072   .     S
C394   C396    1.493   .     S
C394   C402    1.385   .     A
C395   C13     1.348   1_565 S
C395   I64     2.153   1_565 S
C396   O418    1.301   .     A
C396   O417    1.326   .     A
C397   C398    1.446   .     S
C398   O420    1.297   .     A
C398   O419    1.311   .     A
C399   O422    1.318   .     A
C399   C401    1.468   .     S
C399   O421    1.301   .     A
C400   C965    1.408   1_554 S
C400   O488    1.380   .     S
C402   C403    1.395   .     A
C402   H411    1.070   .     S
C403   C980    1.424   .     S
C403   O564    1.394   1_455 S
C404   H412    1.077   .     S
C404   C962    1.416   1_554 S
C404   C979    1.424   1_554 S
Cu405  O419    1.983   .     S
Cu405  O415    1.988   .     S
Cu405  N414    2.046   .     S
Cu405  Cu406   2.723   .     S
Cu405  O417    1.954   .     S
Cu405  O421    1.948   .     S
Cu406  N413    2.046   .     S
Cu406  O416    1.983   .     S
Cu406  O418    1.948   .     S
Cu406  O422    1.954   .     S
Cu406  O420    1.988   .     S
H408   C13     1.087   1_565 S
H409   N541    1.029   1_455 S
N413   H473    1.029   .     S
N413   N478    1.307   .     S
N414   N541    1.307   1_455 S
N414   I551    2.082   1_455 S
I423   N478    2.082   .     S
O424   C425    1.410   .     S
O424   C528    1.380   1_455 S
C425   H427    1.116   .     S
C425   H426    1.110   .     S
C425   C1004   1.533   1_554 S
C428   H429    1.111   .     S
C428   H430    1.112   .     S
C428   C1001   1.533   .     S
C428   C47     1.522   1_565 S
C431   H434    1.111   .     S
C431   H433    1.110   .     S
C431   H432    1.108   .     S
O436   C467    1.394   .     S
O436   C1013   1.406   .     S
C437   H438    1.105   .     S
C437   H439    1.112   .     S
C437   C440    1.529   .     S
C437   O1012   1.406   1_554 S
C440   C443    1.525   .     S
C440   H441    1.112   .     S
C440   H442    1.112   .     S
C443   H444    1.111   .     S
C443   H445    1.108   .     S
C443   H446    1.108   .     S
C449   C459    1.436   .     S
C449   O479    1.306   .     A
C449   O480    1.296   .     A
C450   C451    1.412   .     A
C450   C1028   1.428   .     S
C450   C1044   1.416   .     S
C451   C458    1.416   .     A
C451   C455    1.395   .     A
C452   C456    1.400   .     A
C452   C1026   1.428   1_554 S
C452   C1029   1.423   1_554 S
C453   C454    1.391   .     A
C453   C1028   1.423   .     S
C453   C1040   1.408   .     S
C454   H474    1.078   .     S
C454   C455    1.378   .     A
C455   I511    2.104   .     S
C456   C465    1.402   .     A
C456   I499    2.122   .     S
C457   C465    1.391   .     A
C457   C464    1.396   .     A
C457   H471    1.072   .     S
C458   C460    1.493   .     S
C458   C466    1.385   .     A
C459   C77     1.348   1_565 S
C459   I128    2.153   1_565 S
C460   O482    1.301   .     A
C460   O481    1.326   .     A
C461   C462    1.446   .     S
C462   O484    1.297   .     A
C462   O483    1.311   .     A
C463   O486    1.318   .     A
C463   C465    1.468   .     S
C463   O485    1.301   .     A
C464   C1029   1.408   1_554 S
C464   O552    1.380   .     S
C466   C467    1.395   .     A
C466   H475    1.070   .     S
C467   C1044   1.424   .     S
C468   H476    1.077   .     S
C468   C1026   1.416   1_554 S
C468   C1043   1.424   1_554 S
Cu469  O483    1.983   .     S
Cu469  O479    1.988   .     S
Cu469  N478    2.046   .     S
Cu469  Cu470   2.723   .     S
Cu469  O481    1.954   .     S
Cu469  O485    1.948   .     S
Cu470  N477    2.046   .     S
Cu470  O480    1.983   .     S
Cu470  O482    1.948   .     S
Cu470  O486    1.954   .     S
Cu470  O484    1.988   .     S
H472   C77     1.087   1_565 S
N477   H537    1.029   .     S
N477   N542    1.307   .     S
I487   N542    2.082   .     S
O488   C489    1.410   .     S
C489   H491    1.116   .     S
C489   H490    1.110   .     S
C489   C1068   1.533   1_554 S
C492   H493    1.111   .     S
C492   H494    1.112   .     S
C492   C1065   1.533   .     S
C492   C111    1.522   1_565 S
C495   H498    1.111   .     S
C495   H497    1.110   .     S
C495   H496    1.108   .     S
O500   C531    1.394   .     S
O500   C1077   1.406   .     S
C501   H502    1.105   .     S
C501   H503    1.112   .     S
C501   C504    1.529   .     S
C501   O1076   1.406   1_554 S
C504   C507    1.525   .     S
C504   H505    1.112   .     S
C504   H506    1.112   .     S
C507   H508    1.111   .     S
C507   H509    1.108   .     S
C507   H510    1.108   .     S
C513   C523    1.436   .     S
C513   O543    1.306   .     A
C513   O544    1.296   .     A
C514   C515    1.412   .     A
C514   C1092   1.428   .     S
C514   C1108   1.416   .     S
C515   C522    1.416   .     A
C515   C519    1.395   .     A
C516   C520    1.400   .     A
C516   C1090   1.428   1_554 S
C516   C1093   1.423   1_554 S
C517   C518    1.391   .     A
C517   C1092   1.423   .     S
C517   C1104   1.408   .     S
C518   H538    1.078   .     S
C518   C519    1.378   .     A
C519   I575    2.104   .     S
C520   C529    1.402   .     A
C520   I563    2.122   .     S
C521   C529    1.391   .     A
C521   C528    1.396   .     A
C521   H535    1.072   .     S
C522   C524    1.493   .     S
C522   C530    1.385   .     A
C523   C141    1.348   1_565 S
C523   I192    2.153   1_565 S
C524   O546    1.301   .     A
C524   O545    1.326   .     A
C525   C526    1.446   .     S
C526   O548    1.297   .     A
C526   O547    1.311   .     A
C527   O550    1.318   .     A
C527   C529    1.468   .     S
C527   O549    1.301   .     A
C528   C1093   1.408   1_554 S
C528   O424    1.380   1_655 S
C530   C531    1.395   .     A
C530   H539    1.070   .     S
C531   C1108   1.424   .     S
C532   H540    1.077   .     S
C532   C1090   1.416   1_554 S
C532   C1107   1.424   1_554 S
Cu533  O547    1.983   .     S
Cu533  O543    1.988   .     S
Cu533  N542    2.046   .     S
Cu533  Cu534   2.723   .     S
Cu533  O545    1.954   .     S
Cu533  O549    1.948   .     S
Cu534  N541    2.046   .     S
Cu534  O544    1.983   .     S
Cu534  O546    1.948   .     S
Cu534  O550    1.954   .     S
Cu534  O548    1.988   .     S
H536   C141    1.087   1_565 S
N541   H409    1.029   1_655 S
N541   N414    1.307   1_655 S
I551   N414    2.082   1_655 S
O552   C553    1.410   .     S
C553   H555    1.116   .     S
C553   H554    1.110   .     S
C553   C1132   1.533   1_554 S
C556   H557    1.111   .     S
C556   H558    1.112   .     S
C556   C1129   1.533   .     S
C556   C175    1.522   1_565 S
C559   H562    1.111   .     S
C559   H561    1.110   .     S
C559   H560    1.108   .     S
O564   C403    1.394   1_655 S
O564   C1141   1.406   .     S
C565   H566    1.105   .     S
C565   H567    1.112   .     S
C565   C568    1.529   .     S
C565   O1140   1.406   1_554 S
C568   C571    1.525   .     S
C568   H569    1.112   .     S
C568   H570    1.112   .     S
C571   H572    1.111   .     S
C571   H573    1.108   .     S
C571   H574    1.108   .     S
C577   C587    1.436   .     S
C577   O607    1.306   .     A
C577   O608    1.296   .     A
C578   C579    1.412   .     A
C578   C4      1.428   1_556 S
C578   C20     1.416   1_556 S
C579   C586    1.416   .     A
C579   C583    1.395   .     A
C580   C584    1.400   .     A
C581   C582    1.391   .     A
C581   C4      1.423   1_556 S
C581   C16     1.408   1_556 S
C582   H602    1.078   .     S
C582   C583    1.378   .     A
C583   I639    2.104   .     S
C584   C593    1.402   .     A
C584   I627    2.122   .     S
C585   C593    1.391   .     A
C585   C592    1.396   .     A
C585   H599    1.072   .     S
C586   C588    1.493   .     S
C586   C594    1.385   .     A
C587   C781    1.348   .     S
C587   I832    2.153   .     S
C588   O610    1.301   .     A
C588   O609    1.326   .     A
C589   C590    1.446   .     S
C589   C971    1.348   1_545 S
C589   H984    1.087   1_545 S
C590   O612    1.297   .     A
C590   O611    1.311   .     A
C591   O614    1.318   .     A
C591   C593    1.468   .     S
C591   O613    1.301   .     A
C592   O680    1.380   .     S
C594   C595    1.395   .     A
C594   H603    1.070   .     S
C595   C20     1.424   1_556 S
C595   O756    1.394   1_455 S
C596   H604    1.077   .     S
Cu597  O611    1.983   .     S
Cu597  O607    1.988   .     S
Cu597  N606    2.046   .     S
Cu597  Cu598   2.723   .     S
Cu597  O609    1.954   .     S
Cu597  O613    1.948   .     S
Cu598  N605    2.046   .     S
Cu598  O608    1.983   .     S
Cu598  O610    1.948   .     S
Cu598  O614    1.954   .     S
Cu598  O612    1.988   .     S
H600   C781    1.087   .     S
H601   N733    1.029   1_455 S
N605   H665    1.029   .     S
N605   N670    1.307   .     S
N606   N733    1.307   1_455 S
N606   I743    2.082   1_455 S
I615   N670    2.082   .     S
O616   C617    1.410   .     S
O616   C720    1.380   1_455 S
C617   H619    1.116   .     S
C617   H618    1.110   .     S
C620   H621    1.111   .     S
C620   H622    1.112   .     S
C620   C41     1.533   1_556 S
C620   C815    1.522   .     S
C623   H626    1.111   .     S
C623   H625    1.110   .     S
C623   H624    1.108   .     S
C623   C1004   1.522   1_545 S
O628   C659    1.394   .     S
O628   C53     1.406   1_556 S
C629   H630    1.105   .     S
C629   H631    1.112   .     S
C629   C632    1.529   .     S
C632   C635    1.525   .     S
C632   H633    1.112   .     S
C632   H634    1.112   .     S
C635   H636    1.111   .     S
C635   H637    1.108   .     S
C635   H638    1.108   .     S
I640   C971    2.153   1_545 S
C641   C651    1.436   .     S
C641   O671    1.306   .     A
C641   O672    1.296   .     A
C642   C643    1.412   .     A
C642   C68     1.428   1_556 S
C642   C84     1.416   1_556 S
C643   C650    1.416   .     A
C643   C647    1.395   .     A
C644   C648    1.400   .     A
C645   C646    1.391   .     A
C645   C68     1.423   1_556 S
C645   C80     1.408   1_556 S
C646   H666    1.078   .     S
C646   C647    1.378   .     A
C647   I703    2.104   .     S
C648   C657    1.402   .     A
C648   I691    2.122   .     S
C649   C657    1.391   .     A
C649   C656    1.396   .     A
C649   H663    1.072   .     S
C650   C652    1.493   .     S
C650   C658    1.385   .     A
C651   C845    1.348   .     S
C651   I896    2.153   .     S
C652   O674    1.301   .     A
C652   O673    1.326   .     A
C653   C654    1.446   .     S
C653   C1035   1.348   1_545 S
C653   H1048   1.087   1_545 S
C654   O676    1.297   .     A
C654   O675    1.311   .     A
C655   O678    1.318   .     A
C655   C657    1.468   .     S
C655   O677    1.301   .     A
C656   O744    1.380   .     S
C658   C659    1.395   .     A
C658   H667    1.070   .     S
C659   C84     1.424   1_556 S
C660   H668    1.077   .     S
Cu661  O675    1.983   .     S
Cu661  O671    1.988   .     S
Cu661  N670    2.046   .     S
Cu661  Cu662   2.723   .     S
Cu661  O673    1.954   .     S
Cu661  O677    1.948   .     S
Cu662  N669    2.046   .     S
Cu662  O672    1.983   .     S
Cu662  O674    1.948   .     S
Cu662  O678    1.954   .     S
Cu662  O676    1.988   .     S
H664   C845    1.087   .     S
N669   H729    1.029   .     S
N669   N734    1.307   .     S
I679   N734    2.082   .     S
O680   C681    1.410   .     S
C681   H683    1.116   .     S
C681   H682    1.110   .     S
C684   H685    1.111   .     S
C684   H686    1.112   .     S
C684   C105    1.533   1_556 S
C684   C879    1.522   .     S
C687   H690    1.111   .     S
C687   H689    1.110   .     S
C687   H688    1.108   .     S
C687   C1068   1.522   1_545 S
O692   C723    1.394   .     S
O692   C117    1.406   1_556 S
C693   H694    1.105   .     S
C693   H695    1.112   .     S
C693   C696    1.529   .     S
C696   C699    1.525   .     S
C696   H697    1.112   .     S
C696   H698    1.112   .     S
C699   H700    1.111   .     S
C699   H701    1.108   .     S
C699   H702    1.108   .     S
I704   C1035   2.153   1_545 S
C705   C715    1.436   .     S
C705   O735    1.306   .     A
C705   O736    1.296   .     A
C706   C707    1.412   .     A
C706   C132    1.428   1_556 S
C706   C148    1.416   1_556 S
C707   C714    1.416   .     A
C707   C711    1.395   .     A
C708   C712    1.400   .     A
C709   C710    1.391   .     A
C709   C132    1.423   1_556 S
C709   C144    1.408   1_556 S
C710   H730    1.078   .     S
C710   C711    1.378   .     A
C711   I767    2.104   .     S
C712   C721    1.402   .     A
C712   I755    2.122   .     S
C713   C721    1.391   .     A
C713   C720    1.396   .     A
C713   H727    1.072   .     S
C714   C716    1.493   .     S
C714   C722    1.385   .     A
C715   C909    1.348   .     S
C715   I960    2.153   .     S
C716   O738    1.301   .     A
C716   O737    1.326   .     A
C717   C718    1.446   .     S
C717   C1099   1.348   1_545 S
C717   H1112   1.087   1_545 S
C718   O740    1.297   .     A
C718   O739    1.311   .     A
C719   O742    1.318   .     A
C719   C721    1.468   .     S
C719   O741    1.301   .     A
C720   O616    1.380   1_655 S
C722   C723    1.395   .     A
C722   H731    1.070   .     S
C723   C148    1.424   1_556 S
C724   H732    1.077   .     S
Cu725  O739    1.983   .     S
Cu725  O735    1.988   .     S
Cu725  N734    2.046   .     S
Cu725  Cu726   2.723   .     S
Cu725  O737    1.954   .     S
Cu725  O741    1.948   .     S
Cu726  N733    2.046   .     S
Cu726  O736    1.983   .     S
Cu726  O738    1.948   .     S
Cu726  O742    1.954   .     S
Cu726  O740    1.988   .     S
H728   C909    1.087   .     S
N733   H601    1.029   1_655 S
N733   N606    1.307   1_655 S
I743   N606    2.082   1_655 S
O744   C745    1.410   .     S
C745   H747    1.116   .     S
C745   H746    1.110   .     S
C748   H749    1.111   .     S
C748   H750    1.112   .     S
C748   C169    1.533   1_556 S
C748   C943    1.522   .     S
C751   H754    1.111   .     S
C751   H753    1.110   .     S
C751   H752    1.108   .     S
C751   C1132   1.522   1_545 S
O756   C595    1.394   1_655 S
O756   C181    1.406   1_556 S
C757   H758    1.105   .     S
C757   H759    1.112   .     S
C757   C760    1.529   .     S
C760   C763    1.525   .     S
C760   H761    1.112   .     S
C760   H762    1.112   .     S
C763   H764    1.111   .     S
C763   H765    1.108   .     S
C763   H766    1.108   .     S
I768   C1099   2.153   1_545 S
C769   C779    1.436   .     S
C769   O799    1.306   .     A
C769   O800    1.296   .     A
C770   C771    1.412   .     A
C770   C196    1.428   1_556 S
C770   C212    1.416   1_556 S
C771   C778    1.416   .     A
C771   C775    1.395   .     A
C772   C776    1.400   .     A
C773   C774    1.391   .     A
C773   C196    1.423   1_556 S
C773   C208    1.408   1_556 S
C774   H794    1.078   .     S
C774   C775    1.378   .     A
C775   I831    2.104   .     S
C776   C785    1.402   .     A
C776   I819    2.122   .     S
C777   C785    1.391   .     A
C777   C784    1.396   .     A
C777   H791    1.072   .     S
C778   C780    1.493   .     S
C778   C786    1.385   .     A
C779   C973    1.348   .     S
C779   I1024   2.153   .     S
C780   O802    1.301   .     A
C780   O801    1.326   .     A
C781   C782    1.446   .     S
C782   O804    1.297   .     A
C782   O803    1.311   .     A
C783   O806    1.318   .     A
C783   C785    1.468   .     S
C783   O805    1.301   .     A
C784   O872    1.380   .     S
C786   C787    1.395   .     A
C786   H795    1.070   .     S
C787   C212    1.424   1_556 S
C787   O948    1.394   1_455 S
C788   H796    1.077   .     S
Cu789  O803    1.983   .     S
Cu789  O799    1.988   .     S
Cu789  N798    2.046   .     S
Cu789  Cu790   2.723   .     S
Cu789  O801    1.954   .     S
Cu789  O805    1.948   .     S
Cu790  N797    2.046   .     S
Cu790  O800    1.983   .     S
Cu790  O802    1.948   .     S
Cu790  O806    1.954   .     S
Cu790  O804    1.988   .     S
H792   C973    1.087   .     S
H793   N925    1.029   1_455 S
N797   H857    1.029   .     S
N797   N862    1.307   .     S
N798   N925    1.307   1_455 S
N798   I935    2.082   1_455 S
I807   N862    2.082   .     S
O808   C809    1.410   .     S
O808   C912    1.380   1_455 S
C809   H811    1.116   .     S
C809   H810    1.110   .     S
C812   H813    1.111   .     S
C812   H814    1.112   .     S
C812   C233    1.533   1_556 S
C812   C1007   1.522   .     S
C815   H818    1.111   .     S
C815   H817    1.110   .     S
C815   H816    1.108   .     S
O820   C851    1.394   .     S
O820   C245    1.406   1_556 S
C821   H822    1.105   .     S
C821   H823    1.112   .     S
C821   C824    1.529   .     S
C824   C827    1.525   .     S
C824   H825    1.112   .     S
C824   H826    1.112   .     S
C827   H828    1.111   .     S
C827   H829    1.108   .     S
C827   H830    1.108   .     S
C833   C843    1.436   .     S
C833   O863    1.306   .     A
C833   O864    1.296   .     A
C834   C835    1.412   .     A
C834   C260    1.428   1_556 S
C834   C276    1.416   1_556 S
C835   C842    1.416   .     A
C835   C839    1.395   .     A
C836   C840    1.400   .     A
C837   C838    1.391   .     A
C837   C260    1.423   1_556 S
C837   C272    1.408   1_556 S
C838   H858    1.078   .     S
C838   C839    1.378   .     A
C839   I895    2.104   .     S
C840   C849    1.402   .     A
C840   I883    2.122   .     S
C841   C849    1.391   .     A
C841   C848    1.396   .     A
C841   H855    1.072   .     S
C842   C844    1.493   .     S
C842   C850    1.385   .     A
C843   C1037   1.348   .     S
C843   I1088   2.153   .     S
C844   O866    1.301   .     A
C844   O865    1.326   .     A
C845   C846    1.446   .     S
C846   O868    1.297   .     A
C846   O867    1.311   .     A
C847   O870    1.318   .     A
C847   C849    1.468   .     S
C847   O869    1.301   .     A
C848   O936    1.380   .     S
C850   C851    1.395   .     A
C850   H859    1.070   .     S
C851   C276    1.424   1_556 S
C852   H860    1.077   .     S
Cu853  O867    1.983   .     S
Cu853  O863    1.988   .     S
Cu853  N862    2.046   .     S
Cu853  Cu854   2.723   .     S
Cu853  O865    1.954   .     S
Cu853  O869    1.948   .     S
Cu854  N861    2.046   .     S
Cu854  O864    1.983   .     S
Cu854  O866    1.948   .     S
Cu854  O870    1.954   .     S
Cu854  O868    1.988   .     S
H856   C1037   1.087   .     S
N861   H921    1.029   .     S
N861   N926    1.307   .     S
I871   N926    2.082   .     S
O872   C873    1.410   .     S
C873   H875    1.116   .     S
C873   H874    1.110   .     S
C876   H877    1.111   .     S
C876   H878    1.112   .     S
C876   C297    1.533   1_556 S
C876   C1071   1.522   .     S
C879   H882    1.111   .     S
C879   H881    1.110   .     S
C879   H880    1.108   .     S
O884   C915    1.394   .     S
O884   C309    1.406   1_556 S
C885   H886    1.105   .     S
C885   H887    1.112   .     S
C885   C888    1.529   .     S
C888   C891    1.525   .     S
C888   H889    1.112   .     S
C888   H890    1.112   .     S
C891   H892    1.111   .     S
C891   H893    1.108   .     S
C891   H894    1.108   .     S
C897   C907    1.436   .     S
C897   O927    1.306   .     A
C897   O928    1.296   .     A
C898   C899    1.412   .     A
C898   C324    1.428   1_556 S
C898   C340    1.416   1_556 S
C899   C906    1.416   .     A
C899   C903    1.395   .     A
C900   C904    1.400   .     A
C901   C902    1.391   .     A
C901   C324    1.423   1_556 S
C901   C336    1.408   1_556 S
C902   H922    1.078   .     S
C902   C903    1.378   .     A
C903   I959    2.104   .     S
C904   C913    1.402   .     A
C904   I947    2.122   .     S
C905   C913    1.391   .     A
C905   C912    1.396   .     A
C905   H919    1.072   .     S
C906   C908    1.493   .     S
C906   C914    1.385   .     A
C907   C1101   1.348   .     S
C907   I1152   2.153   .     S
C908   O930    1.301   .     A
C908   O929    1.326   .     A
C909   C910    1.446   .     S
C910   O932    1.297   .     A
C910   O931    1.311   .     A
C911   O934    1.318   .     A
C911   C913    1.468   .     S
C911   O933    1.301   .     A
C912   O808    1.380   1_655 S
C914   C915    1.395   .     A
C914   H923    1.070   .     S
C915   C340    1.424   1_556 S
C916   H924    1.077   .     S
Cu917  O931    1.983   .     S
Cu917  O927    1.988   .     S
Cu917  N926    2.046   .     S
Cu917  Cu918   2.723   .     S
Cu917  O929    1.954   .     S
Cu917  O933    1.948   .     S
Cu918  N925    2.046   .     S
Cu918  O928    1.983   .     S
Cu918  O930    1.948   .     S
Cu918  O934    1.954   .     S
Cu918  O932    1.988   .     S
H920   C1101   1.087   .     S
N925   H793    1.029   1_655 S
N925   N798    1.307   1_655 S
I935   N798    2.082   1_655 S
O936   C937    1.410   .     S
C937   H939    1.116   .     S
C937   H938    1.110   .     S
C940   H941    1.111   .     S
C940   H942    1.112   .     S
C940   C361    1.533   1_556 S
C940   C1135   1.522   .     S
C943   H946    1.111   .     S
C943   H945    1.110   .     S
C943   H944    1.108   .     S
O948   C787    1.394   1_655 S
O948   C373    1.406   1_556 S
C949   H950    1.105   .     S
C949   H951    1.112   .     S
C949   C952    1.529   .     S
C952   C955    1.525   .     S
C952   H953    1.112   .     S
C952   H954    1.112   .     S
C955   H956    1.111   .     S
C955   H957    1.108   .     S
C955   H958    1.108   .     S
C961   C971    1.436   .     S
C961   O991    1.306   .     A
C961   O992    1.296   .     A
C962   C963    1.412   .     A
C962   C388    1.428   1_556 S
C962   C404    1.416   1_556 S
C963   C970    1.416   .     A
C963   C967    1.395   .     A
C964   C968    1.400   .     A
C965   C966    1.391   .     A
C965   C388    1.423   1_556 S
C965   C400    1.408   1_556 S
C966   H986    1.078   .     S
C966   C967    1.378   .     A
C967   I1023   2.104   .     S
C968   C977    1.402   .     A
C968   I1011   2.122   .     S
C969   C977    1.391   .     A
C969   C976    1.396   .     A
C969   H983    1.072   .     S
C970   C972    1.493   .     S
C970   C978    1.385   .     A
C971   C589    1.348   1_565 S
C971   I640    2.153   1_565 S
C972   O994    1.301   .     A
C972   O993    1.326   .     A
C973   C974    1.446   .     S
C974   O996    1.297   .     A
C974   O995    1.311   .     A
C975   O998    1.318   .     A
C975   C977    1.468   .     S
C975   O997    1.301   .     A
C976   O1064   1.380   .     S
C978   C979    1.395   .     A
C978   H987    1.070   .     S
C979   C404    1.424   1_556 S
C979   O1140   1.394   1_455 S
C980   H988    1.077   .     S
Cu981  O995    1.983   .     S
Cu981  O991    1.988   .     S
Cu981  N990    2.046   .     S
Cu981  Cu982   2.723   .     S
Cu981  O993    1.954   .     S
Cu981  O997    1.948   .     S
Cu982  N989    2.046   .     S
Cu982  O992    1.983   .     S
Cu982  O994    1.948   .     S
Cu982  O998    1.954   .     S
Cu982  O996    1.988   .     S
H984   C589    1.087   1_565 S
H985   N1117   1.029   1_455 S
N989   H1049   1.029   .     S
N989   N1054   1.307   .     S
N990   N1117   1.307   1_455 S
N990   I1127   2.082   1_455 S
I999   N1054   2.082   .     S
O1000  C1001   1.410   .     S
O1000  C1104   1.380   1_455 S
C1001  H1003   1.116   .     S
C1001  H1002   1.110   .     S
C1004  H1005   1.111   .     S
C1004  H1006   1.112   .     S
C1004  C425    1.533   1_556 S
C1004  C623    1.522   1_565 S
C1007  H1010   1.111   .     S
C1007  H1009   1.110   .     S
C1007  H1008   1.108   .     S
O1012  C1043   1.394   .     S
O1012  C437    1.406   1_556 S
C1013  H1014   1.105   .     S
C1013  H1015   1.112   .     S
C1013  C1016   1.529   .     S
C1016  C1019   1.525   .     S
C1016  H1017   1.112   .     S
C1016  H1018   1.112   .     S
C1019  H1020   1.111   .     S
C1019  H1021   1.108   .     S
C1019  H1022   1.108   .     S
C1025  C1035   1.436   .     S
C1025  O1055   1.306   .     A
C1025  O1056   1.296   .     A
C1026  C1027   1.412   .     A
C1026  C452    1.428   1_556 S
C1026  C468    1.416   1_556 S
C1027  C1034   1.416   .     A
C1027  C1031   1.395   .     A
C1028  C1032   1.400   .     A
C1029  C1030   1.391   .     A
C1029  C452    1.423   1_556 S
C1029  C464    1.408   1_556 S
C1030  H1050   1.078   .     S
C1030  C1031   1.378   .     A
C1031  I1087   2.104   .     S
C1032  C1041   1.402   .     A
C1032  I1075   2.122   .     S
C1033  C1041   1.391   .     A
C1033  C1040   1.396   .     A
C1033  H1047   1.072   .     S
C1034  C1036   1.493   .     S
C1034  C1042   1.385   .     A
C1035  C653    1.348   1_565 S
C1035  I704    2.153   1_565 S
C1036  O1058   1.301   .     A
C1036  O1057   1.326   .     A
C1037  C1038   1.446   .     S
C1038  O1060   1.297   .     A
C1038  O1059   1.311   .     A
C1039  O1062   1.318   .     A
C1039  C1041   1.468   .     S
C1039  O1061   1.301   .     A
C1040  O1128   1.380   .     S
C1042  C1043   1.395   .     A
C1042  H1051   1.070   .     S
C1043  C468    1.424   1_556 S
C1044  H1052   1.077   .     S
Cu1045 O1059   1.983   .     S
Cu1045 O1055   1.988   .     S
Cu1045 N1054   2.046   .     S
Cu1045 Cu1046  2.723   .     S
Cu1045 O1057   1.954   .     S
Cu1045 O1061   1.948   .     S
Cu1046 N1053   2.046   .     S
Cu1046 O1056   1.983   .     S
Cu1046 O1058   1.948   .     S
Cu1046 O1062   1.954   .     S
Cu1046 O1060   1.988   .     S
H1048  C653    1.087   1_565 S
N1053  H1113   1.029   .     S
N1053  N1118   1.307   .     S
I1063  N1118   2.082   .     S
O1064  C1065   1.410   .     S
C1065  H1067   1.116   .     S
C1065  H1066   1.110   .     S
C1068  H1069   1.111   .     S
C1068  H1070   1.112   .     S
C1068  C489    1.533   1_556 S
C1068  C687    1.522   1_565 S
C1071  H1074   1.111   .     S
C1071  H1073   1.110   .     S
C1071  H1072   1.108   .     S
O1076  C1107   1.394   .     S
O1076  C501    1.406   1_556 S
C1077  H1078   1.105   .     S
C1077  H1079   1.112   .     S
C1077  C1080   1.529   .     S
C1080  C1083   1.525   .     S
C1080  H1081   1.112   .     S
C1080  H1082   1.112   .     S
C1083  H1084   1.111   .     S
C1083  H1085   1.108   .     S
C1083  H1086   1.108   .     S
C1089  C1099   1.436   .     S
C1089  O1119   1.306   .     A
C1089  O1120   1.296   .     A
C1090  C1091   1.412   .     A
C1090  C516    1.428   1_556 S
C1090  C532    1.416   1_556 S
C1091  C1098   1.416   .     A
C1091  C1095   1.395   .     A
C1092  C1096   1.400   .     A
C1093  C1094   1.391   .     A
C1093  C516    1.423   1_556 S
C1093  C528    1.408   1_556 S
C1094  H1114   1.078   .     S
C1094  C1095   1.378   .     A
C1095  I1151   2.104   .     S
C1096  C1105   1.402   .     A
C1096  I1139   2.122   .     S
C1097  C1105   1.391   .     A
C1097  C1104   1.396   .     A
C1097  H1111   1.072   .     S
C1098  C1100   1.493   .     S
C1098  C1106   1.385   .     A
C1099  C717    1.348   1_565 S
C1099  I768    2.153   1_565 S
C1100  O1122   1.301   .     A
C1100  O1121   1.326   .     A
C1101  C1102   1.446   .     S
C1102  O1124   1.297   .     A
C1102  O1123   1.311   .     A
C1103  O1126   1.318   .     A
C1103  C1105   1.468   .     S
C1103  O1125   1.301   .     A
C1104  O1000   1.380   1_655 S
C1106  C1107   1.395   .     A
C1106  H1115   1.070   .     S
C1107  C532    1.424   1_556 S
C1108  H1116   1.077   .     S
Cu1109 O1123   1.983   .     S
Cu1109 O1119   1.988   .     S
Cu1109 N1118   2.046   .     S
Cu1109 Cu1110  2.723   .     S
Cu1109 O1121   1.954   .     S
Cu1109 O1125   1.948   .     S
Cu1110 N1117   2.046   .     S
Cu1110 O1120   1.983   .     S
Cu1110 O1122   1.948   .     S
Cu1110 O1126   1.954   .     S
Cu1110 O1124   1.988   .     S
H1112  C717    1.087   1_565 S
N1117  H985    1.029   1_655 S
N1117  N990    1.307   1_655 S
I1127  N990    2.082   1_655 S
O1128  C1129   1.410   .     S
C1129  H1131   1.116   .     S
C1129  H1130   1.110   .     S
C1132  H1133   1.111   .     S
C1132  H1134   1.112   .     S
C1132  C553    1.533   1_556 S
C1132  C751    1.522   1_565 S
C1135  H1138   1.111   .     S
C1135  H1137   1.110   .     S
C1135  H1136   1.108   .     S
O1140  C979    1.394   1_655 S
O1140  C565    1.406   1_556 S
C1141  H1142   1.105   .     S
C1141  H1143   1.112   .     S
C1141  C1144   1.529   .     S
C1144  C1147   1.525   .     S
C1144  H1145   1.112   .     S
C1144  H1146   1.112   .     S
C1147  H1148   1.111   .     S
C1147  H1149   1.108   .     S
C1147  H1150   1.108   .     S
