data_str_m3_o1_o2_pcu_sym.14
_audit_creation_date              2020-01-03
_audit_creation_method            'Materials Studio'
_symmetry_space_group_name_H-M    'P1'
_symmetry_Int_Tables_number       1
_symmetry_cell_setting            triclinic
loop_
_symmetry_equiv_pos_as_xyz
  x,y,z
_cell_length_a                    32.1437
_cell_length_b                    29.4429
_cell_length_c                    30.0993
_cell_angle_alpha                 89.8085
_cell_angle_beta                  90.1341
_cell_angle_gamma                 90.0776
loop_
_atom_site_label
_atom_site_type_symbol
_atom_site_fract_x
_atom_site_fract_y
_atom_site_fract_z
_atom_site_U_iso_or_equiv
_atom_site_adp_type
_atom_site_occupancy
C1     C     0.08660   0.16665   0.25002   0.00000  Uiso   1.00
C2     C     0.31210   0.20737   0.25757   0.00000  Uiso   1.00
C3     C     0.31196   0.12586   0.24317   0.00000  Uiso   1.00
C4     C     0.02136   0.20736   0.25755   0.00000  Uiso   1.00
C5     C     0.17537   0.20754   0.04528   0.00000  Uiso   1.00
C6     C     0.19911   0.13916   0.45139   0.00000  Uiso   1.00
C7     C     0.14285   0.19432   0.45315   0.00000  Uiso   1.00
C8     C     0.16956   0.12557   0.04529   0.00000  Uiso   1.00
C9     C     0.17287   0.20831   0.09119   0.00000  Uiso   1.00
C10    C     0.19797   0.13911   0.40537   0.00000  Uiso   1.00
C11    C     0.14042   0.19390   0.40721   0.00000  Uiso   1.00
C12    C     0.24673   0.16668   0.24993   0.00000  Uiso   1.00
C13    C     0.16828   0.12489   0.09130   0.00000  Uiso   1.00
C14    C     0.16926   0.16667   0.11495   0.00000  Uiso   1.00
C15    C     0.16831   0.16639   0.38343   0.00000  Uiso   1.00
C16    C     0.17294   0.16660   0.02268   0.00000  Uiso   1.00
C17    C     0.17188   0.16689   0.47492   0.00000  Uiso   1.00
C18    C     0.29086   0.16666   0.25019   0.00000  Uiso   1.00
C19    C     0.04246   0.16661   0.25029   0.00000  Uiso   1.00
C20    C     0.13412   0.27405   0.11376   0.00000  Uiso   1.00
C21    C     0.26348   0.13707   0.36667   0.00000  Uiso   1.00
C22    C     0.07287   0.19562   0.37216   0.00000  Uiso   1.00
C23    C     0.16713   0.16671   0.16354   0.00000  Uiso   1.00
C24    C     0.20460   0.06013   0.12130   0.00000  Uiso   1.00
C25    C     0.16690   0.16659   0.33587   0.00000  Uiso   1.00
C26    C     0.19716   0.02399   0.27166   0.00000  Uiso   1.00
C27    C     0.13603   0.30936   0.22862   0.00000  Uiso   1.00
C28    C     0.13614   0.02404   0.22841   0.00000  Uiso   1.00
C29    C     0.19719   0.30930   0.27160   0.00000  Uiso   1.00
C30    C     0.02123   0.12583   0.24324   0.00000  Uiso   1.00
H31    H     0.22147   0.04221   0.28903   0.00000  Uiso   1.00
H32    H     0.29593   0.23906   0.26345   0.00000  Uiso   1.00
H33    H     0.29570   0.09417   0.23735   0.00000  Uiso   1.00
H34    H     0.03764   0.23904   0.26341   0.00000  Uiso   1.00
H35    H     0.19718   0.27227   0.10102   0.00000  Uiso   1.00
H36    H     0.12333   0.28176   0.07945   0.00000  Uiso   1.00
H37    H     0.13719   0.30652   0.13209   0.00000  Uiso   1.00
H38    H     0.11061   0.25256   0.13087   0.00000  Uiso   1.00
H39    H     0.23482   0.08229   0.39696   0.00000  Uiso   1.00
H40    H     0.28234   0.14790   0.39577   0.00000  Uiso   1.00
H41    H     0.25443   0.16749   0.34702   0.00000  Uiso   1.00
H42    H     0.11148   0.29115   0.21167   0.00000  Uiso   1.00
H43    H     0.28280   0.11485   0.34529   0.00000  Uiso   1.00
H44    H     0.10238   0.25026   0.40160   0.00000  Uiso   1.00
H45    H     0.05630   0.18280   0.40206   0.00000  Uiso   1.00
H46    H     0.08113   0.16655   0.35052   0.00000  Uiso   1.00
H47    H     0.05164   0.21835   0.35330   0.00000  Uiso   1.00
H48    H     0.14400   0.06031   0.09828   0.00000  Uiso   1.00
H49    H     0.21936   0.05039   0.08936   0.00000  Uiso   1.00
H50    H     0.19963   0.02902   0.14157   0.00000  Uiso   1.00
H51    H     0.22582   0.08309   0.13990   0.00000  Uiso   1.00
H52    H     0.11182   0.04229   0.21105   0.00000  Uiso   1.00
H53    H     0.22154   0.29104   0.28890   0.00000  Uiso   1.00
H54    H     0.17826   0.23924   0.02706   0.00000  Uiso   1.00
H55    H     0.22180   0.11845   0.46880   0.00000  Uiso   1.00
H56    H     0.12133   0.21500   0.47198   0.00000  Uiso   1.00
H57    H     0.16750   0.09391   0.02710   0.00000  Uiso   1.00
H58    H     0.03738   0.09413   0.23745   0.00000  Uiso   1.00
N59    N     0.16667   0.28573   0.25000   0.00000  Uiso   1.00
N60    N     0.16667   0.04760   0.25000   0.00000  Uiso   1.00
N61    N     0.17395   0.25123   0.11278   0.00000  Uiso   1.00
N62    N     0.22706   0.11234   0.38130   0.00000  Uiso   1.00
N63    N     0.10969   0.22064   0.38516   0.00000  Uiso   1.00
N64    N     0.16502   0.08204   0.11312   0.00000  Uiso   1.00
O65    O     0.10559   0.20487   0.24999   0.00000  Uiso   1.00
O66    O     0.22774   0.12846   0.25000   0.00000  Uiso   1.00
O67    O     0.22774   0.20487   0.25000   0.00000  Uiso   1.00
O68    O     0.10559   0.12846   0.24999   0.00000  Uiso   1.00
O69    O     0.16666   0.20489   0.18453   0.00000  Uiso   1.00
O70    O     0.16667   0.12845   0.31547   0.00000  Uiso   1.00
O71    O     0.16667   0.20489   0.31547   0.00000  Uiso   1.00
O72    O     0.16666   0.12845   0.18453   0.00000  Uiso   1.00
Zn73   Zn    0.16667   0.21771   0.25000   0.00000  Uiso   1.00
Zn74   Zn    0.16667   0.11563   0.25000   0.00000  Uiso   1.00
C75    C     0.41993   0.16665   0.25002   0.00000  Uiso   1.00
C76    C     0.64543   0.20737   0.25757   0.00000  Uiso   1.00
C77    C     0.64530   0.12586   0.24317   0.00000  Uiso   1.00
C78    C     0.35470   0.20736   0.25755   0.00000  Uiso   1.00
C79    C     0.50871   0.20754   0.04528   0.00000  Uiso   1.00
C80    C     0.53244   0.13916   0.45139   0.00000  Uiso   1.00
C81    C     0.47618   0.19432   0.45315   0.00000  Uiso   1.00
C82    C     0.50289   0.12557   0.04529   0.00000  Uiso   1.00
C83    C     0.50620   0.20831   0.09119   0.00000  Uiso   1.00
C84    C     0.53130   0.13911   0.40537   0.00000  Uiso   1.00
C85    C     0.47375   0.19390   0.40721   0.00000  Uiso   1.00
C86    C     0.58007   0.16668   0.24993   0.00000  Uiso   1.00
C87    C     0.50162   0.12489   0.09130   0.00000  Uiso   1.00
C88    C     0.50259   0.16667   0.11495   0.00000  Uiso   1.00
C89    C     0.50164   0.16639   0.38343   0.00000  Uiso   1.00
C90    C     0.50628   0.16660   0.02268   0.00000  Uiso   1.00
C91    C     0.50521   0.16689   0.47492   0.00000  Uiso   1.00
C92    C     0.62420   0.16666   0.25019   0.00000  Uiso   1.00
C93    C     0.37580   0.16661   0.25029   0.00000  Uiso   1.00
C94    C     0.46746   0.27405   0.11376   0.00000  Uiso   1.00
C95    C     0.59682   0.13707   0.36667   0.00000  Uiso   1.00
C96    C     0.40620   0.19562   0.37216   0.00000  Uiso   1.00
C97    C     0.50047   0.16671   0.16354   0.00000  Uiso   1.00
C98    C     0.53793   0.06013   0.12130   0.00000  Uiso   1.00
C99    C     0.50023   0.16659   0.33587   0.00000  Uiso   1.00
C100   C     0.53049   0.02399   0.27166   0.00000  Uiso   1.00
C101   C     0.46936   0.30936   0.22862   0.00000  Uiso   1.00
C102   C     0.46948   0.02404   0.22841   0.00000  Uiso   1.00
C103   C     0.53053   0.30930   0.27160   0.00000  Uiso   1.00
C104   C     0.35456   0.12583   0.24324   0.00000  Uiso   1.00
H105   H     0.55480   0.04221   0.28903   0.00000  Uiso   1.00
H106   H     0.62926   0.23906   0.26345   0.00000  Uiso   1.00
H107   H     0.62903   0.09417   0.23735   0.00000  Uiso   1.00
H108   H     0.37097   0.23904   0.26341   0.00000  Uiso   1.00
H109   H     0.53051   0.27227   0.10102   0.00000  Uiso   1.00
H110   H     0.45666   0.28176   0.07945   0.00000  Uiso   1.00
H111   H     0.47052   0.30652   0.13209   0.00000  Uiso   1.00
H112   H     0.44395   0.25256   0.13087   0.00000  Uiso   1.00
H113   H     0.56815   0.08229   0.39696   0.00000  Uiso   1.00
H114   H     0.61568   0.14790   0.39577   0.00000  Uiso   1.00
H115   H     0.58777   0.16749   0.34702   0.00000  Uiso   1.00
H116   H     0.44481   0.29115   0.21167   0.00000  Uiso   1.00
H117   H     0.61613   0.11485   0.34529   0.00000  Uiso   1.00
H118   H     0.43571   0.25026   0.40160   0.00000  Uiso   1.00
H119   H     0.38963   0.18280   0.40206   0.00000  Uiso   1.00
H120   H     0.41447   0.16655   0.35052   0.00000  Uiso   1.00
H121   H     0.38497   0.21835   0.35330   0.00000  Uiso   1.00
H122   H     0.47733   0.06031   0.09828   0.00000  Uiso   1.00
H123   H     0.55269   0.05039   0.08936   0.00000  Uiso   1.00
H124   H     0.53296   0.02902   0.14157   0.00000  Uiso   1.00
H125   H     0.55915   0.08309   0.13990   0.00000  Uiso   1.00
H126   H     0.44516   0.04229   0.21105   0.00000  Uiso   1.00
H127   H     0.55487   0.29104   0.28890   0.00000  Uiso   1.00
H128   H     0.51160   0.23924   0.02706   0.00000  Uiso   1.00
H129   H     0.55513   0.11845   0.46880   0.00000  Uiso   1.00
H130   H     0.45466   0.21500   0.47198   0.00000  Uiso   1.00
H131   H     0.50084   0.09391   0.02710   0.00000  Uiso   1.00
H132   H     0.37071   0.09413   0.23745   0.00000  Uiso   1.00
N133   N     0.50000   0.28573   0.25000   0.00000  Uiso   1.00
N134   N     0.50000   0.04760   0.25000   0.00000  Uiso   1.00
N135   N     0.50728   0.25123   0.11278   0.00000  Uiso   1.00
N136   N     0.56039   0.11234   0.38130   0.00000  Uiso   1.00
N137   N     0.44303   0.22064   0.38516   0.00000  Uiso   1.00
N138   N     0.49836   0.08204   0.11312   0.00000  Uiso   1.00
O139   O     0.43892   0.20487   0.24999   0.00000  Uiso   1.00
O140   O     0.56108   0.12846   0.25000   0.00000  Uiso   1.00
O141   O     0.56108   0.20487   0.25000   0.00000  Uiso   1.00
O142   O     0.43892   0.12846   0.24999   0.00000  Uiso   1.00
O143   O     0.50000   0.20489   0.18453   0.00000  Uiso   1.00
O144   O     0.50000   0.12845   0.31547   0.00000  Uiso   1.00
O145   O     0.50000   0.20489   0.31547   0.00000  Uiso   1.00
O146   O     0.50000   0.12845   0.18453   0.00000  Uiso   1.00
Zn147  Zn    0.50000   0.21771   0.25000   0.00000  Uiso   1.00
Zn148  Zn    0.50000   0.11563   0.25000   0.00000  Uiso   1.00
C149   C     0.75326   0.16665   0.25002   0.00000  Uiso   1.00
C150   C     0.97876   0.20737   0.25757   0.00000  Uiso   1.00
C151   C     0.97863   0.12586   0.24317   0.00000  Uiso   1.00
C152   C     0.68803   0.20736   0.25755   0.00000  Uiso   1.00
C153   C     0.84204   0.20754   0.04528   0.00000  Uiso   1.00
C154   C     0.86577   0.13916   0.45139   0.00000  Uiso   1.00
C155   C     0.80951   0.19432   0.45315   0.00000  Uiso   1.00
C156   C     0.83622   0.12557   0.04529   0.00000  Uiso   1.00
C157   C     0.83954   0.20831   0.09119   0.00000  Uiso   1.00
C158   C     0.86463   0.13911   0.40537   0.00000  Uiso   1.00
C159   C     0.80709   0.19390   0.40721   0.00000  Uiso   1.00
C160   C     0.91340   0.16668   0.24993   0.00000  Uiso   1.00
C161   C     0.83495   0.12489   0.09130   0.00000  Uiso   1.00
C162   C     0.83592   0.16667   0.11495   0.00000  Uiso   1.00
C163   C     0.83497   0.16639   0.38343   0.00000  Uiso   1.00
C164   C     0.83961   0.16660   0.02268   0.00000  Uiso   1.00
C165   C     0.83855   0.16689   0.47492   0.00000  Uiso   1.00
C166   C     0.95753   0.16666   0.25019   0.00000  Uiso   1.00
C167   C     0.70913   0.16661   0.25029   0.00000  Uiso   1.00
C168   C     0.80079   0.27405   0.11376   0.00000  Uiso   1.00
C169   C     0.93015   0.13707   0.36667   0.00000  Uiso   1.00
C170   C     0.73953   0.19562   0.37216   0.00000  Uiso   1.00
C171   C     0.83380   0.16671   0.16354   0.00000  Uiso   1.00
C172   C     0.87126   0.06013   0.12130   0.00000  Uiso   1.00
C173   C     0.83357   0.16659   0.33587   0.00000  Uiso   1.00
C174   C     0.86383   0.02399   0.27166   0.00000  Uiso   1.00
C175   C     0.80269   0.30936   0.22862   0.00000  Uiso   1.00
C176   C     0.80281   0.02404   0.22841   0.00000  Uiso   1.00
C177   C     0.86386   0.30930   0.27160   0.00000  Uiso   1.00
C178   C     0.68789   0.12583   0.24324   0.00000  Uiso   1.00
H179   H     0.88813   0.04221   0.28903   0.00000  Uiso   1.00
H180   H     0.96260   0.23906   0.26345   0.00000  Uiso   1.00
H181   H     0.96236   0.09417   0.23735   0.00000  Uiso   1.00
H182   H     0.70431   0.23904   0.26341   0.00000  Uiso   1.00
H183   H     0.86384   0.27227   0.10102   0.00000  Uiso   1.00
H184   H     0.78999   0.28176   0.07945   0.00000  Uiso   1.00
H185   H     0.80385   0.30652   0.13209   0.00000  Uiso   1.00
H186   H     0.77728   0.25256   0.13087   0.00000  Uiso   1.00
H187   H     0.90149   0.08229   0.39696   0.00000  Uiso   1.00
H188   H     0.94901   0.14790   0.39577   0.00000  Uiso   1.00
H189   H     0.92110   0.16749   0.34702   0.00000  Uiso   1.00
H190   H     0.77814   0.29115   0.21167   0.00000  Uiso   1.00
H191   H     0.94946   0.11485   0.34529   0.00000  Uiso   1.00
H192   H     0.76904   0.25026   0.40160   0.00000  Uiso   1.00
H193   H     0.72297   0.18280   0.40206   0.00000  Uiso   1.00
H194   H     0.74780   0.16655   0.35052   0.00000  Uiso   1.00
H195   H     0.71831   0.21835   0.35330   0.00000  Uiso   1.00
H196   H     0.81066   0.06031   0.09828   0.00000  Uiso   1.00
H197   H     0.88603   0.05039   0.08936   0.00000  Uiso   1.00
H198   H     0.86629   0.02902   0.14157   0.00000  Uiso   1.00
H199   H     0.89249   0.08309   0.13990   0.00000  Uiso   1.00
H200   H     0.77849   0.04229   0.21105   0.00000  Uiso   1.00
H201   H     0.88821   0.29104   0.28890   0.00000  Uiso   1.00
H202   H     0.84493   0.23924   0.02706   0.00000  Uiso   1.00
H203   H     0.88846   0.11845   0.46880   0.00000  Uiso   1.00
H204   H     0.78799   0.21500   0.47198   0.00000  Uiso   1.00
H205   H     0.83417   0.09391   0.02710   0.00000  Uiso   1.00
H206   H     0.70405   0.09413   0.23745   0.00000  Uiso   1.00
N207   N     0.83333   0.28573   0.25000   0.00000  Uiso   1.00
N208   N     0.83333   0.04760   0.25000   0.00000  Uiso   1.00
N209   N     0.84062   0.25123   0.11278   0.00000  Uiso   1.00
N210   N     0.89372   0.11234   0.38130   0.00000  Uiso   1.00
N211   N     0.77636   0.22064   0.38516   0.00000  Uiso   1.00
N212   N     0.83169   0.08204   0.11312   0.00000  Uiso   1.00
O213   O     0.77226   0.20487   0.24999   0.00000  Uiso   1.00
O214   O     0.89441   0.12846   0.25000   0.00000  Uiso   1.00
O215   O     0.89441   0.20487   0.25000   0.00000  Uiso   1.00
O216   O     0.77226   0.12846   0.24999   0.00000  Uiso   1.00
O217   O     0.83333   0.20489   0.18453   0.00000  Uiso   1.00
O218   O     0.83334   0.12845   0.31547   0.00000  Uiso   1.00
O219   O     0.83334   0.20489   0.31547   0.00000  Uiso   1.00
O220   O     0.83333   0.12845   0.18453   0.00000  Uiso   1.00
Zn221  Zn    0.83333   0.21771   0.25000   0.00000  Uiso   1.00
Zn222  Zn    0.83333   0.11563   0.25000   0.00000  Uiso   1.00
C223   C     0.08660   0.49998   0.25002   0.00000  Uiso   1.00
C224   C     0.31210   0.54071   0.25757   0.00000  Uiso   1.00
C225   C     0.31196   0.45920   0.24317   0.00000  Uiso   1.00
C226   C     0.02136   0.54069   0.25755   0.00000  Uiso   1.00
C227   C     0.17537   0.54088   0.04528   0.00000  Uiso   1.00
C228   C     0.19911   0.47249   0.45139   0.00000  Uiso   1.00
C229   C     0.14285   0.52765   0.45315   0.00000  Uiso   1.00
C230   C     0.16956   0.45891   0.04529   0.00000  Uiso   1.00
C231   C     0.17287   0.54164   0.09119   0.00000  Uiso   1.00
C232   C     0.19797   0.47244   0.40537   0.00000  Uiso   1.00
C233   C     0.14042   0.52724   0.40721   0.00000  Uiso   1.00
C234   C     0.24673   0.50002   0.24993   0.00000  Uiso   1.00
C235   C     0.16828   0.45823   0.09130   0.00000  Uiso   1.00
C236   C     0.16926   0.50000   0.11495   0.00000  Uiso   1.00
C237   C     0.16831   0.49973   0.38343   0.00000  Uiso   1.00
C238   C     0.17294   0.49994   0.02268   0.00000  Uiso   1.00
C239   C     0.17188   0.50023   0.47492   0.00000  Uiso   1.00
C240   C     0.29086   0.49999   0.25019   0.00000  Uiso   1.00
C241   C     0.04246   0.49994   0.25029   0.00000  Uiso   1.00
C242   C     0.13412   0.60739   0.11376   0.00000  Uiso   1.00
C243   C     0.26348   0.47041   0.36667   0.00000  Uiso   1.00
C244   C     0.07287   0.52895   0.37216   0.00000  Uiso   1.00
C245   C     0.16713   0.50004   0.16354   0.00000  Uiso   1.00
C246   C     0.20460   0.39346   0.12130   0.00000  Uiso   1.00
C247   C     0.16690   0.49992   0.33587   0.00000  Uiso   1.00
C248   C     0.19716   0.35732   0.27166   0.00000  Uiso   1.00
C249   C     0.13603   0.64269   0.22862   0.00000  Uiso   1.00
C250   C     0.13614   0.35737   0.22841   0.00000  Uiso   1.00
C251   C     0.19719   0.64263   0.27160   0.00000  Uiso   1.00
C252   C     0.02123   0.45917   0.24324   0.00000  Uiso   1.00
H253   H     0.22147   0.37555   0.28903   0.00000  Uiso   1.00
H254   H     0.29593   0.57239   0.26345   0.00000  Uiso   1.00
H255   H     0.29570   0.42750   0.23735   0.00000  Uiso   1.00
H256   H     0.03764   0.57238   0.26341   0.00000  Uiso   1.00
H257   H     0.19718   0.60560   0.10102   0.00000  Uiso   1.00
H258   H     0.12333   0.61510   0.07945   0.00000  Uiso   1.00
H259   H     0.13719   0.63985   0.13209   0.00000  Uiso   1.00
H260   H     0.11061   0.58589   0.13087   0.00000  Uiso   1.00
H261   H     0.23482   0.41562   0.39696   0.00000  Uiso   1.00
H262   H     0.28234   0.48123   0.39577   0.00000  Uiso   1.00
H263   H     0.25443   0.50083   0.34702   0.00000  Uiso   1.00
H264   H     0.11148   0.62448   0.21167   0.00000  Uiso   1.00
H265   H     0.28280   0.44819   0.34529   0.00000  Uiso   1.00
H266   H     0.10238   0.58359   0.40160   0.00000  Uiso   1.00
H267   H     0.05630   0.51613   0.40206   0.00000  Uiso   1.00
H268   H     0.08113   0.49989   0.35052   0.00000  Uiso   1.00
H269   H     0.05164   0.55168   0.35330   0.00000  Uiso   1.00
H270   H     0.14400   0.39364   0.09828   0.00000  Uiso   1.00
H271   H     0.21936   0.38373   0.08936   0.00000  Uiso   1.00
H272   H     0.19963   0.36235   0.14157   0.00000  Uiso   1.00
H273   H     0.22582   0.41642   0.13990   0.00000  Uiso   1.00
H274   H     0.11182   0.37562   0.21105   0.00000  Uiso   1.00
H275   H     0.22154   0.62437   0.28890   0.00000  Uiso   1.00
H276   H     0.17826   0.57257   0.02706   0.00000  Uiso   1.00
H277   H     0.22180   0.45178   0.46880   0.00000  Uiso   1.00
H278   H     0.12133   0.54834   0.47198   0.00000  Uiso   1.00
H279   H     0.16750   0.42725   0.02710   0.00000  Uiso   1.00
H280   H     0.03738   0.42746   0.23745   0.00000  Uiso   1.00
N281   N     0.16667   0.61907   0.25000   0.00000  Uiso   1.00
N282   N     0.16667   0.38093   0.25000   0.00000  Uiso   1.00
N283   N     0.17395   0.58457   0.11278   0.00000  Uiso   1.00
N284   N     0.22706   0.44567   0.38130   0.00000  Uiso   1.00
N285   N     0.10969   0.55397   0.38516   0.00000  Uiso   1.00
N286   N     0.16502   0.41537   0.11312   0.00000  Uiso   1.00
O287   O     0.10559   0.53821   0.24999   0.00000  Uiso   1.00
O288   O     0.22774   0.46179   0.25000   0.00000  Uiso   1.00
O289   O     0.22774   0.53821   0.25000   0.00000  Uiso   1.00
O290   O     0.10559   0.46179   0.24999   0.00000  Uiso   1.00
O291   O     0.16666   0.53822   0.18453   0.00000  Uiso   1.00
O292   O     0.16667   0.46178   0.31547   0.00000  Uiso   1.00
O293   O     0.16667   0.53822   0.31547   0.00000  Uiso   1.00
O294   O     0.16666   0.46178   0.18453   0.00000  Uiso   1.00
Zn295  Zn    0.16667   0.55104   0.25000   0.00000  Uiso   1.00
Zn296  Zn    0.16667   0.44896   0.25000   0.00000  Uiso   1.00
C297   C     0.41993   0.49998   0.25002   0.00000  Uiso   1.00
C298   C     0.64543   0.54071   0.25757   0.00000  Uiso   1.00
C299   C     0.64530   0.45920   0.24317   0.00000  Uiso   1.00
C300   C     0.35470   0.54069   0.25755   0.00000  Uiso   1.00
C301   C     0.50871   0.54088   0.04528   0.00000  Uiso   1.00
C302   C     0.53244   0.47249   0.45139   0.00000  Uiso   1.00
C303   C     0.47618   0.52765   0.45315   0.00000  Uiso   1.00
C304   C     0.50289   0.45891   0.04529   0.00000  Uiso   1.00
C305   C     0.50620   0.54164   0.09119   0.00000  Uiso   1.00
C306   C     0.53130   0.47244   0.40537   0.00000  Uiso   1.00
C307   C     0.47375   0.52724   0.40721   0.00000  Uiso   1.00
C308   C     0.58007   0.50002   0.24993   0.00000  Uiso   1.00
C309   C     0.50162   0.45823   0.09130   0.00000  Uiso   1.00
C310   C     0.50259   0.50000   0.11495   0.00000  Uiso   1.00
C311   C     0.50164   0.49973   0.38343   0.00000  Uiso   1.00
C312   C     0.50628   0.49994   0.02268   0.00000  Uiso   1.00
C313   C     0.50521   0.50023   0.47492   0.00000  Uiso   1.00
C314   C     0.62420   0.49999   0.25019   0.00000  Uiso   1.00
C315   C     0.37580   0.49994   0.25029   0.00000  Uiso   1.00
C316   C     0.46746   0.60739   0.11376   0.00000  Uiso   1.00
C317   C     0.59682   0.47041   0.36667   0.00000  Uiso   1.00
C318   C     0.40620   0.52895   0.37216   0.00000  Uiso   1.00
C319   C     0.50047   0.50004   0.16354   0.00000  Uiso   1.00
C320   C     0.53793   0.39346   0.12130   0.00000  Uiso   1.00
C321   C     0.50023   0.49992   0.33587   0.00000  Uiso   1.00
C322   C     0.53049   0.35732   0.27166   0.00000  Uiso   1.00
C323   C     0.46936   0.64269   0.22862   0.00000  Uiso   1.00
C324   C     0.46948   0.35737   0.22841   0.00000  Uiso   1.00
C325   C     0.53053   0.64263   0.27160   0.00000  Uiso   1.00
C326   C     0.35456   0.45917   0.24324   0.00000  Uiso   1.00
H327   H     0.55480   0.37555   0.28903   0.00000  Uiso   1.00
H328   H     0.62926   0.57239   0.26345   0.00000  Uiso   1.00
H329   H     0.62903   0.42750   0.23735   0.00000  Uiso   1.00
H330   H     0.37097   0.57238   0.26341   0.00000  Uiso   1.00
H331   H     0.53051   0.60560   0.10102   0.00000  Uiso   1.00
H332   H     0.45666   0.61510   0.07945   0.00000  Uiso   1.00
H333   H     0.47052   0.63985   0.13209   0.00000  Uiso   1.00
H334   H     0.44395   0.58589   0.13087   0.00000  Uiso   1.00
H335   H     0.56815   0.41562   0.39696   0.00000  Uiso   1.00
H336   H     0.61568   0.48123   0.39577   0.00000  Uiso   1.00
H337   H     0.58777   0.50083   0.34702   0.00000  Uiso   1.00
H338   H     0.44481   0.62448   0.21167   0.00000  Uiso   1.00
H339   H     0.61613   0.44819   0.34529   0.00000  Uiso   1.00
H340   H     0.43571   0.58359   0.40160   0.00000  Uiso   1.00
H341   H     0.38963   0.51613   0.40206   0.00000  Uiso   1.00
H342   H     0.41447   0.49989   0.35052   0.00000  Uiso   1.00
H343   H     0.38497   0.55168   0.35330   0.00000  Uiso   1.00
H344   H     0.47733   0.39364   0.09828   0.00000  Uiso   1.00
H345   H     0.55269   0.38373   0.08936   0.00000  Uiso   1.00
H346   H     0.53296   0.36235   0.14157   0.00000  Uiso   1.00
H347   H     0.55915   0.41642   0.13990   0.00000  Uiso   1.00
H348   H     0.44516   0.37562   0.21105   0.00000  Uiso   1.00
H349   H     0.55487   0.62437   0.28890   0.00000  Uiso   1.00
H350   H     0.51160   0.57257   0.02706   0.00000  Uiso   1.00
H351   H     0.55513   0.45178   0.46880   0.00000  Uiso   1.00
H352   H     0.45466   0.54834   0.47198   0.00000  Uiso   1.00
H353   H     0.50084   0.42725   0.02710   0.00000  Uiso   1.00
H354   H     0.37071   0.42746   0.23745   0.00000  Uiso   1.00
N355   N     0.50000   0.61907   0.25000   0.00000  Uiso   1.00
N356   N     0.50000   0.38093   0.25000   0.00000  Uiso   1.00
N357   N     0.50728   0.58457   0.11278   0.00000  Uiso   1.00
N358   N     0.56039   0.44567   0.38130   0.00000  Uiso   1.00
N359   N     0.44303   0.55397   0.38516   0.00000  Uiso   1.00
N360   N     0.49836   0.41537   0.11312   0.00000  Uiso   1.00
O361   O     0.43892   0.53821   0.24999   0.00000  Uiso   1.00
O362   O     0.56108   0.46179   0.25000   0.00000  Uiso   1.00
O363   O     0.56108   0.53821   0.25000   0.00000  Uiso   1.00
O364   O     0.43892   0.46179   0.24999   0.00000  Uiso   1.00
O365   O     0.50000   0.53822   0.18453   0.00000  Uiso   1.00
O366   O     0.50000   0.46178   0.31547   0.00000  Uiso   1.00
O367   O     0.50000   0.53822   0.31547   0.00000  Uiso   1.00
O368   O     0.50000   0.46178   0.18453   0.00000  Uiso   1.00
Zn369  Zn    0.50000   0.55104   0.25000   0.00000  Uiso   1.00
Zn370  Zn    0.50000   0.44896   0.25000   0.00000  Uiso   1.00
C371   C     0.75326   0.49998   0.25002   0.00000  Uiso   1.00
C372   C     0.97876   0.54071   0.25757   0.00000  Uiso   1.00
C373   C     0.97863   0.45920   0.24317   0.00000  Uiso   1.00
C374   C     0.68803   0.54069   0.25755   0.00000  Uiso   1.00
C375   C     0.84204   0.54088   0.04528   0.00000  Uiso   1.00
C376   C     0.86577   0.47249   0.45139   0.00000  Uiso   1.00
C377   C     0.80951   0.52765   0.45315   0.00000  Uiso   1.00
C378   C     0.83622   0.45891   0.04529   0.00000  Uiso   1.00
C379   C     0.83954   0.54164   0.09119   0.00000  Uiso   1.00
C380   C     0.86463   0.47244   0.40537   0.00000  Uiso   1.00
C381   C     0.80709   0.52724   0.40721   0.00000  Uiso   1.00
C382   C     0.91340   0.50002   0.24993   0.00000  Uiso   1.00
C383   C     0.83495   0.45823   0.09130   0.00000  Uiso   1.00
C384   C     0.83592   0.50000   0.11495   0.00000  Uiso   1.00
C385   C     0.83497   0.49973   0.38343   0.00000  Uiso   1.00
C386   C     0.83961   0.49994   0.02268   0.00000  Uiso   1.00
C387   C     0.83855   0.50023   0.47492   0.00000  Uiso   1.00
C388   C     0.95753   0.49999   0.25019   0.00000  Uiso   1.00
C389   C     0.70913   0.49994   0.25029   0.00000  Uiso   1.00
C390   C     0.80079   0.60739   0.11376   0.00000  Uiso   1.00
C391   C     0.93015   0.47041   0.36667   0.00000  Uiso   1.00
C392   C     0.73953   0.52895   0.37216   0.00000  Uiso   1.00
C393   C     0.83380   0.50004   0.16354   0.00000  Uiso   1.00
C394   C     0.87126   0.39346   0.12130   0.00000  Uiso   1.00
C395   C     0.83357   0.49992   0.33587   0.00000  Uiso   1.00
C396   C     0.86383   0.35732   0.27166   0.00000  Uiso   1.00
C397   C     0.80269   0.64269   0.22862   0.00000  Uiso   1.00
C398   C     0.80281   0.35737   0.22841   0.00000  Uiso   1.00
C399   C     0.86386   0.64263   0.27160   0.00000  Uiso   1.00
C400   C     0.68789   0.45917   0.24324   0.00000  Uiso   1.00
H401   H     0.88813   0.37555   0.28903   0.00000  Uiso   1.00
H402   H     0.96260   0.57239   0.26345   0.00000  Uiso   1.00
H403   H     0.96236   0.42750   0.23735   0.00000  Uiso   1.00
H404   H     0.70431   0.57238   0.26341   0.00000  Uiso   1.00
H405   H     0.86384   0.60560   0.10102   0.00000  Uiso   1.00
H406   H     0.78999   0.61510   0.07945   0.00000  Uiso   1.00
H407   H     0.80385   0.63985   0.13209   0.00000  Uiso   1.00
H408   H     0.77728   0.58589   0.13087   0.00000  Uiso   1.00
H409   H     0.90149   0.41562   0.39696   0.00000  Uiso   1.00
H410   H     0.94901   0.48123   0.39577   0.00000  Uiso   1.00
H411   H     0.92110   0.50083   0.34702   0.00000  Uiso   1.00
H412   H     0.77814   0.62448   0.21167   0.00000  Uiso   1.00
H413   H     0.94946   0.44819   0.34529   0.00000  Uiso   1.00
H414   H     0.76904   0.58359   0.40160   0.00000  Uiso   1.00
H415   H     0.72297   0.51613   0.40206   0.00000  Uiso   1.00
H416   H     0.74780   0.49989   0.35052   0.00000  Uiso   1.00
H417   H     0.71831   0.55168   0.35330   0.00000  Uiso   1.00
H418   H     0.81066   0.39364   0.09828   0.00000  Uiso   1.00
H419   H     0.88603   0.38373   0.08936   0.00000  Uiso   1.00
H420   H     0.86629   0.36235   0.14157   0.00000  Uiso   1.00
H421   H     0.89249   0.41642   0.13990   0.00000  Uiso   1.00
H422   H     0.77849   0.37562   0.21105   0.00000  Uiso   1.00
H423   H     0.88821   0.62437   0.28890   0.00000  Uiso   1.00
H424   H     0.84493   0.57257   0.02706   0.00000  Uiso   1.00
H425   H     0.88846   0.45178   0.46880   0.00000  Uiso   1.00
H426   H     0.78799   0.54834   0.47198   0.00000  Uiso   1.00
H427   H     0.83417   0.42725   0.02710   0.00000  Uiso   1.00
H428   H     0.70405   0.42746   0.23745   0.00000  Uiso   1.00
N429   N     0.83333   0.61907   0.25000   0.00000  Uiso   1.00
N430   N     0.83333   0.38093   0.25000   0.00000  Uiso   1.00
N431   N     0.84062   0.58457   0.11278   0.00000  Uiso   1.00
N432   N     0.89372   0.44567   0.38130   0.00000  Uiso   1.00
N433   N     0.77636   0.55397   0.38516   0.00000  Uiso   1.00
N434   N     0.83169   0.41537   0.11312   0.00000  Uiso   1.00
O435   O     0.77226   0.53821   0.24999   0.00000  Uiso   1.00
O436   O     0.89441   0.46179   0.25000   0.00000  Uiso   1.00
O437   O     0.89441   0.53821   0.25000   0.00000  Uiso   1.00
O438   O     0.77226   0.46179   0.24999   0.00000  Uiso   1.00
O439   O     0.83333   0.53822   0.18453   0.00000  Uiso   1.00
O440   O     0.83334   0.46178   0.31547   0.00000  Uiso   1.00
O441   O     0.83334   0.53822   0.31547   0.00000  Uiso   1.00
O442   O     0.83333   0.46178   0.18453   0.00000  Uiso   1.00
Zn443  Zn    0.83333   0.55104   0.25000   0.00000  Uiso   1.00
Zn444  Zn    0.83333   0.44896   0.25000   0.00000  Uiso   1.00
C445   C     0.08660   0.83331   0.25002   0.00000  Uiso   1.00
C446   C     0.31210   0.87404   0.25757   0.00000  Uiso   1.00
C447   C     0.31196   0.79253   0.24317   0.00000  Uiso   1.00
C448   C     0.02136   0.87403   0.25755   0.00000  Uiso   1.00
C449   C     0.17537   0.87421   0.04528   0.00000  Uiso   1.00
C450   C     0.19911   0.80582   0.45139   0.00000  Uiso   1.00
C451   C     0.14285   0.86099   0.45315   0.00000  Uiso   1.00
C452   C     0.16956   0.79224   0.04529   0.00000  Uiso   1.00
C453   C     0.17287   0.87497   0.09119   0.00000  Uiso   1.00
C454   C     0.19797   0.80578   0.40537   0.00000  Uiso   1.00
C455   C     0.14042   0.86057   0.40721   0.00000  Uiso   1.00
C456   C     0.24673   0.83335   0.24993   0.00000  Uiso   1.00
C457   C     0.16828   0.79156   0.09130   0.00000  Uiso   1.00
C458   C     0.16926   0.83334   0.11495   0.00000  Uiso   1.00
C459   C     0.16831   0.83306   0.38343   0.00000  Uiso   1.00
C460   C     0.17294   0.83327   0.02268   0.00000  Uiso   1.00
C461   C     0.17188   0.83356   0.47492   0.00000  Uiso   1.00
C462   C     0.29086   0.83333   0.25019   0.00000  Uiso   1.00
C463   C     0.04246   0.83327   0.25029   0.00000  Uiso   1.00
C464   C     0.13412   0.94072   0.11376   0.00000  Uiso   1.00
C465   C     0.26348   0.80374   0.36667   0.00000  Uiso   1.00
C466   C     0.07287   0.86229   0.37216   0.00000  Uiso   1.00
C467   C     0.16713   0.83337   0.16354   0.00000  Uiso   1.00
C468   C     0.20460   0.72679   0.12130   0.00000  Uiso   1.00
C469   C     0.16690   0.83325   0.33587   0.00000  Uiso   1.00
C470   C     0.19716   0.69066   0.27166   0.00000  Uiso   1.00
C471   C     0.13603   0.97602   0.22862   0.00000  Uiso   1.00
C472   C     0.13614   0.69070   0.22841   0.00000  Uiso   1.00
C473   C     0.19719   0.97596   0.27160   0.00000  Uiso   1.00
C474   C     0.02123   0.79250   0.24324   0.00000  Uiso   1.00
H475   H     0.22147   0.70888   0.28903   0.00000  Uiso   1.00
H476   H     0.29593   0.90572   0.26345   0.00000  Uiso   1.00
H477   H     0.29570   0.76083   0.23735   0.00000  Uiso   1.00
H478   H     0.03764   0.90571   0.26341   0.00000  Uiso   1.00
H479   H     0.19718   0.93894   0.10102   0.00000  Uiso   1.00
H480   H     0.12333   0.94843   0.07945   0.00000  Uiso   1.00
H481   H     0.13719   0.97319   0.13209   0.00000  Uiso   1.00
H482   H     0.11061   0.91922   0.13087   0.00000  Uiso   1.00
H483   H     0.23482   0.74895   0.39696   0.00000  Uiso   1.00
H484   H     0.28234   0.81456   0.39577   0.00000  Uiso   1.00
H485   H     0.25443   0.83416   0.34702   0.00000  Uiso   1.00
H486   H     0.11148   0.95781   0.21167   0.00000  Uiso   1.00
H487   H     0.28280   0.78152   0.34529   0.00000  Uiso   1.00
H488   H     0.10238   0.91693   0.40160   0.00000  Uiso   1.00
H489   H     0.05630   0.84947   0.40206   0.00000  Uiso   1.00
H490   H     0.08113   0.83322   0.35052   0.00000  Uiso   1.00
H491   H     0.05164   0.88501   0.35330   0.00000  Uiso   1.00
H492   H     0.14400   0.72698   0.09828   0.00000  Uiso   1.00
H493   H     0.21936   0.71706   0.08936   0.00000  Uiso   1.00
H494   H     0.19963   0.69569   0.14157   0.00000  Uiso   1.00
H495   H     0.22582   0.74975   0.13990   0.00000  Uiso   1.00
H496   H     0.11182   0.70895   0.21105   0.00000  Uiso   1.00
H497   H     0.22154   0.95771   0.28890   0.00000  Uiso   1.00
H498   H     0.17826   0.90590   0.02706   0.00000  Uiso   1.00
H499   H     0.22180   0.78512   0.46880   0.00000  Uiso   1.00
H500   H     0.12133   0.88167   0.47198   0.00000  Uiso   1.00
H501   H     0.16750   0.76058   0.02710   0.00000  Uiso   1.00
H502   H     0.03738   0.76079   0.23745   0.00000  Uiso   1.00
N503   N     0.16667   0.95240   0.25000   0.00000  Uiso   1.00
N504   N     0.16667   0.71427   0.25000   0.00000  Uiso   1.00
N505   N     0.17395   0.91790   0.11278   0.00000  Uiso   1.00
N506   N     0.22706   0.77900   0.38130   0.00000  Uiso   1.00
N507   N     0.10969   0.88730   0.38516   0.00000  Uiso   1.00
N508   N     0.16502   0.74870   0.11312   0.00000  Uiso   1.00
O509   O     0.10559   0.87154   0.24999   0.00000  Uiso   1.00
O510   O     0.22774   0.79513   0.25000   0.00000  Uiso   1.00
O511   O     0.22774   0.87154   0.25000   0.00000  Uiso   1.00
O512   O     0.10559   0.79513   0.24999   0.00000  Uiso   1.00
O513   O     0.16666   0.87155   0.18453   0.00000  Uiso   1.00
O514   O     0.16667   0.79511   0.31547   0.00000  Uiso   1.00
O515   O     0.16667   0.87155   0.31547   0.00000  Uiso   1.00
O516   O     0.16666   0.79511   0.18453   0.00000  Uiso   1.00
Zn517  Zn    0.16667   0.88437   0.25000   0.00000  Uiso   1.00
Zn518  Zn    0.16667   0.78229   0.25000   0.00000  Uiso   1.00
C519   C     0.41993   0.83331   0.25002   0.00000  Uiso   1.00
C520   C     0.64543   0.87404   0.25757   0.00000  Uiso   1.00
C521   C     0.64530   0.79253   0.24317   0.00000  Uiso   1.00
C522   C     0.35470   0.87403   0.25755   0.00000  Uiso   1.00
C523   C     0.50871   0.87421   0.04528   0.00000  Uiso   1.00
C524   C     0.53244   0.80582   0.45139   0.00000  Uiso   1.00
C525   C     0.47618   0.86099   0.45315   0.00000  Uiso   1.00
C526   C     0.50289   0.79224   0.04529   0.00000  Uiso   1.00
C527   C     0.50620   0.87497   0.09119   0.00000  Uiso   1.00
C528   C     0.53130   0.80578   0.40537   0.00000  Uiso   1.00
C529   C     0.47375   0.86057   0.40721   0.00000  Uiso   1.00
C530   C     0.58007   0.83335   0.24993   0.00000  Uiso   1.00
C531   C     0.50162   0.79156   0.09130   0.00000  Uiso   1.00
C532   C     0.50259   0.83334   0.11495   0.00000  Uiso   1.00
C533   C     0.50164   0.83306   0.38343   0.00000  Uiso   1.00
C534   C     0.50628   0.83327   0.02268   0.00000  Uiso   1.00
C535   C     0.50521   0.83356   0.47492   0.00000  Uiso   1.00
C536   C     0.62420   0.83333   0.25019   0.00000  Uiso   1.00
C537   C     0.37580   0.83327   0.25029   0.00000  Uiso   1.00
C538   C     0.46746   0.94072   0.11376   0.00000  Uiso   1.00
C539   C     0.59682   0.80374   0.36667   0.00000  Uiso   1.00
C540   C     0.40620   0.86229   0.37216   0.00000  Uiso   1.00
C541   C     0.50047   0.83337   0.16354   0.00000  Uiso   1.00
C542   C     0.53793   0.72679   0.12130   0.00000  Uiso   1.00
C543   C     0.50023   0.83325   0.33587   0.00000  Uiso   1.00
C544   C     0.53049   0.69066   0.27166   0.00000  Uiso   1.00
C545   C     0.46936   0.97602   0.22862   0.00000  Uiso   1.00
C546   C     0.46948   0.69070   0.22841   0.00000  Uiso   1.00
C547   C     0.53053   0.97596   0.27160   0.00000  Uiso   1.00
C548   C     0.35456   0.79250   0.24324   0.00000  Uiso   1.00
H549   H     0.55480   0.70888   0.28903   0.00000  Uiso   1.00
H550   H     0.62926   0.90572   0.26345   0.00000  Uiso   1.00
H551   H     0.62903   0.76083   0.23735   0.00000  Uiso   1.00
H552   H     0.37097   0.90571   0.26341   0.00000  Uiso   1.00
H553   H     0.53051   0.93894   0.10102   0.00000  Uiso   1.00
H554   H     0.45666   0.94843   0.07945   0.00000  Uiso   1.00
H555   H     0.47052   0.97319   0.13209   0.00000  Uiso   1.00
H556   H     0.44395   0.91922   0.13087   0.00000  Uiso   1.00
H557   H     0.56815   0.74895   0.39696   0.00000  Uiso   1.00
H558   H     0.61568   0.81456   0.39577   0.00000  Uiso   1.00
H559   H     0.58777   0.83416   0.34702   0.00000  Uiso   1.00
H560   H     0.44481   0.95781   0.21167   0.00000  Uiso   1.00
H561   H     0.61613   0.78152   0.34529   0.00000  Uiso   1.00
H562   H     0.43571   0.91693   0.40160   0.00000  Uiso   1.00
H563   H     0.38963   0.84947   0.40206   0.00000  Uiso   1.00
H564   H     0.41447   0.83322   0.35052   0.00000  Uiso   1.00
H565   H     0.38497   0.88501   0.35330   0.00000  Uiso   1.00
H566   H     0.47733   0.72698   0.09828   0.00000  Uiso   1.00
H567   H     0.55269   0.71706   0.08936   0.00000  Uiso   1.00
H568   H     0.53296   0.69569   0.14157   0.00000  Uiso   1.00
H569   H     0.55915   0.74975   0.13990   0.00000  Uiso   1.00
H570   H     0.44516   0.70895   0.21105   0.00000  Uiso   1.00
H571   H     0.55487   0.95771   0.28890   0.00000  Uiso   1.00
H572   H     0.51160   0.90590   0.02706   0.00000  Uiso   1.00
H573   H     0.55513   0.78512   0.46880   0.00000  Uiso   1.00
H574   H     0.45466   0.88167   0.47198   0.00000  Uiso   1.00
H575   H     0.50084   0.76058   0.02710   0.00000  Uiso   1.00
H576   H     0.37071   0.76079   0.23745   0.00000  Uiso   1.00
N577   N     0.50000   0.95240   0.25000   0.00000  Uiso   1.00
N578   N     0.50000   0.71427   0.25000   0.00000  Uiso   1.00
N579   N     0.50728   0.91790   0.11278   0.00000  Uiso   1.00
N580   N     0.56039   0.77900   0.38130   0.00000  Uiso   1.00
N581   N     0.44303   0.88730   0.38516   0.00000  Uiso   1.00
N582   N     0.49836   0.74870   0.11312   0.00000  Uiso   1.00
O583   O     0.43892   0.87154   0.24999   0.00000  Uiso   1.00
O584   O     0.56108   0.79513   0.25000   0.00000  Uiso   1.00
O585   O     0.56108   0.87154   0.25000   0.00000  Uiso   1.00
O586   O     0.43892   0.79513   0.24999   0.00000  Uiso   1.00
O587   O     0.50000   0.87155   0.18453   0.00000  Uiso   1.00
O588   O     0.50000   0.79511   0.31547   0.00000  Uiso   1.00
O589   O     0.50000   0.87155   0.31547   0.00000  Uiso   1.00
O590   O     0.50000   0.79511   0.18453   0.00000  Uiso   1.00
Zn591  Zn    0.50000   0.88437   0.25000   0.00000  Uiso   1.00
Zn592  Zn    0.50000   0.78229   0.25000   0.00000  Uiso   1.00
C593   C     0.75326   0.83331   0.25002   0.00000  Uiso   1.00
C594   C     0.97876   0.87404   0.25757   0.00000  Uiso   1.00
C595   C     0.97863   0.79253   0.24317   0.00000  Uiso   1.00
C596   C     0.68803   0.87403   0.25755   0.00000  Uiso   1.00
C597   C     0.84204   0.87421   0.04528   0.00000  Uiso   1.00
C598   C     0.86577   0.80582   0.45139   0.00000  Uiso   1.00
C599   C     0.80951   0.86099   0.45315   0.00000  Uiso   1.00
C600   C     0.83622   0.79224   0.04529   0.00000  Uiso   1.00
C601   C     0.83954   0.87497   0.09119   0.00000  Uiso   1.00
C602   C     0.86463   0.80578   0.40537   0.00000  Uiso   1.00
C603   C     0.80709   0.86057   0.40721   0.00000  Uiso   1.00
C604   C     0.91340   0.83335   0.24993   0.00000  Uiso   1.00
C605   C     0.83495   0.79156   0.09130   0.00000  Uiso   1.00
C606   C     0.83592   0.83334   0.11495   0.00000  Uiso   1.00
C607   C     0.83497   0.83306   0.38343   0.00000  Uiso   1.00
C608   C     0.83961   0.83327   0.02268   0.00000  Uiso   1.00
C609   C     0.83855   0.83356   0.47492   0.00000  Uiso   1.00
C610   C     0.95753   0.83333   0.25019   0.00000  Uiso   1.00
C611   C     0.70913   0.83327   0.25029   0.00000  Uiso   1.00
C612   C     0.80079   0.94072   0.11376   0.00000  Uiso   1.00
C613   C     0.93015   0.80374   0.36667   0.00000  Uiso   1.00
C614   C     0.73953   0.86229   0.37216   0.00000  Uiso   1.00
C615   C     0.83380   0.83337   0.16354   0.00000  Uiso   1.00
C616   C     0.87126   0.72679   0.12130   0.00000  Uiso   1.00
C617   C     0.83357   0.83325   0.33587   0.00000  Uiso   1.00
C618   C     0.86383   0.69066   0.27166   0.00000  Uiso   1.00
C619   C     0.80269   0.97602   0.22862   0.00000  Uiso   1.00
C620   C     0.80281   0.69070   0.22841   0.00000  Uiso   1.00
C621   C     0.86386   0.97596   0.27160   0.00000  Uiso   1.00
C622   C     0.68789   0.79250   0.24324   0.00000  Uiso   1.00
H623   H     0.88813   0.70888   0.28903   0.00000  Uiso   1.00
H624   H     0.96260   0.90572   0.26345   0.00000  Uiso   1.00
H625   H     0.96236   0.76083   0.23735   0.00000  Uiso   1.00
H626   H     0.70431   0.90571   0.26341   0.00000  Uiso   1.00
H627   H     0.86384   0.93894   0.10102   0.00000  Uiso   1.00
H628   H     0.78999   0.94843   0.07945   0.00000  Uiso   1.00
H629   H     0.80385   0.97319   0.13209   0.00000  Uiso   1.00
H630   H     0.77728   0.91922   0.13087   0.00000  Uiso   1.00
H631   H     0.90149   0.74895   0.39696   0.00000  Uiso   1.00
H632   H     0.94901   0.81456   0.39577   0.00000  Uiso   1.00
H633   H     0.92110   0.83416   0.34702   0.00000  Uiso   1.00
H634   H     0.77814   0.95781   0.21167   0.00000  Uiso   1.00
H635   H     0.94946   0.78152   0.34529   0.00000  Uiso   1.00
H636   H     0.76904   0.91693   0.40160   0.00000  Uiso   1.00
H637   H     0.72297   0.84947   0.40206   0.00000  Uiso   1.00
H638   H     0.74780   0.83322   0.35052   0.00000  Uiso   1.00
H639   H     0.71831   0.88501   0.35330   0.00000  Uiso   1.00
H640   H     0.81066   0.72698   0.09828   0.00000  Uiso   1.00
H641   H     0.88603   0.71706   0.08936   0.00000  Uiso   1.00
H642   H     0.86629   0.69569   0.14157   0.00000  Uiso   1.00
H643   H     0.89249   0.74975   0.13990   0.00000  Uiso   1.00
H644   H     0.77849   0.70895   0.21105   0.00000  Uiso   1.00
H645   H     0.88821   0.95771   0.28890   0.00000  Uiso   1.00
H646   H     0.84493   0.90590   0.02706   0.00000  Uiso   1.00
H647   H     0.88846   0.78512   0.46880   0.00000  Uiso   1.00
H648   H     0.78799   0.88167   0.47198   0.00000  Uiso   1.00
H649   H     0.83417   0.76058   0.02710   0.00000  Uiso   1.00
H650   H     0.70405   0.76079   0.23745   0.00000  Uiso   1.00
N651   N     0.83333   0.95240   0.25000   0.00000  Uiso   1.00
N652   N     0.83333   0.71427   0.25000   0.00000  Uiso   1.00
N653   N     0.84062   0.91790   0.11278   0.00000  Uiso   1.00
N654   N     0.89372   0.77900   0.38130   0.00000  Uiso   1.00
N655   N     0.77636   0.88730   0.38516   0.00000  Uiso   1.00
N656   N     0.83169   0.74870   0.11312   0.00000  Uiso   1.00
O657   O     0.77226   0.87154   0.24999   0.00000  Uiso   1.00
O658   O     0.89441   0.79513   0.25000   0.00000  Uiso   1.00
O659   O     0.89441   0.87154   0.25000   0.00000  Uiso   1.00
O660   O     0.77226   0.79513   0.24999   0.00000  Uiso   1.00
O661   O     0.83333   0.87155   0.18453   0.00000  Uiso   1.00
O662   O     0.83334   0.79511   0.31547   0.00000  Uiso   1.00
O663   O     0.83334   0.87155   0.31547   0.00000  Uiso   1.00
O664   O     0.83333   0.79511   0.18453   0.00000  Uiso   1.00
Zn665  Zn    0.83333   0.88437   0.25000   0.00000  Uiso   1.00
Zn666  Zn    0.83333   0.78229   0.25000   0.00000  Uiso   1.00
C667   C     0.08660   0.16665   0.75002   0.00000  Uiso   1.00
C668   C     0.31210   0.20737   0.75757   0.00000  Uiso   1.00
C669   C     0.31196   0.12586   0.74317   0.00000  Uiso   1.00
C670   C     0.02136   0.20736   0.75755   0.00000  Uiso   1.00
C671   C     0.17537   0.20754   0.54528   0.00000  Uiso   1.00
C672   C     0.19911   0.13916   0.95139   0.00000  Uiso   1.00
C673   C     0.14285   0.19432   0.95315   0.00000  Uiso   1.00
C674   C     0.16956   0.12557   0.54529   0.00000  Uiso   1.00
C675   C     0.17287   0.20831   0.59119   0.00000  Uiso   1.00
C676   C     0.19797   0.13911   0.90537   0.00000  Uiso   1.00
C677   C     0.14042   0.19390   0.90721   0.00000  Uiso   1.00
C678   C     0.24673   0.16668   0.74993   0.00000  Uiso   1.00
C679   C     0.16828   0.12489   0.59130   0.00000  Uiso   1.00
C680   C     0.16926   0.16667   0.61495   0.00000  Uiso   1.00
C681   C     0.16831   0.16639   0.88343   0.00000  Uiso   1.00
C682   C     0.17294   0.16660   0.52268   0.00000  Uiso   1.00
C683   C     0.17188   0.16689   0.97492   0.00000  Uiso   1.00
C684   C     0.29086   0.16666   0.75019   0.00000  Uiso   1.00
C685   C     0.04246   0.16661   0.75029   0.00000  Uiso   1.00
C686   C     0.13412   0.27405   0.61376   0.00000  Uiso   1.00
C687   C     0.26348   0.13707   0.86667   0.00000  Uiso   1.00
C688   C     0.07287   0.19562   0.87216   0.00000  Uiso   1.00
C689   C     0.16713   0.16671   0.66354   0.00000  Uiso   1.00
C690   C     0.20460   0.06013   0.62130   0.00000  Uiso   1.00
C691   C     0.16690   0.16659   0.83587   0.00000  Uiso   1.00
C692   C     0.19716   0.02399   0.77166   0.00000  Uiso   1.00
C693   C     0.13603   0.30936   0.72862   0.00000  Uiso   1.00
C694   C     0.13614   0.02404   0.72841   0.00000  Uiso   1.00
C695   C     0.19719   0.30930   0.77160   0.00000  Uiso   1.00
C696   C     0.02123   0.12583   0.74324   0.00000  Uiso   1.00
H697   H     0.22147   0.04221   0.78903   0.00000  Uiso   1.00
H698   H     0.29593   0.23906   0.76345   0.00000  Uiso   1.00
H699   H     0.29570   0.09417   0.73735   0.00000  Uiso   1.00
H700   H     0.03764   0.23904   0.76341   0.00000  Uiso   1.00
H701   H     0.19718   0.27227   0.60102   0.00000  Uiso   1.00
H702   H     0.12333   0.28176   0.57945   0.00000  Uiso   1.00
H703   H     0.13719   0.30652   0.63209   0.00000  Uiso   1.00
H704   H     0.11061   0.25256   0.63087   0.00000  Uiso   1.00
H705   H     0.23482   0.08229   0.89696   0.00000  Uiso   1.00
H706   H     0.28234   0.14790   0.89577   0.00000  Uiso   1.00
H707   H     0.25443   0.16749   0.84702   0.00000  Uiso   1.00
H708   H     0.11148   0.29115   0.71167   0.00000  Uiso   1.00
H709   H     0.28280   0.11485   0.84529   0.00000  Uiso   1.00
H710   H     0.10238   0.25026   0.90160   0.00000  Uiso   1.00
H711   H     0.05630   0.18280   0.90206   0.00000  Uiso   1.00
H712   H     0.08113   0.16655   0.85052   0.00000  Uiso   1.00
H713   H     0.05164   0.21835   0.85330   0.00000  Uiso   1.00
H714   H     0.14400   0.06031   0.59828   0.00000  Uiso   1.00
H715   H     0.21936   0.05039   0.58936   0.00000  Uiso   1.00
H716   H     0.19963   0.02902   0.64157   0.00000  Uiso   1.00
H717   H     0.22582   0.08309   0.63990   0.00000  Uiso   1.00
H718   H     0.11182   0.04229   0.71105   0.00000  Uiso   1.00
H719   H     0.22154   0.29104   0.78890   0.00000  Uiso   1.00
H720   H     0.17826   0.23924   0.52706   0.00000  Uiso   1.00
H721   H     0.22180   0.11845   0.96880   0.00000  Uiso   1.00
H722   H     0.12133   0.21500   0.97198   0.00000  Uiso   1.00
H723   H     0.16750   0.09391   0.52710   0.00000  Uiso   1.00
H724   H     0.03738   0.09413   0.73745   0.00000  Uiso   1.00
N725   N     0.16667   0.28573   0.75000   0.00000  Uiso   1.00
N726   N     0.16667   0.04760   0.75000   0.00000  Uiso   1.00
N727   N     0.17395   0.25123   0.61278   0.00000  Uiso   1.00
N728   N     0.22706   0.11234   0.88130   0.00000  Uiso   1.00
N729   N     0.10969   0.22064   0.88516   0.00000  Uiso   1.00
N730   N     0.16502   0.08204   0.61312   0.00000  Uiso   1.00
O731   O     0.10559   0.20487   0.74999   0.00000  Uiso   1.00
O732   O     0.22774   0.12846   0.75000   0.00000  Uiso   1.00
O733   O     0.22774   0.20487   0.75000   0.00000  Uiso   1.00
O734   O     0.10559   0.12846   0.74999   0.00000  Uiso   1.00
O735   O     0.16666   0.20489   0.68453   0.00000  Uiso   1.00
O736   O     0.16667   0.12845   0.81547   0.00000  Uiso   1.00
O737   O     0.16667   0.20489   0.81547   0.00000  Uiso   1.00
O738   O     0.16666   0.12845   0.68453   0.00000  Uiso   1.00
Zn739  Zn    0.16667   0.21771   0.75000   0.00000  Uiso   1.00
Zn740  Zn    0.16667   0.11563   0.75000   0.00000  Uiso   1.00
C741   C     0.41993   0.16665   0.75002   0.00000  Uiso   1.00
C742   C     0.64543   0.20737   0.75757   0.00000  Uiso   1.00
C743   C     0.64530   0.12586   0.74317   0.00000  Uiso   1.00
C744   C     0.35470   0.20736   0.75755   0.00000  Uiso   1.00
C745   C     0.50871   0.20754   0.54528   0.00000  Uiso   1.00
C746   C     0.53244   0.13916   0.95139   0.00000  Uiso   1.00
C747   C     0.47618   0.19432   0.95315   0.00000  Uiso   1.00
C748   C     0.50289   0.12557   0.54529   0.00000  Uiso   1.00
C749   C     0.50620   0.20831   0.59119   0.00000  Uiso   1.00
C750   C     0.53130   0.13911   0.90537   0.00000  Uiso   1.00
C751   C     0.47375   0.19390   0.90721   0.00000  Uiso   1.00
C752   C     0.58007   0.16668   0.74993   0.00000  Uiso   1.00
C753   C     0.50162   0.12489   0.59130   0.00000  Uiso   1.00
C754   C     0.50259   0.16667   0.61495   0.00000  Uiso   1.00
C755   C     0.50164   0.16639   0.88343   0.00000  Uiso   1.00
C756   C     0.50628   0.16660   0.52268   0.00000  Uiso   1.00
C757   C     0.50521   0.16689   0.97492   0.00000  Uiso   1.00
C758   C     0.62420   0.16666   0.75019   0.00000  Uiso   1.00
C759   C     0.37580   0.16661   0.75029   0.00000  Uiso   1.00
C760   C     0.46746   0.27405   0.61376   0.00000  Uiso   1.00
C761   C     0.59682   0.13707   0.86667   0.00000  Uiso   1.00
C762   C     0.40620   0.19562   0.87216   0.00000  Uiso   1.00
C763   C     0.50047   0.16671   0.66354   0.00000  Uiso   1.00
C764   C     0.53793   0.06013   0.62130   0.00000  Uiso   1.00
C765   C     0.50023   0.16659   0.83587   0.00000  Uiso   1.00
C766   C     0.53049   0.02399   0.77166   0.00000  Uiso   1.00
C767   C     0.46936   0.30936   0.72862   0.00000  Uiso   1.00
C768   C     0.46948   0.02404   0.72841   0.00000  Uiso   1.00
C769   C     0.53053   0.30930   0.77160   0.00000  Uiso   1.00
C770   C     0.35456   0.12583   0.74324   0.00000  Uiso   1.00
H771   H     0.55480   0.04221   0.78903   0.00000  Uiso   1.00
H772   H     0.62926   0.23906   0.76345   0.00000  Uiso   1.00
H773   H     0.62903   0.09417   0.73735   0.00000  Uiso   1.00
H774   H     0.37097   0.23904   0.76341   0.00000  Uiso   1.00
H775   H     0.53051   0.27227   0.60102   0.00000  Uiso   1.00
H776   H     0.45666   0.28176   0.57945   0.00000  Uiso   1.00
H777   H     0.47052   0.30652   0.63209   0.00000  Uiso   1.00
H778   H     0.44395   0.25256   0.63087   0.00000  Uiso   1.00
H779   H     0.56815   0.08229   0.89696   0.00000  Uiso   1.00
H780   H     0.61568   0.14790   0.89577   0.00000  Uiso   1.00
H781   H     0.58777   0.16749   0.84702   0.00000  Uiso   1.00
H782   H     0.44481   0.29115   0.71167   0.00000  Uiso   1.00
H783   H     0.61613   0.11485   0.84529   0.00000  Uiso   1.00
H784   H     0.43571   0.25026   0.90160   0.00000  Uiso   1.00
H785   H     0.38963   0.18280   0.90206   0.00000  Uiso   1.00
H786   H     0.41447   0.16655   0.85052   0.00000  Uiso   1.00
H787   H     0.38497   0.21835   0.85330   0.00000  Uiso   1.00
H788   H     0.47733   0.06031   0.59828   0.00000  Uiso   1.00
H789   H     0.55269   0.05039   0.58936   0.00000  Uiso   1.00
H790   H     0.53296   0.02902   0.64157   0.00000  Uiso   1.00
H791   H     0.55915   0.08309   0.63990   0.00000  Uiso   1.00
H792   H     0.44516   0.04229   0.71105   0.00000  Uiso   1.00
H793   H     0.55487   0.29104   0.78890   0.00000  Uiso   1.00
H794   H     0.51160   0.23924   0.52706   0.00000  Uiso   1.00
H795   H     0.55513   0.11845   0.96880   0.00000  Uiso   1.00
H796   H     0.45466   0.21500   0.97198   0.00000  Uiso   1.00
H797   H     0.50084   0.09391   0.52710   0.00000  Uiso   1.00
H798   H     0.37071   0.09413   0.73745   0.00000  Uiso   1.00
N799   N     0.50000   0.28573   0.75000   0.00000  Uiso   1.00
N800   N     0.50000   0.04760   0.75000   0.00000  Uiso   1.00
N801   N     0.50728   0.25123   0.61278   0.00000  Uiso   1.00
N802   N     0.56039   0.11234   0.88130   0.00000  Uiso   1.00
N803   N     0.44303   0.22064   0.88516   0.00000  Uiso   1.00
N804   N     0.49836   0.08204   0.61312   0.00000  Uiso   1.00
O805   O     0.43892   0.20487   0.74999   0.00000  Uiso   1.00
O806   O     0.56108   0.12846   0.75000   0.00000  Uiso   1.00
O807   O     0.56108   0.20487   0.75000   0.00000  Uiso   1.00
O808   O     0.43892   0.12846   0.74999   0.00000  Uiso   1.00
O809   O     0.50000   0.20489   0.68453   0.00000  Uiso   1.00
O810   O     0.50000   0.12845   0.81547   0.00000  Uiso   1.00
O811   O     0.50000   0.20489   0.81547   0.00000  Uiso   1.00
O812   O     0.50000   0.12845   0.68453   0.00000  Uiso   1.00
Zn813  Zn    0.50000   0.21771   0.75000   0.00000  Uiso   1.00
Zn814  Zn    0.50000   0.11563   0.75000   0.00000  Uiso   1.00
C815   C     0.75326   0.16665   0.75002   0.00000  Uiso   1.00
C816   C     0.97876   0.20737   0.75757   0.00000  Uiso   1.00
C817   C     0.97863   0.12586   0.74317   0.00000  Uiso   1.00
C818   C     0.68803   0.20736   0.75755   0.00000  Uiso   1.00
C819   C     0.84204   0.20754   0.54528   0.00000  Uiso   1.00
C820   C     0.86577   0.13916   0.95139   0.00000  Uiso   1.00
C821   C     0.80951   0.19432   0.95315   0.00000  Uiso   1.00
C822   C     0.83622   0.12557   0.54529   0.00000  Uiso   1.00
C823   C     0.83954   0.20831   0.59119   0.00000  Uiso   1.00
C824   C     0.86463   0.13911   0.90537   0.00000  Uiso   1.00
C825   C     0.80709   0.19390   0.90721   0.00000  Uiso   1.00
C826   C     0.91340   0.16668   0.74993   0.00000  Uiso   1.00
C827   C     0.83495   0.12489   0.59130   0.00000  Uiso   1.00
C828   C     0.83592   0.16667   0.61495   0.00000  Uiso   1.00
C829   C     0.83497   0.16639   0.88343   0.00000  Uiso   1.00
C830   C     0.83961   0.16660   0.52268   0.00000  Uiso   1.00
C831   C     0.83855   0.16689   0.97492   0.00000  Uiso   1.00
C832   C     0.95753   0.16666   0.75019   0.00000  Uiso   1.00
C833   C     0.70913   0.16661   0.75029   0.00000  Uiso   1.00
C834   C     0.80079   0.27405   0.61376   0.00000  Uiso   1.00
C835   C     0.93015   0.13707   0.86667   0.00000  Uiso   1.00
C836   C     0.73953   0.19562   0.87216   0.00000  Uiso   1.00
C837   C     0.83380   0.16671   0.66354   0.00000  Uiso   1.00
C838   C     0.87126   0.06013   0.62130   0.00000  Uiso   1.00
C839   C     0.83357   0.16659   0.83587   0.00000  Uiso   1.00
C840   C     0.86383   0.02399   0.77166   0.00000  Uiso   1.00
C841   C     0.80269   0.30936   0.72862   0.00000  Uiso   1.00
C842   C     0.80281   0.02404   0.72841   0.00000  Uiso   1.00
C843   C     0.86386   0.30930   0.77160   0.00000  Uiso   1.00
C844   C     0.68789   0.12583   0.74324   0.00000  Uiso   1.00
H845   H     0.88813   0.04221   0.78903   0.00000  Uiso   1.00
H846   H     0.96260   0.23906   0.76345   0.00000  Uiso   1.00
H847   H     0.96236   0.09417   0.73735   0.00000  Uiso   1.00
H848   H     0.70431   0.23904   0.76341   0.00000  Uiso   1.00
H849   H     0.86384   0.27227   0.60102   0.00000  Uiso   1.00
H850   H     0.78999   0.28176   0.57945   0.00000  Uiso   1.00
H851   H     0.80385   0.30652   0.63209   0.00000  Uiso   1.00
H852   H     0.77728   0.25256   0.63087   0.00000  Uiso   1.00
H853   H     0.90149   0.08229   0.89696   0.00000  Uiso   1.00
H854   H     0.94901   0.14790   0.89577   0.00000  Uiso   1.00
H855   H     0.92110   0.16749   0.84702   0.00000  Uiso   1.00
H856   H     0.77814   0.29115   0.71167   0.00000  Uiso   1.00
H857   H     0.94946   0.11485   0.84529   0.00000  Uiso   1.00
H858   H     0.76904   0.25026   0.90160   0.00000  Uiso   1.00
H859   H     0.72297   0.18280   0.90206   0.00000  Uiso   1.00
H860   H     0.74780   0.16655   0.85052   0.00000  Uiso   1.00
H861   H     0.71831   0.21835   0.85330   0.00000  Uiso   1.00
H862   H     0.81066   0.06031   0.59828   0.00000  Uiso   1.00
H863   H     0.88603   0.05039   0.58936   0.00000  Uiso   1.00
H864   H     0.86629   0.02902   0.64157   0.00000  Uiso   1.00
H865   H     0.89249   0.08309   0.63990   0.00000  Uiso   1.00
H866   H     0.77849   0.04229   0.71105   0.00000  Uiso   1.00
H867   H     0.88821   0.29104   0.78890   0.00000  Uiso   1.00
H868   H     0.84493   0.23924   0.52706   0.00000  Uiso   1.00
H869   H     0.88846   0.11845   0.96880   0.00000  Uiso   1.00
H870   H     0.78799   0.21500   0.97198   0.00000  Uiso   1.00
H871   H     0.83417   0.09391   0.52710   0.00000  Uiso   1.00
H872   H     0.70405   0.09413   0.73745   0.00000  Uiso   1.00
N873   N     0.83333   0.28573   0.75000   0.00000  Uiso   1.00
N874   N     0.83333   0.04760   0.75000   0.00000  Uiso   1.00
N875   N     0.84062   0.25123   0.61278   0.00000  Uiso   1.00
N876   N     0.89372   0.11234   0.88130   0.00000  Uiso   1.00
N877   N     0.77636   0.22064   0.88516   0.00000  Uiso   1.00
N878   N     0.83169   0.08204   0.61312   0.00000  Uiso   1.00
O879   O     0.77226   0.20487   0.74999   0.00000  Uiso   1.00
O880   O     0.89441   0.12846   0.75000   0.00000  Uiso   1.00
O881   O     0.89441   0.20487   0.75000   0.00000  Uiso   1.00
O882   O     0.77226   0.12846   0.74999   0.00000  Uiso   1.00
O883   O     0.83333   0.20489   0.68453   0.00000  Uiso   1.00
O884   O     0.83334   0.12845   0.81547   0.00000  Uiso   1.00
O885   O     0.83334   0.20489   0.81547   0.00000  Uiso   1.00
O886   O     0.83333   0.12845   0.68453   0.00000  Uiso   1.00
Zn887  Zn    0.83333   0.21771   0.75000   0.00000  Uiso   1.00
Zn888  Zn    0.83333   0.11563   0.75000   0.00000  Uiso   1.00
C889   C     0.08660   0.49998   0.75002   0.00000  Uiso   1.00
C890   C     0.31210   0.54071   0.75757   0.00000  Uiso   1.00
C891   C     0.31196   0.45920   0.74317   0.00000  Uiso   1.00
C892   C     0.02136   0.54069   0.75755   0.00000  Uiso   1.00
C893   C     0.17537   0.54088   0.54528   0.00000  Uiso   1.00
C894   C     0.19911   0.47249   0.95139   0.00000  Uiso   1.00
C895   C     0.14285   0.52765   0.95315   0.00000  Uiso   1.00
C896   C     0.16956   0.45891   0.54529   0.00000  Uiso   1.00
C897   C     0.17287   0.54164   0.59119   0.00000  Uiso   1.00
C898   C     0.19797   0.47244   0.90537   0.00000  Uiso   1.00
C899   C     0.14042   0.52724   0.90721   0.00000  Uiso   1.00
C900   C     0.24673   0.50002   0.74993   0.00000  Uiso   1.00
C901   C     0.16828   0.45823   0.59130   0.00000  Uiso   1.00
C902   C     0.16926   0.50000   0.61495   0.00000  Uiso   1.00
C903   C     0.16831   0.49973   0.88343   0.00000  Uiso   1.00
C904   C     0.17294   0.49994   0.52268   0.00000  Uiso   1.00
C905   C     0.17188   0.50023   0.97492   0.00000  Uiso   1.00
C906   C     0.29086   0.49999   0.75019   0.00000  Uiso   1.00
C907   C     0.04246   0.49994   0.75029   0.00000  Uiso   1.00
C908   C     0.13412   0.60739   0.61376   0.00000  Uiso   1.00
C909   C     0.26348   0.47041   0.86667   0.00000  Uiso   1.00
C910   C     0.07287   0.52895   0.87216   0.00000  Uiso   1.00
C911   C     0.16713   0.50004   0.66354   0.00000  Uiso   1.00
C912   C     0.20460   0.39346   0.62130   0.00000  Uiso   1.00
C913   C     0.16690   0.49992   0.83587   0.00000  Uiso   1.00
C914   C     0.19716   0.35732   0.77166   0.00000  Uiso   1.00
C915   C     0.13603   0.64269   0.72862   0.00000  Uiso   1.00
C916   C     0.13614   0.35737   0.72841   0.00000  Uiso   1.00
C917   C     0.19719   0.64263   0.77160   0.00000  Uiso   1.00
C918   C     0.02123   0.45917   0.74324   0.00000  Uiso   1.00
H919   H     0.22147   0.37555   0.78903   0.00000  Uiso   1.00
H920   H     0.29593   0.57239   0.76345   0.00000  Uiso   1.00
H921   H     0.29570   0.42750   0.73735   0.00000  Uiso   1.00
H922   H     0.03764   0.57238   0.76341   0.00000  Uiso   1.00
H923   H     0.19718   0.60560   0.60102   0.00000  Uiso   1.00
H924   H     0.12333   0.61510   0.57945   0.00000  Uiso   1.00
H925   H     0.13719   0.63985   0.63209   0.00000  Uiso   1.00
H926   H     0.11061   0.58589   0.63087   0.00000  Uiso   1.00
H927   H     0.23482   0.41562   0.89696   0.00000  Uiso   1.00
H928   H     0.28234   0.48123   0.89577   0.00000  Uiso   1.00
H929   H     0.25443   0.50083   0.84702   0.00000  Uiso   1.00
H930   H     0.11148   0.62448   0.71167   0.00000  Uiso   1.00
H931   H     0.28280   0.44819   0.84529   0.00000  Uiso   1.00
H932   H     0.10238   0.58359   0.90160   0.00000  Uiso   1.00
H933   H     0.05630   0.51613   0.90206   0.00000  Uiso   1.00
H934   H     0.08113   0.49989   0.85052   0.00000  Uiso   1.00
H935   H     0.05164   0.55168   0.85330   0.00000  Uiso   1.00
H936   H     0.14400   0.39364   0.59828   0.00000  Uiso   1.00
H937   H     0.21936   0.38373   0.58936   0.00000  Uiso   1.00
H938   H     0.19963   0.36235   0.64157   0.00000  Uiso   1.00
H939   H     0.22582   0.41642   0.63990   0.00000  Uiso   1.00
H940   H     0.11182   0.37562   0.71105   0.00000  Uiso   1.00
H941   H     0.22154   0.62437   0.78890   0.00000  Uiso   1.00
H942   H     0.17826   0.57257   0.52706   0.00000  Uiso   1.00
H943   H     0.22180   0.45178   0.96880   0.00000  Uiso   1.00
H944   H     0.12133   0.54834   0.97198   0.00000  Uiso   1.00
H945   H     0.16750   0.42725   0.52710   0.00000  Uiso   1.00
H946   H     0.03738   0.42746   0.73745   0.00000  Uiso   1.00
N947   N     0.16667   0.61907   0.75000   0.00000  Uiso   1.00
N948   N     0.16667   0.38093   0.75000   0.00000  Uiso   1.00
N949   N     0.17395   0.58457   0.61278   0.00000  Uiso   1.00
N950   N     0.22706   0.44567   0.88130   0.00000  Uiso   1.00
N951   N     0.10969   0.55397   0.88516   0.00000  Uiso   1.00
N952   N     0.16502   0.41537   0.61312   0.00000  Uiso   1.00
O953   O     0.10559   0.53821   0.74999   0.00000  Uiso   1.00
O954   O     0.22774   0.46179   0.75000   0.00000  Uiso   1.00
O955   O     0.22774   0.53821   0.75000   0.00000  Uiso   1.00
O956   O     0.10559   0.46179   0.74999   0.00000  Uiso   1.00
O957   O     0.16666   0.53822   0.68453   0.00000  Uiso   1.00
O958   O     0.16667   0.46178   0.81547   0.00000  Uiso   1.00
O959   O     0.16667   0.53822   0.81547   0.00000  Uiso   1.00
O960   O     0.16666   0.46178   0.68453   0.00000  Uiso   1.00
Zn961  Zn    0.16667   0.55104   0.75000   0.00000  Uiso   1.00
Zn962  Zn    0.16667   0.44896   0.75000   0.00000  Uiso   1.00
C963   C     0.41993   0.49998   0.75002   0.00000  Uiso   1.00
C964   C     0.64543   0.54071   0.75757   0.00000  Uiso   1.00
C965   C     0.64530   0.45920   0.74317   0.00000  Uiso   1.00
C966   C     0.35470   0.54069   0.75755   0.00000  Uiso   1.00
C967   C     0.50871   0.54088   0.54528   0.00000  Uiso   1.00
C968   C     0.53244   0.47249   0.95139   0.00000  Uiso   1.00
C969   C     0.47618   0.52765   0.95315   0.00000  Uiso   1.00
C970   C     0.50289   0.45891   0.54529   0.00000  Uiso   1.00
C971   C     0.50620   0.54164   0.59119   0.00000  Uiso   1.00
C972   C     0.53130   0.47244   0.90537   0.00000  Uiso   1.00
C973   C     0.47375   0.52724   0.90721   0.00000  Uiso   1.00
C974   C     0.58007   0.50002   0.74993   0.00000  Uiso   1.00
C975   C     0.50162   0.45823   0.59130   0.00000  Uiso   1.00
C976   C     0.50259   0.50000   0.61495   0.00000  Uiso   1.00
C977   C     0.50164   0.49973   0.88343   0.00000  Uiso   1.00
C978   C     0.50628   0.49994   0.52268   0.00000  Uiso   1.00
C979   C     0.50521   0.50023   0.97492   0.00000  Uiso   1.00
C980   C     0.62420   0.49999   0.75019   0.00000  Uiso   1.00
C981   C     0.37580   0.49994   0.75029   0.00000  Uiso   1.00
C982   C     0.46746   0.60739   0.61376   0.00000  Uiso   1.00
C983   C     0.59682   0.47041   0.86667   0.00000  Uiso   1.00
C984   C     0.40620   0.52895   0.87216   0.00000  Uiso   1.00
C985   C     0.50047   0.50004   0.66354   0.00000  Uiso   1.00
C986   C     0.53793   0.39346   0.62130   0.00000  Uiso   1.00
C987   C     0.50023   0.49992   0.83587   0.00000  Uiso   1.00
C988   C     0.53049   0.35732   0.77166   0.00000  Uiso   1.00
C989   C     0.46936   0.64269   0.72862   0.00000  Uiso   1.00
C990   C     0.46948   0.35737   0.72841   0.00000  Uiso   1.00
C991   C     0.53053   0.64263   0.77160   0.00000  Uiso   1.00
C992   C     0.35456   0.45917   0.74324   0.00000  Uiso   1.00
H993   H     0.55480   0.37555   0.78903   0.00000  Uiso   1.00
H994   H     0.62926   0.57239   0.76345   0.00000  Uiso   1.00
H995   H     0.62903   0.42750   0.73735   0.00000  Uiso   1.00
H996   H     0.37097   0.57238   0.76341   0.00000  Uiso   1.00
H997   H     0.53051   0.60560   0.60102   0.00000  Uiso   1.00
H998   H     0.45666   0.61510   0.57945   0.00000  Uiso   1.00
H999   H     0.47052   0.63985   0.63209   0.00000  Uiso   1.00
H1000  H     0.44395   0.58589   0.63087   0.00000  Uiso   1.00
H1001  H     0.56815   0.41562   0.89696   0.00000  Uiso   1.00
H1002  H     0.61568   0.48123   0.89577   0.00000  Uiso   1.00
H1003  H     0.58777   0.50083   0.84702   0.00000  Uiso   1.00
H1004  H     0.44481   0.62448   0.71167   0.00000  Uiso   1.00
H1005  H     0.61613   0.44819   0.84529   0.00000  Uiso   1.00
H1006  H     0.43571   0.58359   0.90160   0.00000  Uiso   1.00
H1007  H     0.38963   0.51613   0.90206   0.00000  Uiso   1.00
H1008  H     0.41447   0.49989   0.85052   0.00000  Uiso   1.00
H1009  H     0.38497   0.55168   0.85330   0.00000  Uiso   1.00
H1010  H     0.47733   0.39364   0.59828   0.00000  Uiso   1.00
H1011  H     0.55269   0.38373   0.58936   0.00000  Uiso   1.00
H1012  H     0.53296   0.36235   0.64157   0.00000  Uiso   1.00
H1013  H     0.55915   0.41642   0.63990   0.00000  Uiso   1.00
H1014  H     0.44516   0.37562   0.71105   0.00000  Uiso   1.00
H1015  H     0.55487   0.62437   0.78890   0.00000  Uiso   1.00
H1016  H     0.51160   0.57257   0.52706   0.00000  Uiso   1.00
H1017  H     0.55513   0.45178   0.96880   0.00000  Uiso   1.00
H1018  H     0.45466   0.54834   0.97198   0.00000  Uiso   1.00
H1019  H     0.50084   0.42725   0.52710   0.00000  Uiso   1.00
H1020  H     0.37071   0.42746   0.73745   0.00000  Uiso   1.00
N1021  N     0.50000   0.61907   0.75000   0.00000  Uiso   1.00
N1022  N     0.50000   0.38093   0.75000   0.00000  Uiso   1.00
N1023  N     0.50728   0.58457   0.61278   0.00000  Uiso   1.00
N1024  N     0.56039   0.44567   0.88130   0.00000  Uiso   1.00
N1025  N     0.44303   0.55397   0.88516   0.00000  Uiso   1.00
N1026  N     0.49836   0.41537   0.61312   0.00000  Uiso   1.00
O1027  O     0.43892   0.53821   0.74999   0.00000  Uiso   1.00
O1028  O     0.56108   0.46179   0.75000   0.00000  Uiso   1.00
O1029  O     0.56108   0.53821   0.75000   0.00000  Uiso   1.00
O1030  O     0.43892   0.46179   0.74999   0.00000  Uiso   1.00
O1031  O     0.50000   0.53822   0.68453   0.00000  Uiso   1.00
O1032  O     0.50000   0.46178   0.81547   0.00000  Uiso   1.00
O1033  O     0.50000   0.53822   0.81547   0.00000  Uiso   1.00
O1034  O     0.50000   0.46178   0.68453   0.00000  Uiso   1.00
Zn1035 Zn    0.50000   0.55104   0.75000   0.00000  Uiso   1.00
Zn1036 Zn    0.50000   0.44896   0.75000   0.00000  Uiso   1.00
C1037  C     0.75326   0.49998   0.75002   0.00000  Uiso   1.00
C1038  C     0.97876   0.54071   0.75757   0.00000  Uiso   1.00
C1039  C     0.97863   0.45920   0.74317   0.00000  Uiso   1.00
C1040  C     0.68803   0.54069   0.75755   0.00000  Uiso   1.00
C1041  C     0.84204   0.54088   0.54528   0.00000  Uiso   1.00
C1042  C     0.86577   0.47249   0.95139   0.00000  Uiso   1.00
C1043  C     0.80951   0.52765   0.95315   0.00000  Uiso   1.00
C1044  C     0.83622   0.45891   0.54529   0.00000  Uiso   1.00
C1045  C     0.83954   0.54164   0.59119   0.00000  Uiso   1.00
C1046  C     0.86463   0.47244   0.90537   0.00000  Uiso   1.00
C1047  C     0.80709   0.52724   0.90721   0.00000  Uiso   1.00
C1048  C     0.91340   0.50002   0.74993   0.00000  Uiso   1.00
C1049  C     0.83495   0.45823   0.59130   0.00000  Uiso   1.00
C1050  C     0.83592   0.50000   0.61495   0.00000  Uiso   1.00
C1051  C     0.83497   0.49973   0.88343   0.00000  Uiso   1.00
C1052  C     0.83961   0.49994   0.52268   0.00000  Uiso   1.00
C1053  C     0.83855   0.50023   0.97492   0.00000  Uiso   1.00
C1054  C     0.95753   0.49999   0.75019   0.00000  Uiso   1.00
C1055  C     0.70913   0.49994   0.75029   0.00000  Uiso   1.00
C1056  C     0.80079   0.60739   0.61376   0.00000  Uiso   1.00
C1057  C     0.93015   0.47041   0.86667   0.00000  Uiso   1.00
C1058  C     0.73953   0.52895   0.87216   0.00000  Uiso   1.00
C1059  C     0.83380   0.50004   0.66354   0.00000  Uiso   1.00
C1060  C     0.87126   0.39346   0.62130   0.00000  Uiso   1.00
C1061  C     0.83357   0.49992   0.83587   0.00000  Uiso   1.00
C1062  C     0.86383   0.35732   0.77166   0.00000  Uiso   1.00
C1063  C     0.80269   0.64269   0.72862   0.00000  Uiso   1.00
C1064  C     0.80281   0.35737   0.72841   0.00000  Uiso   1.00
C1065  C     0.86386   0.64263   0.77160   0.00000  Uiso   1.00
C1066  C     0.68789   0.45917   0.74324   0.00000  Uiso   1.00
H1067  H     0.88813   0.37555   0.78903   0.00000  Uiso   1.00
H1068  H     0.96260   0.57239   0.76345   0.00000  Uiso   1.00
H1069  H     0.96236   0.42750   0.73735   0.00000  Uiso   1.00
H1070  H     0.70431   0.57238   0.76341   0.00000  Uiso   1.00
H1071  H     0.86384   0.60560   0.60102   0.00000  Uiso   1.00
H1072  H     0.78999   0.61510   0.57945   0.00000  Uiso   1.00
H1073  H     0.80385   0.63985   0.63209   0.00000  Uiso   1.00
H1074  H     0.77728   0.58589   0.63087   0.00000  Uiso   1.00
H1075  H     0.90149   0.41562   0.89696   0.00000  Uiso   1.00
H1076  H     0.94901   0.48123   0.89577   0.00000  Uiso   1.00
H1077  H     0.92110   0.50083   0.84702   0.00000  Uiso   1.00
H1078  H     0.77814   0.62448   0.71167   0.00000  Uiso   1.00
H1079  H     0.94946   0.44819   0.84529   0.00000  Uiso   1.00
H1080  H     0.76904   0.58359   0.90160   0.00000  Uiso   1.00
H1081  H     0.72297   0.51613   0.90206   0.00000  Uiso   1.00
H1082  H     0.74780   0.49989   0.85052   0.00000  Uiso   1.00
H1083  H     0.71831   0.55168   0.85330   0.00000  Uiso   1.00
H1084  H     0.81066   0.39364   0.59828   0.00000  Uiso   1.00
H1085  H     0.88603   0.38373   0.58936   0.00000  Uiso   1.00
H1086  H     0.86629   0.36235   0.64157   0.00000  Uiso   1.00
H1087  H     0.89249   0.41642   0.63990   0.00000  Uiso   1.00
H1088  H     0.77849   0.37562   0.71105   0.00000  Uiso   1.00
H1089  H     0.88821   0.62437   0.78890   0.00000  Uiso   1.00
H1090  H     0.84493   0.57257   0.52706   0.00000  Uiso   1.00
H1091  H     0.88846   0.45178   0.96880   0.00000  Uiso   1.00
H1092  H     0.78799   0.54834   0.97198   0.00000  Uiso   1.00
H1093  H     0.83417   0.42725   0.52710   0.00000  Uiso   1.00
H1094  H     0.70405   0.42746   0.73745   0.00000  Uiso   1.00
N1095  N     0.83333   0.61907   0.75000   0.00000  Uiso   1.00
N1096  N     0.83333   0.38093   0.75000   0.00000  Uiso   1.00
N1097  N     0.84062   0.58457   0.61278   0.00000  Uiso   1.00
N1098  N     0.89372   0.44567   0.88130   0.00000  Uiso   1.00
N1099  N     0.77636   0.55397   0.88516   0.00000  Uiso   1.00
N1100  N     0.83169   0.41537   0.61312   0.00000  Uiso   1.00
O1101  O     0.77226   0.53821   0.74999   0.00000  Uiso   1.00
O1102  O     0.89441   0.46179   0.75000   0.00000  Uiso   1.00
O1103  O     0.89441   0.53821   0.75000   0.00000  Uiso   1.00
O1104  O     0.77226   0.46179   0.74999   0.00000  Uiso   1.00
O1105  O     0.83333   0.53822   0.68453   0.00000  Uiso   1.00
O1106  O     0.83334   0.46178   0.81547   0.00000  Uiso   1.00
O1107  O     0.83334   0.53822   0.81547   0.00000  Uiso   1.00
O1108  O     0.83333   0.46178   0.68453   0.00000  Uiso   1.00
Zn1109 Zn    0.83333   0.55104   0.75000   0.00000  Uiso   1.00
Zn1110 Zn    0.83333   0.44896   0.75000   0.00000  Uiso   1.00
C1111  C     0.08660   0.83331   0.75002   0.00000  Uiso   1.00
C1112  C     0.31210   0.87404   0.75757   0.00000  Uiso   1.00
C1113  C     0.31196   0.79253   0.74317   0.00000  Uiso   1.00
C1114  C     0.02136   0.87403   0.75755   0.00000  Uiso   1.00
C1115  C     0.17537   0.87421   0.54528   0.00000  Uiso   1.00
C1116  C     0.19911   0.80582   0.95139   0.00000  Uiso   1.00
C1117  C     0.14285   0.86099   0.95315   0.00000  Uiso   1.00
C1118  C     0.16956   0.79224   0.54529   0.00000  Uiso   1.00
C1119  C     0.17287   0.87497   0.59119   0.00000  Uiso   1.00
C1120  C     0.19797   0.80578   0.90537   0.00000  Uiso   1.00
C1121  C     0.14042   0.86057   0.90721   0.00000  Uiso   1.00
C1122  C     0.24673   0.83335   0.74993   0.00000  Uiso   1.00
C1123  C     0.16828   0.79156   0.59130   0.00000  Uiso   1.00
C1124  C     0.16926   0.83334   0.61495   0.00000  Uiso   1.00
C1125  C     0.16831   0.83306   0.88343   0.00000  Uiso   1.00
C1126  C     0.17294   0.83327   0.52268   0.00000  Uiso   1.00
C1127  C     0.17188   0.83356   0.97492   0.00000  Uiso   1.00
C1128  C     0.29086   0.83333   0.75019   0.00000  Uiso   1.00
C1129  C     0.04246   0.83327   0.75029   0.00000  Uiso   1.00
C1130  C     0.13412   0.94072   0.61376   0.00000  Uiso   1.00
C1131  C     0.26348   0.80374   0.86667   0.00000  Uiso   1.00
C1132  C     0.07287   0.86229   0.87216   0.00000  Uiso   1.00
C1133  C     0.16713   0.83337   0.66354   0.00000  Uiso   1.00
C1134  C     0.20460   0.72679   0.62130   0.00000  Uiso   1.00
C1135  C     0.16690   0.83325   0.83587   0.00000  Uiso   1.00
C1136  C     0.19716   0.69066   0.77166   0.00000  Uiso   1.00
C1137  C     0.13603   0.97602   0.72862   0.00000  Uiso   1.00
C1138  C     0.13614   0.69070   0.72841   0.00000  Uiso   1.00
C1139  C     0.19719   0.97596   0.77160   0.00000  Uiso   1.00
C1140  C     0.02123   0.79250   0.74324   0.00000  Uiso   1.00
H1141  H     0.22147   0.70888   0.78903   0.00000  Uiso   1.00
H1142  H     0.29593   0.90572   0.76345   0.00000  Uiso   1.00
H1143  H     0.29570   0.76083   0.73735   0.00000  Uiso   1.00
H1144  H     0.03764   0.90571   0.76341   0.00000  Uiso   1.00
H1145  H     0.19718   0.93894   0.60102   0.00000  Uiso   1.00
H1146  H     0.12333   0.94843   0.57945   0.00000  Uiso   1.00
H1147  H     0.13719   0.97319   0.63209   0.00000  Uiso   1.00
H1148  H     0.11061   0.91922   0.63087   0.00000  Uiso   1.00
H1149  H     0.23482   0.74895   0.89696   0.00000  Uiso   1.00
H1150  H     0.28234   0.81456   0.89577   0.00000  Uiso   1.00
H1151  H     0.25443   0.83416   0.84702   0.00000  Uiso   1.00
H1152  H     0.11148   0.95781   0.71167   0.00000  Uiso   1.00
H1153  H     0.28280   0.78152   0.84529   0.00000  Uiso   1.00
H1154  H     0.10238   0.91693   0.90160   0.00000  Uiso   1.00
H1155  H     0.05630   0.84947   0.90206   0.00000  Uiso   1.00
H1156  H     0.08113   0.83322   0.85052   0.00000  Uiso   1.00
H1157  H     0.05164   0.88501   0.85330   0.00000  Uiso   1.00
H1158  H     0.14400   0.72698   0.59828   0.00000  Uiso   1.00
H1159  H     0.21936   0.71706   0.58936   0.00000  Uiso   1.00
H1160  H     0.19963   0.69569   0.64157   0.00000  Uiso   1.00
H1161  H     0.22582   0.74975   0.63990   0.00000  Uiso   1.00
H1162  H     0.11182   0.70895   0.71105   0.00000  Uiso   1.00
H1163  H     0.22154   0.95771   0.78890   0.00000  Uiso   1.00
H1164  H     0.17826   0.90590   0.52706   0.00000  Uiso   1.00
H1165  H     0.22180   0.78512   0.96880   0.00000  Uiso   1.00
H1166  H     0.12133   0.88167   0.97198   0.00000  Uiso   1.00
H1167  H     0.16750   0.76058   0.52710   0.00000  Uiso   1.00
H1168  H     0.03738   0.76079   0.73745   0.00000  Uiso   1.00
N1169  N     0.16667   0.95240   0.75000   0.00000  Uiso   1.00
N1170  N     0.16667   0.71427   0.75000   0.00000  Uiso   1.00
N1171  N     0.17395   0.91790   0.61278   0.00000  Uiso   1.00
N1172  N     0.22706   0.77900   0.88130   0.00000  Uiso   1.00
N1173  N     0.10969   0.88730   0.88516   0.00000  Uiso   1.00
N1174  N     0.16502   0.74870   0.61312   0.00000  Uiso   1.00
O1175  O     0.10559   0.87154   0.74999   0.00000  Uiso   1.00
O1176  O     0.22774   0.79513   0.75000   0.00000  Uiso   1.00
O1177  O     0.22774   0.87154   0.75000   0.00000  Uiso   1.00
O1178  O     0.10559   0.79513   0.74999   0.00000  Uiso   1.00
O1179  O     0.16666   0.87155   0.68453   0.00000  Uiso   1.00
O1180  O     0.16667   0.79511   0.81547   0.00000  Uiso   1.00
O1181  O     0.16667   0.87155   0.81547   0.00000  Uiso   1.00
O1182  O     0.16666   0.79511   0.68453   0.00000  Uiso   1.00
Zn1183 Zn    0.16667   0.88437   0.75000   0.00000  Uiso   1.00
Zn1184 Zn    0.16667   0.78229   0.75000   0.00000  Uiso   1.00
C1185  C     0.41993   0.83331   0.75002   0.00000  Uiso   1.00
C1186  C     0.64543   0.87404   0.75757   0.00000  Uiso   1.00
C1187  C     0.64530   0.79253   0.74317   0.00000  Uiso   1.00
C1188  C     0.35470   0.87403   0.75755   0.00000  Uiso   1.00
C1189  C     0.50871   0.87421   0.54528   0.00000  Uiso   1.00
C1190  C     0.53244   0.80582   0.95139   0.00000  Uiso   1.00
C1191  C     0.47618   0.86099   0.95315   0.00000  Uiso   1.00
C1192  C     0.50289   0.79224   0.54529   0.00000  Uiso   1.00
C1193  C     0.50620   0.87497   0.59119   0.00000  Uiso   1.00
C1194  C     0.53130   0.80578   0.90537   0.00000  Uiso   1.00
C1195  C     0.47375   0.86057   0.90721   0.00000  Uiso   1.00
C1196  C     0.58007   0.83335   0.74993   0.00000  Uiso   1.00
C1197  C     0.50162   0.79156   0.59130   0.00000  Uiso   1.00
C1198  C     0.50259   0.83334   0.61495   0.00000  Uiso   1.00
C1199  C     0.50164   0.83306   0.88343   0.00000  Uiso   1.00
C1200  C     0.50628   0.83327   0.52268   0.00000  Uiso   1.00
C1201  C     0.50521   0.83356   0.97492   0.00000  Uiso   1.00
C1202  C     0.62420   0.83333   0.75019   0.00000  Uiso   1.00
C1203  C     0.37580   0.83327   0.75029   0.00000  Uiso   1.00
C1204  C     0.46746   0.94072   0.61376   0.00000  Uiso   1.00
C1205  C     0.59682   0.80374   0.86667   0.00000  Uiso   1.00
C1206  C     0.40620   0.86229   0.87216   0.00000  Uiso   1.00
C1207  C     0.50047   0.83337   0.66354   0.00000  Uiso   1.00
C1208  C     0.53793   0.72679   0.62130   0.00000  Uiso   1.00
C1209  C     0.50023   0.83325   0.83587   0.00000  Uiso   1.00
C1210  C     0.53049   0.69066   0.77166   0.00000  Uiso   1.00
C1211  C     0.46936   0.97602   0.72862   0.00000  Uiso   1.00
C1212  C     0.46948   0.69070   0.72841   0.00000  Uiso   1.00
C1213  C     0.53053   0.97596   0.77160   0.00000  Uiso   1.00
C1214  C     0.35456   0.79250   0.74324   0.00000  Uiso   1.00
H1215  H     0.55480   0.70888   0.78903   0.00000  Uiso   1.00
H1216  H     0.62926   0.90572   0.76345   0.00000  Uiso   1.00
H1217  H     0.62903   0.76083   0.73735   0.00000  Uiso   1.00
H1218  H     0.37097   0.90571   0.76341   0.00000  Uiso   1.00
H1219  H     0.53051   0.93894   0.60102   0.00000  Uiso   1.00
H1220  H     0.45666   0.94843   0.57945   0.00000  Uiso   1.00
H1221  H     0.47052   0.97319   0.63209   0.00000  Uiso   1.00
H1222  H     0.44395   0.91922   0.63087   0.00000  Uiso   1.00
H1223  H     0.56815   0.74895   0.89696   0.00000  Uiso   1.00
H1224  H     0.61568   0.81456   0.89577   0.00000  Uiso   1.00
H1225  H     0.58777   0.83416   0.84702   0.00000  Uiso   1.00
H1226  H     0.44481   0.95781   0.71167   0.00000  Uiso   1.00
H1227  H     0.61613   0.78152   0.84529   0.00000  Uiso   1.00
H1228  H     0.43571   0.91693   0.90160   0.00000  Uiso   1.00
H1229  H     0.38963   0.84947   0.90206   0.00000  Uiso   1.00
H1230  H     0.41447   0.83322   0.85052   0.00000  Uiso   1.00
H1231  H     0.38497   0.88501   0.85330   0.00000  Uiso   1.00
H1232  H     0.47733   0.72698   0.59828   0.00000  Uiso   1.00
H1233  H     0.55269   0.71706   0.58936   0.00000  Uiso   1.00
H1234  H     0.53296   0.69569   0.64157   0.00000  Uiso   1.00
H1235  H     0.55915   0.74975   0.63990   0.00000  Uiso   1.00
H1236  H     0.44516   0.70895   0.71105   0.00000  Uiso   1.00
H1237  H     0.55487   0.95771   0.78890   0.00000  Uiso   1.00
H1238  H     0.51160   0.90590   0.52706   0.00000  Uiso   1.00
H1239  H     0.55513   0.78512   0.96880   0.00000  Uiso   1.00
H1240  H     0.45466   0.88167   0.97198   0.00000  Uiso   1.00
H1241  H     0.50084   0.76058   0.52710   0.00000  Uiso   1.00
H1242  H     0.37071   0.76079   0.73745   0.00000  Uiso   1.00
N1243  N     0.50000   0.95240   0.75000   0.00000  Uiso   1.00
N1244  N     0.50000   0.71427   0.75000   0.00000  Uiso   1.00
N1245  N     0.50728   0.91790   0.61278   0.00000  Uiso   1.00
N1246  N     0.56039   0.77900   0.88130   0.00000  Uiso   1.00
N1247  N     0.44303   0.88730   0.88516   0.00000  Uiso   1.00
N1248  N     0.49836   0.74870   0.61312   0.00000  Uiso   1.00
O1249  O     0.43892   0.87154   0.74999   0.00000  Uiso   1.00
O1250  O     0.56108   0.79513   0.75000   0.00000  Uiso   1.00
O1251  O     0.56108   0.87154   0.75000   0.00000  Uiso   1.00
O1252  O     0.43892   0.79513   0.74999   0.00000  Uiso   1.00
O1253  O     0.50000   0.87155   0.68453   0.00000  Uiso   1.00
O1254  O     0.50000   0.79511   0.81547   0.00000  Uiso   1.00
O1255  O     0.50000   0.87155   0.81547   0.00000  Uiso   1.00
O1256  O     0.50000   0.79511   0.68453   0.00000  Uiso   1.00
Zn1257 Zn    0.50000   0.88437   0.75000   0.00000  Uiso   1.00
Zn1258 Zn    0.50000   0.78229   0.75000   0.00000  Uiso   1.00
C1259  C     0.75326   0.83331   0.75002   0.00000  Uiso   1.00
C1260  C     0.97876   0.87404   0.75757   0.00000  Uiso   1.00
C1261  C     0.97863   0.79253   0.74317   0.00000  Uiso   1.00
C1262  C     0.68803   0.87403   0.75755   0.00000  Uiso   1.00
C1263  C     0.84204   0.87421   0.54528   0.00000  Uiso   1.00
C1264  C     0.86577   0.80582   0.95139   0.00000  Uiso   1.00
C1265  C     0.80951   0.86099   0.95315   0.00000  Uiso   1.00
C1266  C     0.83622   0.79224   0.54529   0.00000  Uiso   1.00
C1267  C     0.83954   0.87497   0.59119   0.00000  Uiso   1.00
C1268  C     0.86463   0.80578   0.90537   0.00000  Uiso   1.00
C1269  C     0.80709   0.86057   0.90721   0.00000  Uiso   1.00
C1270  C     0.91340   0.83335   0.74993   0.00000  Uiso   1.00
C1271  C     0.83495   0.79156   0.59130   0.00000  Uiso   1.00
C1272  C     0.83592   0.83334   0.61495   0.00000  Uiso   1.00
C1273  C     0.83497   0.83306   0.88343   0.00000  Uiso   1.00
C1274  C     0.83961   0.83327   0.52268   0.00000  Uiso   1.00
C1275  C     0.83855   0.83356   0.97492   0.00000  Uiso   1.00
C1276  C     0.95753   0.83333   0.75019   0.00000  Uiso   1.00
C1277  C     0.70913   0.83327   0.75029   0.00000  Uiso   1.00
C1278  C     0.80079   0.94072   0.61376   0.00000  Uiso   1.00
C1279  C     0.93015   0.80374   0.86667   0.00000  Uiso   1.00
C1280  C     0.73953   0.86229   0.87216   0.00000  Uiso   1.00
C1281  C     0.83380   0.83337   0.66354   0.00000  Uiso   1.00
C1282  C     0.87126   0.72679   0.62130   0.00000  Uiso   1.00
C1283  C     0.83357   0.83325   0.83587   0.00000  Uiso   1.00
C1284  C     0.86383   0.69066   0.77166   0.00000  Uiso   1.00
C1285  C     0.80269   0.97602   0.72862   0.00000  Uiso   1.00
C1286  C     0.80281   0.69070   0.72841   0.00000  Uiso   1.00
C1287  C     0.86386   0.97596   0.77160   0.00000  Uiso   1.00
C1288  C     0.68789   0.79250   0.74324   0.00000  Uiso   1.00
H1289  H     0.88813   0.70888   0.78903   0.00000  Uiso   1.00
H1290  H     0.96260   0.90572   0.76345   0.00000  Uiso   1.00
H1291  H     0.96236   0.76083   0.73735   0.00000  Uiso   1.00
H1292  H     0.70431   0.90571   0.76341   0.00000  Uiso   1.00
H1293  H     0.86384   0.93894   0.60102   0.00000  Uiso   1.00
H1294  H     0.78999   0.94843   0.57945   0.00000  Uiso   1.00
H1295  H     0.80385   0.97319   0.63209   0.00000  Uiso   1.00
H1296  H     0.77728   0.91922   0.63087   0.00000  Uiso   1.00
H1297  H     0.90149   0.74895   0.89696   0.00000  Uiso   1.00
H1298  H     0.94901   0.81456   0.89577   0.00000  Uiso   1.00
H1299  H     0.92110   0.83416   0.84702   0.00000  Uiso   1.00
H1300  H     0.77814   0.95781   0.71167   0.00000  Uiso   1.00
H1301  H     0.94946   0.78152   0.84529   0.00000  Uiso   1.00
H1302  H     0.76904   0.91693   0.90160   0.00000  Uiso   1.00
H1303  H     0.72297   0.84947   0.90206   0.00000  Uiso   1.00
H1304  H     0.74780   0.83322   0.85052   0.00000  Uiso   1.00
H1305  H     0.71831   0.88501   0.85330   0.00000  Uiso   1.00
H1306  H     0.81066   0.72698   0.59828   0.00000  Uiso   1.00
H1307  H     0.88603   0.71706   0.58936   0.00000  Uiso   1.00
H1308  H     0.86629   0.69569   0.64157   0.00000  Uiso   1.00
H1309  H     0.89249   0.74975   0.63990   0.00000  Uiso   1.00
H1310  H     0.77849   0.70895   0.71105   0.00000  Uiso   1.00
H1311  H     0.88821   0.95771   0.78890   0.00000  Uiso   1.00
H1312  H     0.84493   0.90590   0.52706   0.00000  Uiso   1.00
H1313  H     0.88846   0.78512   0.96880   0.00000  Uiso   1.00
H1314  H     0.78799   0.88167   0.97198   0.00000  Uiso   1.00
H1315  H     0.83417   0.76058   0.52710   0.00000  Uiso   1.00
H1316  H     0.70405   0.76079   0.73745   0.00000  Uiso   1.00
N1317  N     0.83333   0.95240   0.75000   0.00000  Uiso   1.00
N1318  N     0.83333   0.71427   0.75000   0.00000  Uiso   1.00
N1319  N     0.84062   0.91790   0.61278   0.00000  Uiso   1.00
N1320  N     0.89372   0.77900   0.88130   0.00000  Uiso   1.00
N1321  N     0.77636   0.88730   0.88516   0.00000  Uiso   1.00
N1322  N     0.83169   0.74870   0.61312   0.00000  Uiso   1.00
O1323  O     0.77226   0.87154   0.74999   0.00000  Uiso   1.00
O1324  O     0.89441   0.79513   0.75000   0.00000  Uiso   1.00
O1325  O     0.89441   0.87154   0.75000   0.00000  Uiso   1.00
O1326  O     0.77226   0.79513   0.74999   0.00000  Uiso   1.00
O1327  O     0.83333   0.87155   0.68453   0.00000  Uiso   1.00
O1328  O     0.83334   0.79511   0.81547   0.00000  Uiso   1.00
O1329  O     0.83334   0.87155   0.81547   0.00000  Uiso   1.00
O1330  O     0.83333   0.79511   0.68453   0.00000  Uiso   1.00
Zn1331 Zn    0.83333   0.88437   0.75000   0.00000  Uiso   1.00
Zn1332 Zn    0.83333   0.78229   0.75000   0.00000  Uiso   1.00
loop_
_geom_bond_atom_site_label_1
_geom_bond_atom_site_label_2
_geom_bond_distance
_geom_bond_site_symmetry_2
_ccdc_geom_bond_type
C1     O65     1.280   .     A
C1     O68     1.280   .     A
C1     C19     1.419   .     S
C2     C18     1.397   .     A
C2     H32     1.084   .     S
C2     C78     1.369   .     S
C3     H33     1.084   .     S
C3     C18     1.397   .     A
C3     C104    1.369   .     S
C4     H34     1.084   .     S
C4     C19     1.397   .     A
C4     C150    1.369   1_455 S
C5     C9      1.385   .     A
C5     H54     1.085   .     S
C5     C16     1.388   .     A
C6     C10     1.386   .     A
C6     H55     1.084   .     S
C6     C17     1.394   .     A
C7     C11     1.385   .     A
C7     H56     1.084   .     S
C7     C17     1.396   .     A
C8     C13     1.385   .     A
C8     H57     1.085   .     S
C8     C16     1.389   .     A
C9     C14     1.422   .     A
C9     N61     1.423   .     S
C10    N62     1.425   .     S
C10    C15     1.409   .     A
C11    C15     1.407   .     A
C11    N63     1.425   .     S
C12    O67     1.280   .     A
C12    C18     1.419   .     S
C12    O66     1.280   .     A
C13    C14     1.423   .     A
C13    N64     1.424   .     S
C14    C23     1.464   .     S
C15    C25     1.432   .     S
C16    C683    1.438   1_554 S
C17    C682    1.438   .     S
C19    C30     1.397   .     A
C20    H38     1.111   .     S
C20    H37     1.109   .     S
C20    H36     1.112   .     S
C20    N61     1.447   .     S
C21    N62     1.447   .     S
C21    H41     1.110   .     S
C21    H43     1.110   .     S
C21    H40     1.112   .     S
C22    H47     1.110   .     S
C22    H46     1.110   .     S
C22    H45     1.112   .     S
C22    N63     1.447   .     S
C23    O69     1.292   .     A
C23    O72     1.290   .     A
C24    H51     1.111   .     S
C24    N64     1.447   .     S
C24    H50     1.110   .     S
C24    H49     1.112   .     S
C25    O71     1.282   .     A
C25    O70     1.282   .     A
C26    H31     1.082   .     S
C26    N60     1.366   .     A
C26    C473    1.414   1_545 S
C27    N59     1.365   .     A
C27    H42     1.081   .     S
C27    C250    1.414   .     S
C28    H52     1.082   .     S
C28    N60     1.365   .     A
C28    C471    1.414   1_545 S
C29    H53     1.082   .     S
C29    N59     1.366   .     A
C29    C248    1.414   .     S
C30    H58     1.084   .     S
C30    C151    1.369   1_455 S
H35    N61     1.032   .     S
H39    N62     1.032   .     S
H44    N63     1.032   .     S
H48    N64     1.032   .     S
N59    Zn73    2.003   .     S
N60    Zn74    2.003   .     S
O65    Zn73    1.999   .     S
O66    Zn74    1.999   .     S
O67    Zn73    2.000   .     S
O68    Zn74    2.000   .     S
O69    Zn73    2.008   .     S
O70    Zn74    2.008   .     S
O71    Zn73    2.005   .     S
O72    Zn74    2.005   .     S
C75    O139    1.280   .     A
C75    O142    1.280   .     A
C75    C93     1.419   .     S
C76    C92     1.397   .     A
C76    H106    1.084   .     S
C76    C152    1.369   .     S
C77    H107    1.084   .     S
C77    C92     1.397   .     A
C77    C178    1.369   .     S
C78    H108    1.084   .     S
C78    C93     1.397   .     A
C79    C83     1.385   .     A
C79    H128    1.085   .     S
C79    C90     1.388   .     A
C80    C84     1.386   .     A
C80    H129    1.084   .     S
C80    C91     1.394   .     A
C81    C85     1.385   .     A
C81    H130    1.084   .     S
C81    C91     1.396   .     A
C82    C87     1.385   .     A
C82    H131    1.085   .     S
C82    C90     1.389   .     A
C83    C88     1.422   .     A
C83    N135    1.423   .     S
C84    N136    1.425   .     S
C84    C89     1.409   .     A
C85    C89     1.407   .     A
C85    N137    1.425   .     S
C86    O141    1.280   .     A
C86    C92     1.419   .     S
C86    O140    1.280   .     A
C87    C88     1.423   .     A
C87    N138    1.424   .     S
C88    C97     1.464   .     S
C89    C99     1.432   .     S
C90    C757    1.438   1_554 S
C91    C756    1.438   .     S
C93    C104    1.397   .     A
C94    H112    1.111   .     S
C94    H111    1.109   .     S
C94    H110    1.112   .     S
C94    N135    1.447   .     S
C95    N136    1.447   .     S
C95    H115    1.110   .     S
C95    H117    1.110   .     S
C95    H114    1.112   .     S
C96    H121    1.110   .     S
C96    H120    1.110   .     S
C96    H119    1.112   .     S
C96    N137    1.447   .     S
C97    O143    1.292   .     A
C97    O146    1.290   .     A
C98    H125    1.111   .     S
C98    N138    1.447   .     S
C98    H124    1.110   .     S
C98    H123    1.112   .     S
C99    O145    1.282   .     A
C99    O144    1.282   .     A
C100   H105    1.082   .     S
C100   N134    1.366   .     A
C100   C547    1.414   1_545 S
C101   N133    1.365   .     A
C101   H116    1.081   .     S
C101   C324    1.414   .     S
C102   H126    1.082   .     S
C102   N134    1.365   .     A
C102   C545    1.414   1_545 S
C103   H127    1.082   .     S
C103   N133    1.366   .     A
C103   C322    1.414   .     S
C104   H132    1.084   .     S
H109   N135    1.032   .     S
H113   N136    1.032   .     S
H118   N137    1.032   .     S
H122   N138    1.032   .     S
N133   Zn147   2.003   .     S
N134   Zn148   2.003   .     S
O139   Zn147   1.999   .     S
O140   Zn148   1.999   .     S
O141   Zn147   2.000   .     S
O142   Zn148   2.000   .     S
O143   Zn147   2.008   .     S
O144   Zn148   2.008   .     S
O145   Zn147   2.005   .     S
O146   Zn148   2.005   .     S
C149   O213    1.280   .     A
C149   O216    1.280   .     A
C149   C167    1.419   .     S
C150   C166    1.397   .     A
C150   H180    1.084   .     S
C150   C4      1.369   1_655 S
C151   H181    1.084   .     S
C151   C166    1.397   .     A
C151   C30     1.369   1_655 S
C152   H182    1.084   .     S
C152   C167    1.397   .     A
C153   C157    1.385   .     A
C153   H202    1.085   .     S
C153   C164    1.388   .     A
C154   C158    1.386   .     A
C154   H203    1.084   .     S
C154   C165    1.394   .     A
C155   C159    1.385   .     A
C155   H204    1.084   .     S
C155   C165    1.396   .     A
C156   C161    1.385   .     A
C156   H205    1.085   .     S
C156   C164    1.389   .     A
C157   C162    1.422   .     A
C157   N209    1.423   .     S
C158   N210    1.425   .     S
C158   C163    1.409   .     A
C159   C163    1.407   .     A
C159   N211    1.425   .     S
C160   O215    1.280   .     A
C160   C166    1.419   .     S
C160   O214    1.280   .     A
C161   C162    1.423   .     A
C161   N212    1.424   .     S
C162   C171    1.464   .     S
C163   C173    1.432   .     S
C164   C831    1.438   1_554 S
C165   C830    1.438   .     S
C167   C178    1.397   .     A
C168   H186    1.111   .     S
C168   H185    1.109   .     S
C168   H184    1.112   .     S
C168   N209    1.447   .     S
C169   N210    1.447   .     S
C169   H189    1.110   .     S
C169   H191    1.110   .     S
C169   H188    1.112   .     S
C170   H195    1.110   .     S
C170   H194    1.110   .     S
C170   H193    1.112   .     S
C170   N211    1.447   .     S
C171   O217    1.292   .     A
C171   O220    1.290   .     A
C172   H199    1.111   .     S
C172   N212    1.447   .     S
C172   H198    1.110   .     S
C172   H197    1.112   .     S
C173   O219    1.282   .     A
C173   O218    1.282   .     A
C174   H179    1.082   .     S
C174   N208    1.366   .     A
C174   C621    1.414   1_545 S
C175   N207    1.365   .     A
C175   H190    1.081   .     S
C175   C398    1.414   .     S
C176   H200    1.082   .     S
C176   N208    1.365   .     A
C176   C619    1.414   1_545 S
C177   H201    1.082   .     S
C177   N207    1.366   .     A
C177   C396    1.414   .     S
C178   H206    1.084   .     S
H183   N209    1.032   .     S
H187   N210    1.032   .     S
H192   N211    1.032   .     S
H196   N212    1.032   .     S
N207   Zn221   2.003   .     S
N208   Zn222   2.003   .     S
O213   Zn221   1.999   .     S
O214   Zn222   1.999   .     S
O215   Zn221   2.000   .     S
O216   Zn222   2.000   .     S
O217   Zn221   2.008   .     S
O218   Zn222   2.008   .     S
O219   Zn221   2.005   .     S
O220   Zn222   2.005   .     S
C223   O287    1.280   .     A
C223   O290    1.280   .     A
C223   C241    1.419   .     S
C224   C240    1.397   .     A
C224   H254    1.084   .     S
C224   C300    1.369   .     S
C225   H255    1.084   .     S
C225   C240    1.397   .     A
C225   C326    1.369   .     S
C226   H256    1.084   .     S
C226   C241    1.397   .     A
C226   C372    1.369   1_455 S
C227   C231    1.385   .     A
C227   H276    1.085   .     S
C227   C238    1.388   .     A
C228   C232    1.386   .     A
C228   H277    1.084   .     S
C228   C239    1.394   .     A
C229   C233    1.385   .     A
C229   H278    1.084   .     S
C229   C239    1.396   .     A
C230   C235    1.385   .     A
C230   H279    1.085   .     S
C230   C238    1.389   .     A
C231   C236    1.422   .     A
C231   N283    1.423   .     S
C232   N284    1.425   .     S
C232   C237    1.409   .     A
C233   C237    1.407   .     A
C233   N285    1.425   .     S
C234   O289    1.280   .     A
C234   C240    1.419   .     S
C234   O288    1.280   .     A
C235   C236    1.423   .     A
C235   N286    1.424   .     S
C236   C245    1.464   .     S
C237   C247    1.432   .     S
C238   C905    1.438   1_554 S
C239   C904    1.438   .     S
C241   C252    1.397   .     A
C242   H260    1.111   .     S
C242   H259    1.109   .     S
C242   H258    1.112   .     S
C242   N283    1.447   .     S
C243   N284    1.447   .     S
C243   H263    1.110   .     S
C243   H265    1.110   .     S
C243   H262    1.112   .     S
C244   H269    1.110   .     S
C244   H268    1.110   .     S
C244   H267    1.112   .     S
C244   N285    1.447   .     S
C245   O291    1.292   .     A
C245   O294    1.290   .     A
C246   H273    1.111   .     S
C246   N286    1.447   .     S
C246   H272    1.110   .     S
C246   H271    1.112   .     S
C247   O293    1.282   .     A
C247   O292    1.282   .     A
C248   H253    1.082   .     S
C248   N282    1.366   .     A
C249   N281    1.365   .     A
C249   H264    1.081   .     S
C249   C472    1.414   .     S
C250   H274    1.082   .     S
C250   N282    1.365   .     A
C251   H275    1.082   .     S
C251   N281    1.366   .     A
C251   C470    1.414   .     S
C252   H280    1.084   .     S
C252   C373    1.369   1_455 S
H257   N283    1.032   .     S
H261   N284    1.032   .     S
H266   N285    1.032   .     S
H270   N286    1.032   .     S
N281   Zn295   2.003   .     S
N282   Zn296   2.003   .     S
O287   Zn295   1.999   .     S
O288   Zn296   1.999   .     S
O289   Zn295   2.000   .     S
O290   Zn296   2.000   .     S
O291   Zn295   2.008   .     S
O292   Zn296   2.008   .     S
O293   Zn295   2.005   .     S
O294   Zn296   2.005   .     S
C297   O361    1.280   .     A
C297   O364    1.280   .     A
C297   C315    1.419   .     S
C298   C314    1.397   .     A
C298   H328    1.084   .     S
C298   C374    1.369   .     S
C299   H329    1.084   .     S
C299   C314    1.397   .     A
C299   C400    1.369   .     S
C300   H330    1.084   .     S
C300   C315    1.397   .     A
C301   C305    1.385   .     A
C301   H350    1.085   .     S
C301   C312    1.388   .     A
C302   C306    1.386   .     A
C302   H351    1.084   .     S
C302   C313    1.394   .     A
C303   C307    1.385   .     A
C303   H352    1.084   .     S
C303   C313    1.396   .     A
C304   C309    1.385   .     A
C304   H353    1.085   .     S
C304   C312    1.389   .     A
C305   C310    1.422   .     A
C305   N357    1.423   .     S
C306   N358    1.425   .     S
C306   C311    1.409   .     A
C307   C311    1.407   .     A
C307   N359    1.425   .     S
C308   O363    1.280   .     A
C308   C314    1.419   .     S
C308   O362    1.280   .     A
C309   C310    1.423   .     A
C309   N360    1.424   .     S
C310   C319    1.464   .     S
C311   C321    1.432   .     S
C312   C979    1.438   1_554 S
C313   C978    1.438   .     S
C315   C326    1.397   .     A
C316   H334    1.111   .     S
C316   H333    1.109   .     S
C316   H332    1.112   .     S
C316   N357    1.447   .     S
C317   N358    1.447   .     S
C317   H337    1.110   .     S
C317   H339    1.110   .     S
C317   H336    1.112   .     S
C318   H343    1.110   .     S
C318   H342    1.110   .     S
C318   H341    1.112   .     S
C318   N359    1.447   .     S
C319   O365    1.292   .     A
C319   O368    1.290   .     A
C320   H347    1.111   .     S
C320   N360    1.447   .     S
C320   H346    1.110   .     S
C320   H345    1.112   .     S
C321   O367    1.282   .     A
C321   O366    1.282   .     A
C322   H327    1.082   .     S
C322   N356    1.366   .     A
C323   N355    1.365   .     A
C323   H338    1.081   .     S
C323   C546    1.414   .     S
C324   H348    1.082   .     S
C324   N356    1.365   .     A
C325   H349    1.082   .     S
C325   N355    1.366   .     A
C325   C544    1.414   .     S
C326   H354    1.084   .     S
H331   N357    1.032   .     S
H335   N358    1.032   .     S
H340   N359    1.032   .     S
H344   N360    1.032   .     S
N355   Zn369   2.003   .     S
N356   Zn370   2.003   .     S
O361   Zn369   1.999   .     S
O362   Zn370   1.999   .     S
O363   Zn369   2.000   .     S
O364   Zn370   2.000   .     S
O365   Zn369   2.008   .     S
O366   Zn370   2.008   .     S
O367   Zn369   2.005   .     S
O368   Zn370   2.005   .     S
C371   O435    1.280   .     A
C371   O438    1.280   .     A
C371   C389    1.419   .     S
C372   C388    1.397   .     A
C372   H402    1.084   .     S
C372   C226    1.369   1_655 S
C373   H403    1.084   .     S
C373   C388    1.397   .     A
C373   C252    1.369   1_655 S
C374   H404    1.084   .     S
C374   C389    1.397   .     A
C375   C379    1.385   .     A
C375   H424    1.085   .     S
C375   C386    1.388   .     A
C376   C380    1.386   .     A
C376   H425    1.084   .     S
C376   C387    1.394   .     A
C377   C381    1.385   .     A
C377   H426    1.084   .     S
C377   C387    1.396   .     A
C378   C383    1.385   .     A
C378   H427    1.085   .     S
C378   C386    1.389   .     A
C379   C384    1.422   .     A
C379   N431    1.423   .     S
C380   N432    1.425   .     S
C380   C385    1.409   .     A
C381   C385    1.407   .     A
C381   N433    1.425   .     S
C382   O437    1.280   .     A
C382   C388    1.419   .     S
C382   O436    1.280   .     A
C383   C384    1.423   .     A
C383   N434    1.424   .     S
C384   C393    1.464   .     S
C385   C395    1.432   .     S
C386   C1053   1.438   1_554 S
C387   C1052   1.438   .     S
C389   C400    1.397   .     A
C390   H408    1.111   .     S
C390   H407    1.109   .     S
C390   H406    1.112   .     S
C390   N431    1.447   .     S
C391   N432    1.447   .     S
C391   H411    1.110   .     S
C391   H413    1.110   .     S
C391   H410    1.112   .     S
C392   H417    1.110   .     S
C392   H416    1.110   .     S
C392   H415    1.112   .     S
C392   N433    1.447   .     S
C393   O439    1.292   .     A
C393   O442    1.290   .     A
C394   H421    1.111   .     S
C394   N434    1.447   .     S
C394   H420    1.110   .     S
C394   H419    1.112   .     S
C395   O441    1.282   .     A
C395   O440    1.282   .     A
C396   H401    1.082   .     S
C396   N430    1.366   .     A
C397   N429    1.365   .     A
C397   H412    1.081   .     S
C397   C620    1.414   .     S
C398   H422    1.082   .     S
C398   N430    1.365   .     A
C399   H423    1.082   .     S
C399   N429    1.366   .     A
C399   C618    1.414   .     S
C400   H428    1.084   .     S
H405   N431    1.032   .     S
H409   N432    1.032   .     S
H414   N433    1.032   .     S
H418   N434    1.032   .     S
N429   Zn443   2.003   .     S
N430   Zn444   2.003   .     S
O435   Zn443   1.999   .     S
O436   Zn444   1.999   .     S
O437   Zn443   2.000   .     S
O438   Zn444   2.000   .     S
O439   Zn443   2.008   .     S
O440   Zn444   2.008   .     S
O441   Zn443   2.005   .     S
O442   Zn444   2.005   .     S
C445   O509    1.280   .     A
C445   O512    1.280   .     A
C445   C463    1.419   .     S
C446   C462    1.397   .     A
C446   H476    1.084   .     S
C446   C522    1.369   .     S
C447   H477    1.084   .     S
C447   C462    1.397   .     A
C447   C548    1.369   .     S
C448   H478    1.084   .     S
C448   C463    1.397   .     A
C448   C594    1.369   1_455 S
C449   C453    1.385   .     A
C449   H498    1.085   .     S
C449   C460    1.388   .     A
C450   C454    1.386   .     A
C450   H499    1.084   .     S
C450   C461    1.394   .     A
C451   C455    1.385   .     A
C451   H500    1.084   .     S
C451   C461    1.396   .     A
C452   C457    1.385   .     A
C452   H501    1.085   .     S
C452   C460    1.389   .     A
C453   C458    1.422   .     A
C453   N505    1.423   .     S
C454   N506    1.425   .     S
C454   C459    1.409   .     A
C455   C459    1.407   .     A
C455   N507    1.425   .     S
C456   O511    1.280   .     A
C456   C462    1.419   .     S
C456   O510    1.280   .     A
C457   C458    1.423   .     A
C457   N508    1.424   .     S
C458   C467    1.464   .     S
C459   C469    1.432   .     S
C460   C1127   1.438   1_554 S
C461   C1126   1.438   .     S
C463   C474    1.397   .     A
C464   H482    1.111   .     S
C464   H481    1.109   .     S
C464   H480    1.112   .     S
C464   N505    1.447   .     S
C465   N506    1.447   .     S
C465   H485    1.110   .     S
C465   H487    1.110   .     S
C465   H484    1.112   .     S
C466   H491    1.110   .     S
C466   H490    1.110   .     S
C466   H489    1.112   .     S
C466   N507    1.447   .     S
C467   O513    1.292   .     A
C467   O516    1.290   .     A
C468   H495    1.111   .     S
C468   N508    1.447   .     S
C468   H494    1.110   .     S
C468   H493    1.112   .     S
C469   O515    1.282   .     A
C469   O514    1.282   .     A
C470   H475    1.082   .     S
C470   N504    1.366   .     A
C471   N503    1.365   .     A
C471   H486    1.081   .     S
C471   C28     1.414   1_565 S
C472   H496    1.082   .     S
C472   N504    1.365   .     A
C473   H497    1.082   .     S
C473   N503    1.366   .     A
C473   C26     1.414   1_565 S
C474   H502    1.084   .     S
C474   C595    1.369   1_455 S
H479   N505    1.032   .     S
H483   N506    1.032   .     S
H488   N507    1.032   .     S
H492   N508    1.032   .     S
N503   Zn517   2.003   .     S
N504   Zn518   2.003   .     S
O509   Zn517   1.999   .     S
O510   Zn518   1.999   .     S
O511   Zn517   2.000   .     S
O512   Zn518   2.000   .     S
O513   Zn517   2.008   .     S
O514   Zn518   2.008   .     S
O515   Zn517   2.005   .     S
O516   Zn518   2.005   .     S
C519   O583    1.280   .     A
C519   O586    1.280   .     A
C519   C537    1.419   .     S
C520   C536    1.397   .     A
C520   H550    1.084   .     S
C520   C596    1.369   .     S
C521   H551    1.084   .     S
C521   C536    1.397   .     A
C521   C622    1.369   .     S
C522   H552    1.084   .     S
C522   C537    1.397   .     A
C523   C527    1.385   .     A
C523   H572    1.085   .     S
C523   C534    1.388   .     A
C524   C528    1.386   .     A
C524   H573    1.084   .     S
C524   C535    1.394   .     A
C525   C529    1.385   .     A
C525   H574    1.084   .     S
C525   C535    1.396   .     A
C526   C531    1.385   .     A
C526   H575    1.085   .     S
C526   C534    1.389   .     A
C527   C532    1.422   .     A
C527   N579    1.423   .     S
C528   N580    1.425   .     S
C528   C533    1.409   .     A
C529   C533    1.407   .     A
C529   N581    1.425   .     S
C530   O585    1.280   .     A
C530   C536    1.419   .     S
C530   O584    1.280   .     A
C531   C532    1.423   .     A
C531   N582    1.424   .     S
C532   C541    1.464   .     S
C533   C543    1.432   .     S
C534   C1201   1.438   1_554 S
C535   C1200   1.438   .     S
C537   C548    1.397   .     A
C538   H556    1.111   .     S
C538   H555    1.109   .     S
C538   H554    1.112   .     S
C538   N579    1.447   .     S
C539   N580    1.447   .     S
C539   H559    1.110   .     S
C539   H561    1.110   .     S
C539   H558    1.112   .     S
C540   H565    1.110   .     S
C540   H564    1.110   .     S
C540   H563    1.112   .     S
C540   N581    1.447   .     S
C541   O587    1.292   .     A
C541   O590    1.290   .     A
C542   H569    1.111   .     S
C542   N582    1.447   .     S
C542   H568    1.110   .     S
C542   H567    1.112   .     S
C543   O589    1.282   .     A
C543   O588    1.282   .     A
C544   H549    1.082   .     S
C544   N578    1.366   .     A
C545   N577    1.365   .     A
C545   H560    1.081   .     S
C545   C102    1.414   1_565 S
C546   H570    1.082   .     S
C546   N578    1.365   .     A
C547   H571    1.082   .     S
C547   N577    1.366   .     A
C547   C100    1.414   1_565 S
C548   H576    1.084   .     S
H553   N579    1.032   .     S
H557   N580    1.032   .     S
H562   N581    1.032   .     S
H566   N582    1.032   .     S
N577   Zn591   2.003   .     S
N578   Zn592   2.003   .     S
O583   Zn591   1.999   .     S
O584   Zn592   1.999   .     S
O585   Zn591   2.000   .     S
O586   Zn592   2.000   .     S
O587   Zn591   2.008   .     S
O588   Zn592   2.008   .     S
O589   Zn591   2.005   .     S
O590   Zn592   2.005   .     S
C593   O657    1.280   .     A
C593   O660    1.280   .     A
C593   C611    1.419   .     S
C594   C610    1.397   .     A
C594   H624    1.084   .     S
C594   C448    1.369   1_655 S
C595   H625    1.084   .     S
C595   C610    1.397   .     A
C595   C474    1.369   1_655 S
C596   H626    1.084   .     S
C596   C611    1.397   .     A
C597   C601    1.385   .     A
C597   H646    1.085   .     S
C597   C608    1.388   .     A
C598   C602    1.386   .     A
C598   H647    1.084   .     S
C598   C609    1.394   .     A
C599   C603    1.385   .     A
C599   H648    1.084   .     S
C599   C609    1.396   .     A
C600   C605    1.385   .     A
C600   H649    1.085   .     S
C600   C608    1.389   .     A
C601   C606    1.422   .     A
C601   N653    1.423   .     S
C602   N654    1.425   .     S
C602   C607    1.409   .     A
C603   C607    1.407   .     A
C603   N655    1.425   .     S
C604   O659    1.280   .     A
C604   C610    1.419   .     S
C604   O658    1.280   .     A
C605   C606    1.423   .     A
C605   N656    1.424   .     S
C606   C615    1.464   .     S
C607   C617    1.432   .     S
C608   C1275   1.438   1_554 S
C609   C1274   1.438   .     S
C611   C622    1.397   .     A
C612   H630    1.111   .     S
C612   H629    1.109   .     S
C612   H628    1.112   .     S
C612   N653    1.447   .     S
C613   N654    1.447   .     S
C613   H633    1.110   .     S
C613   H635    1.110   .     S
C613   H632    1.112   .     S
C614   H639    1.110   .     S
C614   H638    1.110   .     S
C614   H637    1.112   .     S
C614   N655    1.447   .     S
C615   O661    1.292   .     A
C615   O664    1.290   .     A
C616   H643    1.111   .     S
C616   N656    1.447   .     S
C616   H642    1.110   .     S
C616   H641    1.112   .     S
C617   O663    1.282   .     A
C617   O662    1.282   .     A
C618   H623    1.082   .     S
C618   N652    1.366   .     A
C619   N651    1.365   .     A
C619   H634    1.081   .     S
C619   C176    1.414   1_565 S
C620   H644    1.082   .     S
C620   N652    1.365   .     A
C621   H645    1.082   .     S
C621   N651    1.366   .     A
C621   C174    1.414   1_565 S
C622   H650    1.084   .     S
H627   N653    1.032   .     S
H631   N654    1.032   .     S
H636   N655    1.032   .     S
H640   N656    1.032   .     S
N651   Zn665   2.003   .     S
N652   Zn666   2.003   .     S
O657   Zn665   1.999   .     S
O658   Zn666   1.999   .     S
O659   Zn665   2.000   .     S
O660   Zn666   2.000   .     S
O661   Zn665   2.008   .     S
O662   Zn666   2.008   .     S
O663   Zn665   2.005   .     S
O664   Zn666   2.005   .     S
C667   O731    1.280   .     A
C667   O734    1.280   .     A
C667   C685    1.419   .     S
C668   C684    1.397   .     A
C668   H698    1.084   .     S
C668   C744    1.369   .     S
C669   H699    1.084   .     S
C669   C684    1.397   .     A
C669   C770    1.369   .     S
C670   H700    1.084   .     S
C670   C685    1.397   .     A
C670   C816    1.369   1_455 S
C671   C675    1.385   .     A
C671   H720    1.085   .     S
C671   C682    1.388   .     A
C672   C676    1.386   .     A
C672   H721    1.084   .     S
C672   C683    1.394   .     A
C673   C677    1.385   .     A
C673   H722    1.084   .     S
C673   C683    1.396   .     A
C674   C679    1.385   .     A
C674   H723    1.085   .     S
C674   C682    1.389   .     A
C675   C680    1.422   .     A
C675   N727    1.423   .     S
C676   N728    1.425   .     S
C676   C681    1.409   .     A
C677   C681    1.407   .     A
C677   N729    1.425   .     S
C678   O733    1.280   .     A
C678   C684    1.419   .     S
C678   O732    1.280   .     A
C679   C680    1.423   .     A
C679   N730    1.424   .     S
C680   C689    1.464   .     S
C681   C691    1.432   .     S
C683   C16     1.438   1_556 S
C685   C696    1.397   .     A
C686   H704    1.111   .     S
C686   H703    1.109   .     S
C686   H702    1.112   .     S
C686   N727    1.447   .     S
C687   N728    1.447   .     S
C687   H707    1.110   .     S
C687   H709    1.110   .     S
C687   H706    1.112   .     S
C688   H713    1.110   .     S
C688   H712    1.110   .     S
C688   H711    1.112   .     S
C688   N729    1.447   .     S
C689   O735    1.292   .     A
C689   O738    1.290   .     A
C690   H717    1.111   .     S
C690   N730    1.447   .     S
C690   H716    1.110   .     S
C690   H715    1.112   .     S
C691   O737    1.282   .     A
C691   O736    1.282   .     A
C692   H697    1.082   .     S
C692   N726    1.366   .     A
C692   C1139   1.414   1_545 S
C693   N725    1.365   .     A
C693   H708    1.081   .     S
C693   C916    1.414   .     S
C694   H718    1.082   .     S
C694   N726    1.365   .     A
C694   C1137   1.414   1_545 S
C695   H719    1.082   .     S
C695   N725    1.366   .     A
C695   C914    1.414   .     S
C696   H724    1.084   .     S
C696   C817    1.369   1_455 S
H701   N727    1.032   .     S
H705   N728    1.032   .     S
H710   N729    1.032   .     S
H714   N730    1.032   .     S
N725   Zn739   2.003   .     S
N726   Zn740   2.003   .     S
O731   Zn739   1.999   .     S
O732   Zn740   1.999   .     S
O733   Zn739   2.000   .     S
O734   Zn740   2.000   .     S
O735   Zn739   2.008   .     S
O736   Zn740   2.008   .     S
O737   Zn739   2.005   .     S
O738   Zn740   2.005   .     S
C741   O805    1.280   .     A
C741   O808    1.280   .     A
C741   C759    1.419   .     S
C742   C758    1.397   .     A
C742   H772    1.084   .     S
C742   C818    1.369   .     S
C743   H773    1.084   .     S
C743   C758    1.397   .     A
C743   C844    1.369   .     S
C744   H774    1.084   .     S
C744   C759    1.397   .     A
C745   C749    1.385   .     A
C745   H794    1.085   .     S
C745   C756    1.388   .     A
C746   C750    1.386   .     A
C746   H795    1.084   .     S
C746   C757    1.394   .     A
C747   C751    1.385   .     A
C747   H796    1.084   .     S
C747   C757    1.396   .     A
C748   C753    1.385   .     A
C748   H797    1.085   .     S
C748   C756    1.389   .     A
C749   C754    1.422   .     A
C749   N801    1.423   .     S
C750   N802    1.425   .     S
C750   C755    1.409   .     A
C751   C755    1.407   .     A
C751   N803    1.425   .     S
C752   O807    1.280   .     A
C752   C758    1.419   .     S
C752   O806    1.280   .     A
C753   C754    1.423   .     A
C753   N804    1.424   .     S
C754   C763    1.464   .     S
C755   C765    1.432   .     S
C757   C90     1.438   1_556 S
C759   C770    1.397   .     A
C760   H778    1.111   .     S
C760   H777    1.109   .     S
C760   H776    1.112   .     S
C760   N801    1.447   .     S
C761   N802    1.447   .     S
C761   H781    1.110   .     S
C761   H783    1.110   .     S
C761   H780    1.112   .     S
C762   H787    1.110   .     S
C762   H786    1.110   .     S
C762   H785    1.112   .     S
C762   N803    1.447   .     S
C763   O809    1.292   .     A
C763   O812    1.290   .     A
C764   H791    1.111   .     S
C764   N804    1.447   .     S
C764   H790    1.110   .     S
C764   H789    1.112   .     S
C765   O811    1.282   .     A
C765   O810    1.282   .     A
C766   H771    1.082   .     S
C766   N800    1.366   .     A
C766   C1213   1.414   1_545 S
C767   N799    1.365   .     A
C767   H782    1.081   .     S
C767   C990    1.414   .     S
C768   H792    1.082   .     S
C768   N800    1.365   .     A
C768   C1211   1.414   1_545 S
C769   H793    1.082   .     S
C769   N799    1.366   .     A
C769   C988    1.414   .     S
C770   H798    1.084   .     S
H775   N801    1.032   .     S
H779   N802    1.032   .     S
H784   N803    1.032   .     S
H788   N804    1.032   .     S
N799   Zn813   2.003   .     S
N800   Zn814   2.003   .     S
O805   Zn813   1.999   .     S
O806   Zn814   1.999   .     S
O807   Zn813   2.000   .     S
O808   Zn814   2.000   .     S
O809   Zn813   2.008   .     S
O810   Zn814   2.008   .     S
O811   Zn813   2.005   .     S
O812   Zn814   2.005   .     S
C815   O879    1.280   .     A
C815   O882    1.280   .     A
C815   C833    1.419   .     S
C816   C832    1.397   .     A
C816   H846    1.084   .     S
C816   C670    1.369   1_655 S
C817   H847    1.084   .     S
C817   C832    1.397   .     A
C817   C696    1.369   1_655 S
C818   H848    1.084   .     S
C818   C833    1.397   .     A
C819   C823    1.385   .     A
C819   H868    1.085   .     S
C819   C830    1.388   .     A
C820   C824    1.386   .     A
C820   H869    1.084   .     S
C820   C831    1.394   .     A
C821   C825    1.385   .     A
C821   H870    1.084   .     S
C821   C831    1.396   .     A
C822   C827    1.385   .     A
C822   H871    1.085   .     S
C822   C830    1.389   .     A
C823   C828    1.422   .     A
C823   N875    1.423   .     S
C824   N876    1.425   .     S
C824   C829    1.409   .     A
C825   C829    1.407   .     A
C825   N877    1.425   .     S
C826   O881    1.280   .     A
C826   C832    1.419   .     S
C826   O880    1.280   .     A
C827   C828    1.423   .     A
C827   N878    1.424   .     S
C828   C837    1.464   .     S
C829   C839    1.432   .     S
C831   C164    1.438   1_556 S
C833   C844    1.397   .     A
C834   H852    1.111   .     S
C834   H851    1.109   .     S
C834   H850    1.112   .     S
C834   N875    1.447   .     S
C835   N876    1.447   .     S
C835   H855    1.110   .     S
C835   H857    1.110   .     S
C835   H854    1.112   .     S
C836   H861    1.110   .     S
C836   H860    1.110   .     S
C836   H859    1.112   .     S
C836   N877    1.447   .     S
C837   O883    1.292   .     A
C837   O886    1.290   .     A
C838   H865    1.111   .     S
C838   N878    1.447   .     S
C838   H864    1.110   .     S
C838   H863    1.112   .     S
C839   O885    1.282   .     A
C839   O884    1.282   .     A
C840   H845    1.082   .     S
C840   N874    1.366   .     A
C840   C1287   1.414   1_545 S
C841   N873    1.365   .     A
C841   H856    1.081   .     S
C841   C1064   1.414   .     S
C842   H866    1.082   .     S
C842   N874    1.365   .     A
C842   C1285   1.414   1_545 S
C843   H867    1.082   .     S
C843   N873    1.366   .     A
C843   C1062   1.414   .     S
C844   H872    1.084   .     S
H849   N875    1.032   .     S
H853   N876    1.032   .     S
H858   N877    1.032   .     S
H862   N878    1.032   .     S
N873   Zn887   2.003   .     S
N874   Zn888   2.003   .     S
O879   Zn887   1.999   .     S
O880   Zn888   1.999   .     S
O881   Zn887   2.000   .     S
O882   Zn888   2.000   .     S
O883   Zn887   2.008   .     S
O884   Zn888   2.008   .     S
O885   Zn887   2.005   .     S
O886   Zn888   2.005   .     S
C889   O953    1.280   .     A
C889   O956    1.280   .     A
C889   C907    1.419   .     S
C890   C906    1.397   .     A
C890   H920    1.084   .     S
C890   C966    1.369   .     S
C891   H921    1.084   .     S
C891   C906    1.397   .     A
C891   C992    1.369   .     S
C892   H922    1.084   .     S
C892   C907    1.397   .     A
C892   C1038   1.369   1_455 S
C893   C897    1.385   .     A
C893   H942    1.085   .     S
C893   C904    1.388   .     A
C894   C898    1.386   .     A
C894   H943    1.084   .     S
C894   C905    1.394   .     A
C895   C899    1.385   .     A
C895   H944    1.084   .     S
C895   C905    1.396   .     A
C896   C901    1.385   .     A
C896   H945    1.085   .     S
C896   C904    1.389   .     A
C897   C902    1.422   .     A
C897   N949    1.423   .     S
C898   N950    1.425   .     S
C898   C903    1.409   .     A
C899   C903    1.407   .     A
C899   N951    1.425   .     S
C900   O955    1.280   .     A
C900   C906    1.419   .     S
C900   O954    1.280   .     A
C901   C902    1.423   .     A
C901   N952    1.424   .     S
C902   C911    1.464   .     S
C903   C913    1.432   .     S
C905   C238    1.438   1_556 S
C907   C918    1.397   .     A
C908   H926    1.111   .     S
C908   H925    1.109   .     S
C908   H924    1.112   .     S
C908   N949    1.447   .     S
C909   N950    1.447   .     S
C909   H929    1.110   .     S
C909   H931    1.110   .     S
C909   H928    1.112   .     S
C910   H935    1.110   .     S
C910   H934    1.110   .     S
C910   H933    1.112   .     S
C910   N951    1.447   .     S
C911   O957    1.292   .     A
C911   O960    1.290   .     A
C912   H939    1.111   .     S
C912   N952    1.447   .     S
C912   H938    1.110   .     S
C912   H937    1.112   .     S
C913   O959    1.282   .     A
C913   O958    1.282   .     A
C914   H919    1.082   .     S
C914   N948    1.366   .     A
C915   N947    1.365   .     A
C915   H930    1.081   .     S
C915   C1138   1.414   .     S
C916   H940    1.082   .     S
C916   N948    1.365   .     A
C917   H941    1.082   .     S
C917   N947    1.366   .     A
C917   C1136   1.414   .     S
C918   H946    1.084   .     S
C918   C1039   1.369   1_455 S
H923   N949    1.032   .     S
H927   N950    1.032   .     S
H932   N951    1.032   .     S
H936   N952    1.032   .     S
N947   Zn961   2.003   .     S
N948   Zn962   2.003   .     S
O953   Zn961   1.999   .     S
O954   Zn962   1.999   .     S
O955   Zn961   2.000   .     S
O956   Zn962   2.000   .     S
O957   Zn961   2.008   .     S
O958   Zn962   2.008   .     S
O959   Zn961   2.005   .     S
O960   Zn962   2.005   .     S
C963   O1027   1.280   .     A
C963   O1030   1.280   .     A
C963   C981    1.419   .     S
C964   C980    1.397   .     A
C964   H994    1.084   .     S
C964   C1040   1.369   .     S
C965   H995    1.084   .     S
C965   C980    1.397   .     A
C965   C1066   1.369   .     S
C966   H996    1.084   .     S
C966   C981    1.397   .     A
C967   C971    1.385   .     A
C967   H1016   1.085   .     S
C967   C978    1.388   .     A
C968   C972    1.386   .     A
C968   H1017   1.084   .     S
C968   C979    1.394   .     A
C969   C973    1.385   .     A
C969   H1018   1.084   .     S
C969   C979    1.396   .     A
C970   C975    1.385   .     A
C970   H1019   1.085   .     S
C970   C978    1.389   .     A
C971   C976    1.422   .     A
C971   N1023   1.423   .     S
C972   N1024   1.425   .     S
C972   C977    1.409   .     A
C973   C977    1.407   .     A
C973   N1025   1.425   .     S
C974   O1029   1.280   .     A
C974   C980    1.419   .     S
C974   O1028   1.280   .     A
C975   C976    1.423   .     A
C975   N1026   1.424   .     S
C976   C985    1.464   .     S
C977   C987    1.432   .     S
C979   C312    1.438   1_556 S
C981   C992    1.397   .     A
C982   H1000   1.111   .     S
C982   H999    1.109   .     S
C982   H998    1.112   .     S
C982   N1023   1.447   .     S
C983   N1024   1.447   .     S
C983   H1003   1.110   .     S
C983   H1005   1.110   .     S
C983   H1002   1.112   .     S
C984   H1009   1.110   .     S
C984   H1008   1.110   .     S
C984   H1007   1.112   .     S
C984   N1025   1.447   .     S
C985   O1031   1.292   .     A
C985   O1034   1.290   .     A
C986   H1013   1.111   .     S
C986   N1026   1.447   .     S
C986   H1012   1.110   .     S
C986   H1011   1.112   .     S
C987   O1033   1.282   .     A
C987   O1032   1.282   .     A
C988   H993    1.082   .     S
C988   N1022   1.366   .     A
C989   N1021   1.365   .     A
C989   H1004   1.081   .     S
C989   C1212   1.414   .     S
C990   H1014   1.082   .     S
C990   N1022   1.365   .     A
C991   H1015   1.082   .     S
C991   N1021   1.366   .     A
C991   C1210   1.414   .     S
C992   H1020   1.084   .     S
H997   N1023   1.032   .     S
H1001  N1024   1.032   .     S
H1006  N1025   1.032   .     S
H1010  N1026   1.032   .     S
N1021  Zn1035  2.003   .     S
N1022  Zn1036  2.003   .     S
O1027  Zn1035  1.999   .     S
O1028  Zn1036  1.999   .     S
O1029  Zn1035  2.000   .     S
O1030  Zn1036  2.000   .     S
O1031  Zn1035  2.008   .     S
O1032  Zn1036  2.008   .     S
O1033  Zn1035  2.005   .     S
O1034  Zn1036  2.005   .     S
C1037  O1101   1.280   .     A
C1037  O1104   1.280   .     A
C1037  C1055   1.419   .     S
C1038  C1054   1.397   .     A
C1038  H1068   1.084   .     S
C1038  C892    1.369   1_655 S
C1039  H1069   1.084   .     S
C1039  C1054   1.397   .     A
C1039  C918    1.369   1_655 S
C1040  H1070   1.084   .     S
C1040  C1055   1.397   .     A
C1041  C1045   1.385   .     A
C1041  H1090   1.085   .     S
C1041  C1052   1.388   .     A
C1042  C1046   1.386   .     A
C1042  H1091   1.084   .     S
C1042  C1053   1.394   .     A
C1043  C1047   1.385   .     A
C1043  H1092   1.084   .     S
C1043  C1053   1.396   .     A
C1044  C1049   1.385   .     A
C1044  H1093   1.085   .     S
C1044  C1052   1.389   .     A
C1045  C1050   1.422   .     A
C1045  N1097   1.423   .     S
C1046  N1098   1.425   .     S
C1046  C1051   1.409   .     A
C1047  C1051   1.407   .     A
C1047  N1099   1.425   .     S
C1048  O1103   1.280   .     A
C1048  C1054   1.419   .     S
C1048  O1102   1.280   .     A
C1049  C1050   1.423   .     A
C1049  N1100   1.424   .     S
C1050  C1059   1.464   .     S
C1051  C1061   1.432   .     S
C1053  C386    1.438   1_556 S
C1055  C1066   1.397   .     A
C1056  H1074   1.111   .     S
C1056  H1073   1.109   .     S
C1056  H1072   1.112   .     S
C1056  N1097   1.447   .     S
C1057  N1098   1.447   .     S
C1057  H1077   1.110   .     S
C1057  H1079   1.110   .     S
C1057  H1076   1.112   .     S
C1058  H1083   1.110   .     S
C1058  H1082   1.110   .     S
C1058  H1081   1.112   .     S
C1058  N1099   1.447   .     S
C1059  O1105   1.292   .     A
C1059  O1108   1.290   .     A
C1060  H1087   1.111   .     S
C1060  N1100   1.447   .     S
C1060  H1086   1.110   .     S
C1060  H1085   1.112   .     S
C1061  O1107   1.282   .     A
C1061  O1106   1.282   .     A
C1062  H1067   1.082   .     S
C1062  N1096   1.366   .     A
C1063  N1095   1.365   .     A
C1063  H1078   1.081   .     S
C1063  C1286   1.414   .     S
C1064  H1088   1.082   .     S
C1064  N1096   1.365   .     A
C1065  H1089   1.082   .     S
C1065  N1095   1.366   .     A
C1065  C1284   1.414   .     S
C1066  H1094   1.084   .     S
H1071  N1097   1.032   .     S
H1075  N1098   1.032   .     S
H1080  N1099   1.032   .     S
H1084  N1100   1.032   .     S
N1095  Zn1109  2.003   .     S
N1096  Zn1110  2.003   .     S
O1101  Zn1109  1.999   .     S
O1102  Zn1110  1.999   .     S
O1103  Zn1109  2.000   .     S
O1104  Zn1110  2.000   .     S
O1105  Zn1109  2.008   .     S
O1106  Zn1110  2.008   .     S
O1107  Zn1109  2.005   .     S
O1108  Zn1110  2.005   .     S
C1111  O1175   1.280   .     A
C1111  O1178   1.280   .     A
C1111  C1129   1.419   .     S
C1112  C1128   1.397   .     A
C1112  H1142   1.084   .     S
C1112  C1188   1.369   .     S
C1113  H1143   1.084   .     S
C1113  C1128   1.397   .     A
C1113  C1214   1.369   .     S
C1114  H1144   1.084   .     S
C1114  C1129   1.397   .     A
C1114  C1260   1.369   1_455 S
C1115  C1119   1.385   .     A
C1115  H1164   1.085   .     S
C1115  C1126   1.388   .     A
C1116  C1120   1.386   .     A
C1116  H1165   1.084   .     S
C1116  C1127   1.394   .     A
C1117  C1121   1.385   .     A
C1117  H1166   1.084   .     S
C1117  C1127   1.396   .     A
C1118  C1123   1.385   .     A
C1118  H1167   1.085   .     S
C1118  C1126   1.389   .     A
C1119  C1124   1.422   .     A
C1119  N1171   1.423   .     S
C1120  N1172   1.425   .     S
C1120  C1125   1.409   .     A
C1121  C1125   1.407   .     A
C1121  N1173   1.425   .     S
C1122  O1177   1.280   .     A
C1122  C1128   1.419   .     S
C1122  O1176   1.280   .     A
C1123  C1124   1.423   .     A
C1123  N1174   1.424   .     S
C1124  C1133   1.464   .     S
C1125  C1135   1.432   .     S
C1127  C460    1.438   1_556 S
C1129  C1140   1.397   .     A
C1130  H1148   1.111   .     S
C1130  H1147   1.109   .     S
C1130  H1146   1.112   .     S
C1130  N1171   1.447   .     S
C1131  N1172   1.447   .     S
C1131  H1151   1.110   .     S
C1131  H1153   1.110   .     S
C1131  H1150   1.112   .     S
C1132  H1157   1.110   .     S
C1132  H1156   1.110   .     S
C1132  H1155   1.112   .     S
C1132  N1173   1.447   .     S
C1133  O1179   1.292   .     A
C1133  O1182   1.290   .     A
C1134  H1161   1.111   .     S
C1134  N1174   1.447   .     S
C1134  H1160   1.110   .     S
C1134  H1159   1.112   .     S
C1135  O1181   1.282   .     A
C1135  O1180   1.282   .     A
C1136  H1141   1.082   .     S
C1136  N1170   1.366   .     A
C1137  N1169   1.365   .     A
C1137  H1152   1.081   .     S
C1137  C694    1.414   1_565 S
C1138  H1162   1.082   .     S
C1138  N1170   1.365   .     A
C1139  H1163   1.082   .     S
C1139  N1169   1.366   .     A
C1139  C692    1.414   1_565 S
C1140  H1168   1.084   .     S
C1140  C1261   1.369   1_455 S
H1145  N1171   1.032   .     S
H1149  N1172   1.032   .     S
H1154  N1173   1.032   .     S
H1158  N1174   1.032   .     S
N1169  Zn1183  2.003   .     S
N1170  Zn1184  2.003   .     S
O1175  Zn1183  1.999   .     S
O1176  Zn1184  1.999   .     S
O1177  Zn1183  2.000   .     S
O1178  Zn1184  2.000   .     S
O1179  Zn1183  2.008   .     S
O1180  Zn1184  2.008   .     S
O1181  Zn1183  2.005   .     S
O1182  Zn1184  2.005   .     S
C1185  O1249   1.280   .     A
C1185  O1252   1.280   .     A
C1185  C1203   1.419   .     S
C1186  C1202   1.397   .     A
C1186  H1216   1.084   .     S
C1186  C1262   1.369   .     S
C1187  H1217   1.084   .     S
C1187  C1202   1.397   .     A
C1187  C1288   1.369   .     S
C1188  H1218   1.084   .     S
C1188  C1203   1.397   .     A
C1189  C1193   1.385   .     A
C1189  H1238   1.085   .     S
C1189  C1200   1.388   .     A
C1190  C1194   1.386   .     A
C1190  H1239   1.084   .     S
C1190  C1201   1.394   .     A
C1191  C1195   1.385   .     A
C1191  H1240   1.084   .     S
C1191  C1201   1.396   .     A
C1192  C1197   1.385   .     A
C1192  H1241   1.085   .     S
C1192  C1200   1.389   .     A
C1193  C1198   1.422   .     A
C1193  N1245   1.423   .     S
C1194  N1246   1.425   .     S
C1194  C1199   1.409   .     A
C1195  C1199   1.407   .     A
C1195  N1247   1.425   .     S
C1196  O1251   1.280   .     A
C1196  C1202   1.419   .     S
C1196  O1250   1.280   .     A
C1197  C1198   1.423   .     A
C1197  N1248   1.424   .     S
C1198  C1207   1.464   .     S
C1199  C1209   1.432   .     S
C1201  C534    1.438   1_556 S
C1203  C1214   1.397   .     A
C1204  H1222   1.111   .     S
C1204  H1221   1.109   .     S
C1204  H1220   1.112   .     S
C1204  N1245   1.447   .     S
C1205  N1246   1.447   .     S
C1205  H1225   1.110   .     S
C1205  H1227   1.110   .     S
C1205  H1224   1.112   .     S
C1206  H1231   1.110   .     S
C1206  H1230   1.110   .     S
C1206  H1229   1.112   .     S
C1206  N1247   1.447   .     S
C1207  O1253   1.292   .     A
C1207  O1256   1.290   .     A
C1208  H1235   1.111   .     S
C1208  N1248   1.447   .     S
C1208  H1234   1.110   .     S
C1208  H1233   1.112   .     S
C1209  O1255   1.282   .     A
C1209  O1254   1.282   .     A
C1210  H1215   1.082   .     S
C1210  N1244   1.366   .     A
C1211  N1243   1.365   .     A
C1211  H1226   1.081   .     S
C1211  C768    1.414   1_565 S
C1212  H1236   1.082   .     S
C1212  N1244   1.365   .     A
C1213  H1237   1.082   .     S
C1213  N1243   1.366   .     A
C1213  C766    1.414   1_565 S
C1214  H1242   1.084   .     S
H1219  N1245   1.032   .     S
H1223  N1246   1.032   .     S
H1228  N1247   1.032   .     S
H1232  N1248   1.032   .     S
N1243  Zn1257  2.003   .     S
N1244  Zn1258  2.003   .     S
O1249  Zn1257  1.999   .     S
O1250  Zn1258  1.999   .     S
O1251  Zn1257  2.000   .     S
O1252  Zn1258  2.000   .     S
O1253  Zn1257  2.008   .     S
O1254  Zn1258  2.008   .     S
O1255  Zn1257  2.005   .     S
O1256  Zn1258  2.005   .     S
C1259  O1323   1.280   .     A
C1259  O1326   1.280   .     A
C1259  C1277   1.419   .     S
C1260  C1276   1.397   .     A
C1260  H1290   1.084   .     S
C1260  C1114   1.369   1_655 S
C1261  H1291   1.084   .     S
C1261  C1276   1.397   .     A
C1261  C1140   1.369   1_655 S
C1262  H1292   1.084   .     S
C1262  C1277   1.397   .     A
C1263  C1267   1.385   .     A
C1263  H1312   1.085   .     S
C1263  C1274   1.388   .     A
C1264  C1268   1.386   .     A
C1264  H1313   1.084   .     S
C1264  C1275   1.394   .     A
C1265  C1269   1.385   .     A
C1265  H1314   1.084   .     S
C1265  C1275   1.396   .     A
C1266  C1271   1.385   .     A
C1266  H1315   1.085   .     S
C1266  C1274   1.389   .     A
C1267  C1272   1.422   .     A
C1267  N1319   1.423   .     S
C1268  N1320   1.425   .     S
C1268  C1273   1.409   .     A
C1269  C1273   1.407   .     A
C1269  N1321   1.425   .     S
C1270  O1325   1.280   .     A
C1270  C1276   1.419   .     S
C1270  O1324   1.280   .     A
C1271  C1272   1.423   .     A
C1271  N1322   1.424   .     S
C1272  C1281   1.464   .     S
C1273  C1283   1.432   .     S
C1275  C608    1.438   1_556 S
C1277  C1288   1.397   .     A
C1278  H1296   1.111   .     S
C1278  H1295   1.109   .     S
C1278  H1294   1.112   .     S
C1278  N1319   1.447   .     S
C1279  N1320   1.447   .     S
C1279  H1299   1.110   .     S
C1279  H1301   1.110   .     S
C1279  H1298   1.112   .     S
C1280  H1305   1.110   .     S
C1280  H1304   1.110   .     S
C1280  H1303   1.112   .     S
C1280  N1321   1.447   .     S
C1281  O1327   1.292   .     A
C1281  O1330   1.290   .     A
C1282  H1309   1.111   .     S
C1282  N1322   1.447   .     S
C1282  H1308   1.110   .     S
C1282  H1307   1.112   .     S
C1283  O1329   1.282   .     A
C1283  O1328   1.282   .     A
C1284  H1289   1.082   .     S
C1284  N1318   1.366   .     A
C1285  N1317   1.365   .     A
C1285  H1300   1.081   .     S
C1285  C842    1.414   1_565 S
C1286  H1310   1.082   .     S
C1286  N1318   1.365   .     A
C1287  H1311   1.082   .     S
C1287  N1317   1.366   .     A
C1287  C840    1.414   1_565 S
C1288  H1316   1.084   .     S
H1293  N1319   1.032   .     S
H1297  N1320   1.032   .     S
H1302  N1321   1.032   .     S
H1306  N1322   1.032   .     S
N1317  Zn1331  2.003   .     S
N1318  Zn1332  2.003   .     S
O1323  Zn1331  1.999   .     S
O1324  Zn1332  1.999   .     S
O1325  Zn1331  2.000   .     S
O1326  Zn1332  2.000   .     S
O1327  Zn1331  2.008   .     S
O1328  Zn1332  2.008   .     S
O1329  Zn1331  2.005   .     S
O1330  Zn1332  2.005   .     S
