data_str_m3_o1_o17_pcu_sym.165
_audit_creation_date              2020-01-03
_audit_creation_method            'Materials Studio'
_symmetry_space_group_name_H-M    'P1'
_symmetry_Int_Tables_number       1
_symmetry_cell_setting            triclinic
loop_
_symmetry_equiv_pos_as_xyz
  x,y,z
_cell_length_a                    32.3229
_cell_length_b                    29.5264
_cell_length_c                    29.7779
_cell_angle_alpha                 90.0282
_cell_angle_beta                  88.9362
_cell_angle_gamma                 89.9102
loop_
_atom_site_label
_atom_site_type_symbol
_atom_site_fract_x
_atom_site_fract_y
_atom_site_fract_z
_atom_site_U_iso_or_equiv
_atom_site_adp_type
_atom_site_occupancy
O1     O     0.10559   0.20487   0.25000   0.00000  Uiso   1.00
O2     O     0.22774   0.12846   0.25001   0.00000  Uiso   1.00
O3     O     0.22774   0.20487   0.25001   0.00000  Uiso   1.00
O4     O     0.10559   0.12846   0.25000   0.00000  Uiso   1.00
C5     C     0.08660   0.16669   0.24997   0.00000  Uiso   1.00
C6     C     0.24674   0.16665   0.25002   0.00000  Uiso   1.00
O7     O     0.16666   0.20489   0.18393   0.00000  Uiso   1.00
O8     O     0.16667   0.12844   0.31608   0.00000  Uiso   1.00
O9     O     0.16667   0.20489   0.31608   0.00000  Uiso   1.00
O10    O     0.16666   0.12844   0.18393   0.00000  Uiso   1.00
C11    C     0.16759   0.16667   0.16355   0.00000  Uiso   1.00
C12    C     0.16579   0.16670   0.33646   0.00000  Uiso   1.00
Zn13   Zn    0.16667   0.21771   0.25000   0.00000  Uiso   1.00
Zn14   Zn    0.16667   0.11563   0.25000   0.00000  Uiso   1.00
C15    C     0.20276   0.17405   0.40525   0.00000  Uiso   1.00
C16    C     0.13042   0.16299   0.09461   0.00000  Uiso   1.00
C17    C     0.16573   0.16702   0.38404   0.00000  Uiso   1.00
C18    C     0.16769   0.16690   0.11597   0.00000  Uiso   1.00
C19    C     0.12859   0.16272   0.40751   0.00000  Uiso   1.00
C20    C     0.20451   0.17378   0.09261   0.00000  Uiso   1.00
C21    C     0.12791   0.16490   0.45432   0.00000  Uiso   1.00
C22    C     0.20479   0.17560   0.04576   0.00000  Uiso   1.00
C23    C     0.16613   0.17042   0.47659   0.00000  Uiso   1.00
C24    C     0.16670   0.17046   0.02336   0.00000  Uiso   1.00
C25    C     0.20379   0.17561   0.45187   0.00000  Uiso   1.00
C26    C     0.12908   0.16593   0.04806   0.00000  Uiso   1.00
C27    C     0.09009   0.16272   0.47905   0.00000  Uiso   1.00
C28    C     0.24199   0.18300   0.02117   0.00000  Uiso   1.00
C29    C     0.09081   0.16555   0.02612   0.00000  Uiso   1.00
C30    C     0.24145   0.18301   0.47399   0.00000  Uiso   1.00
H31    H     0.23037   0.17829   0.38458   0.00000  Uiso   1.00
H32    H     0.10271   0.15832   0.11506   0.00000  Uiso   1.00
H33    H     0.10058   0.15855   0.38857   0.00000  Uiso   1.00
H34    H     0.23251   0.17739   0.11168   0.00000  Uiso   1.00
C35    C     0.02139   0.12576   0.24463   0.00000  Uiso   1.00
C36    C     0.31194   0.20759   0.25533   0.00000  Uiso   1.00
C37    C     0.31225   0.12573   0.24470   0.00000  Uiso   1.00
C38    C     0.02109   0.20762   0.25525   0.00000  Uiso   1.00
H39    H     0.03762   0.09388   0.24028   0.00000  Uiso   1.00
H40    H     0.29571   0.23947   0.25969   0.00000  Uiso   1.00
H41    H     0.29626   0.09383   0.24041   0.00000  Uiso   1.00
H42    H     0.03707   0.23952   0.25954   0.00000  Uiso   1.00
C43    C     0.29090   0.16664   0.25004   0.00000  Uiso   1.00
C44    C     0.04244   0.16670   0.24993   0.00000  Uiso   1.00
C45    C     0.19397   0.02395   0.27550   0.00000  Uiso   1.00
C46    C     0.13936   0.30939   0.22450   0.00000  Uiso   1.00
C47    C     0.13936   0.02401   0.22450   0.00000  Uiso   1.00
C48    C     0.19397   0.30932   0.27550   0.00000  Uiso   1.00
H49    H     0.21580   0.04209   0.29590   0.00000  Uiso   1.00
H50    H     0.11754   0.29124   0.20410   0.00000  Uiso   1.00
H51    H     0.11753   0.04221   0.20410   0.00000  Uiso   1.00
H52    H     0.21579   0.29112   0.29591   0.00000  Uiso   1.00
N53    N     0.16667   0.28573   0.25000   0.00000  Uiso   1.00
N54    N     0.16667   0.04760   0.25000   0.00000  Uiso   1.00
C55    C     0.04923   0.15742   0.45547   0.00000  Uiso   1.00
H56    H     0.04994   0.12641   0.43435   0.00000  Uiso   1.00
H57    H     0.02254   0.15355   0.47899   0.00000  Uiso   1.00
H58    H     0.04356   0.18750   0.43407   0.00000  Uiso   1.00
C59    C     0.28205   0.19101   0.04525   0.00000  Uiso   1.00
H60    H     0.27859   0.22082   0.06779   0.00000  Uiso   1.00
H61    H     0.29026   0.16058   0.06512   0.00000  Uiso   1.00
H62    H     0.30832   0.19825   0.02217   0.00000  Uiso   1.00
N63    N     0.05307   0.17130   0.05102   0.00000  Uiso   1.00
H64    H     0.04721   0.14653   0.07466   0.00000  Uiso   1.00
C65    C     0.04631   0.21705   0.06738   0.00000  Uiso   1.00
H66    H     0.01826   0.21819   0.08935   0.00000  Uiso   1.00
H67    H     0.04211   0.24045   0.03862   0.00000  Uiso   1.00
H68    H     0.07267   0.22900   0.08758   0.00000  Uiso   1.00
N69    N     0.27909   0.19021   0.44925   0.00000  Uiso   1.00
H70    H     0.28566   0.16671   0.42450   0.00000  Uiso   1.00
C71    C     0.28635   0.23667   0.43586   0.00000  Uiso   1.00
H72    H     0.31725   0.23948   0.41923   0.00000  Uiso   1.00
H73    H     0.28570   0.25922   0.46574   0.00000  Uiso   1.00
H74    H     0.26252   0.24802   0.41192   0.00000  Uiso   1.00
O75    O     0.43892   0.20487   0.25000   0.00000  Uiso   1.00
O76    O     0.56108   0.12846   0.25001   0.00000  Uiso   1.00
O77    O     0.56108   0.20487   0.25001   0.00000  Uiso   1.00
O78    O     0.43892   0.12846   0.25000   0.00000  Uiso   1.00
C79    C     0.41993   0.16669   0.24997   0.00000  Uiso   1.00
C80    C     0.58007   0.16665   0.25002   0.00000  Uiso   1.00
O81    O     0.49999   0.20489   0.18393   0.00000  Uiso   1.00
O82    O     0.50001   0.12844   0.31608   0.00000  Uiso   1.00
O83    O     0.50001   0.20489   0.31608   0.00000  Uiso   1.00
O84    O     0.49999   0.12844   0.18393   0.00000  Uiso   1.00
C85    C     0.50092   0.16667   0.16355   0.00000  Uiso   1.00
C86    C     0.49912   0.16670   0.33646   0.00000  Uiso   1.00
Zn87   Zn    0.50000   0.21771   0.25000   0.00000  Uiso   1.00
Zn88   Zn    0.50000   0.11563   0.25000   0.00000  Uiso   1.00
C89    C     0.53609   0.17405   0.40525   0.00000  Uiso   1.00
C90    C     0.46375   0.16299   0.09461   0.00000  Uiso   1.00
C91    C     0.49906   0.16702   0.38404   0.00000  Uiso   1.00
C92    C     0.50103   0.16690   0.11597   0.00000  Uiso   1.00
C93    C     0.46192   0.16272   0.40751   0.00000  Uiso   1.00
C94    C     0.53784   0.17378   0.09261   0.00000  Uiso   1.00
C95    C     0.46125   0.16490   0.45432   0.00000  Uiso   1.00
C96    C     0.53813   0.17560   0.04576   0.00000  Uiso   1.00
C97    C     0.49946   0.17042   0.47659   0.00000  Uiso   1.00
C98    C     0.50004   0.17046   0.02336   0.00000  Uiso   1.00
C99    C     0.53712   0.17561   0.45187   0.00000  Uiso   1.00
C100   C     0.46241   0.16593   0.04806   0.00000  Uiso   1.00
C101   C     0.42343   0.16272   0.47905   0.00000  Uiso   1.00
C102   C     0.57532   0.18300   0.02117   0.00000  Uiso   1.00
C103   C     0.42414   0.16555   0.02612   0.00000  Uiso   1.00
C104   C     0.57479   0.18301   0.47399   0.00000  Uiso   1.00
H105   H     0.56370   0.17829   0.38458   0.00000  Uiso   1.00
H106   H     0.43605   0.15832   0.11506   0.00000  Uiso   1.00
H107   H     0.43391   0.15855   0.38857   0.00000  Uiso   1.00
H108   H     0.56584   0.17739   0.11168   0.00000  Uiso   1.00
C109   C     0.35473   0.12576   0.24463   0.00000  Uiso   1.00
C110   C     0.64527   0.20759   0.25533   0.00000  Uiso   1.00
C111   C     0.64558   0.12573   0.24470   0.00000  Uiso   1.00
C112   C     0.35442   0.20762   0.25525   0.00000  Uiso   1.00
H113   H     0.37096   0.09388   0.24028   0.00000  Uiso   1.00
H114   H     0.62904   0.23947   0.25969   0.00000  Uiso   1.00
H115   H     0.62960   0.09383   0.24041   0.00000  Uiso   1.00
H116   H     0.37041   0.23952   0.25954   0.00000  Uiso   1.00
C117   C     0.62423   0.16664   0.25004   0.00000  Uiso   1.00
C118   C     0.37577   0.16670   0.24993   0.00000  Uiso   1.00
C119   C     0.52731   0.02395   0.27550   0.00000  Uiso   1.00
C120   C     0.47269   0.30939   0.22450   0.00000  Uiso   1.00
C121   C     0.47269   0.02401   0.22450   0.00000  Uiso   1.00
C122   C     0.52731   0.30932   0.27550   0.00000  Uiso   1.00
H123   H     0.54913   0.04209   0.29590   0.00000  Uiso   1.00
H124   H     0.45087   0.29124   0.20410   0.00000  Uiso   1.00
H125   H     0.45087   0.04221   0.20410   0.00000  Uiso   1.00
H126   H     0.54913   0.29112   0.29591   0.00000  Uiso   1.00
N127   N     0.50000   0.28573   0.25000   0.00000  Uiso   1.00
N128   N     0.50000   0.04760   0.25000   0.00000  Uiso   1.00
C129   C     0.38256   0.15742   0.45547   0.00000  Uiso   1.00
H130   H     0.38328   0.12641   0.43435   0.00000  Uiso   1.00
H131   H     0.35588   0.15355   0.47899   0.00000  Uiso   1.00
H132   H     0.37689   0.18750   0.43407   0.00000  Uiso   1.00
C133   C     0.61538   0.19101   0.04525   0.00000  Uiso   1.00
H134   H     0.61193   0.22082   0.06779   0.00000  Uiso   1.00
H135   H     0.62360   0.16058   0.06512   0.00000  Uiso   1.00
H136   H     0.64165   0.19825   0.02217   0.00000  Uiso   1.00
N137   N     0.38640   0.17130   0.05102   0.00000  Uiso   1.00
H138   H     0.38055   0.14653   0.07466   0.00000  Uiso   1.00
C139   C     0.37964   0.21705   0.06738   0.00000  Uiso   1.00
H140   H     0.35160   0.21819   0.08935   0.00000  Uiso   1.00
H141   H     0.37544   0.24045   0.03862   0.00000  Uiso   1.00
H142   H     0.40600   0.22900   0.08758   0.00000  Uiso   1.00
N143   N     0.61243   0.19021   0.44925   0.00000  Uiso   1.00
H144   H     0.61899   0.16671   0.42450   0.00000  Uiso   1.00
C145   C     0.61968   0.23667   0.43586   0.00000  Uiso   1.00
H146   H     0.65058   0.23948   0.41923   0.00000  Uiso   1.00
H147   H     0.61903   0.25922   0.46574   0.00000  Uiso   1.00
H148   H     0.59585   0.24802   0.41192   0.00000  Uiso   1.00
O149   O     0.77226   0.20487   0.25000   0.00000  Uiso   1.00
O150   O     0.89441   0.12846   0.25001   0.00000  Uiso   1.00
O151   O     0.89441   0.20487   0.25001   0.00000  Uiso   1.00
O152   O     0.77226   0.12846   0.25000   0.00000  Uiso   1.00
C153   C     0.75326   0.16669   0.24997   0.00000  Uiso   1.00
C154   C     0.91340   0.16665   0.25002   0.00000  Uiso   1.00
O155   O     0.83333   0.20489   0.18393   0.00000  Uiso   1.00
O156   O     0.83334   0.12844   0.31608   0.00000  Uiso   1.00
O157   O     0.83334   0.20489   0.31608   0.00000  Uiso   1.00
O158   O     0.83333   0.12844   0.18393   0.00000  Uiso   1.00
C159   C     0.83425   0.16667   0.16355   0.00000  Uiso   1.00
C160   C     0.83246   0.16670   0.33646   0.00000  Uiso   1.00
Zn161  Zn    0.83333   0.21771   0.25000   0.00000  Uiso   1.00
Zn162  Zn    0.83333   0.11563   0.25000   0.00000  Uiso   1.00
C163   C     0.86942   0.17405   0.40525   0.00000  Uiso   1.00
C164   C     0.79709   0.16299   0.09461   0.00000  Uiso   1.00
C165   C     0.83239   0.16702   0.38404   0.00000  Uiso   1.00
C166   C     0.83436   0.16690   0.11597   0.00000  Uiso   1.00
C167   C     0.79526   0.16272   0.40751   0.00000  Uiso   1.00
C168   C     0.87117   0.17378   0.09261   0.00000  Uiso   1.00
C169   C     0.79458   0.16490   0.45432   0.00000  Uiso   1.00
C170   C     0.87146   0.17560   0.04576   0.00000  Uiso   1.00
C171   C     0.83279   0.17042   0.47659   0.00000  Uiso   1.00
C172   C     0.83337   0.17046   0.02336   0.00000  Uiso   1.00
C173   C     0.87046   0.17561   0.45187   0.00000  Uiso   1.00
C174   C     0.79574   0.16593   0.04806   0.00000  Uiso   1.00
C175   C     0.75676   0.16272   0.47905   0.00000  Uiso   1.00
C176   C     0.90865   0.18300   0.02117   0.00000  Uiso   1.00
C177   C     0.75748   0.16555   0.02612   0.00000  Uiso   1.00
C178   C     0.90812   0.18301   0.47399   0.00000  Uiso   1.00
H179   H     0.89704   0.17829   0.38458   0.00000  Uiso   1.00
H180   H     0.76938   0.15832   0.11506   0.00000  Uiso   1.00
H181   H     0.76725   0.15855   0.38857   0.00000  Uiso   1.00
H182   H     0.89917   0.17739   0.11168   0.00000  Uiso   1.00
C183   C     0.68806   0.12576   0.24463   0.00000  Uiso   1.00
C184   C     0.97861   0.20759   0.25533   0.00000  Uiso   1.00
C185   C     0.97891   0.12573   0.24470   0.00000  Uiso   1.00
C186   C     0.68775   0.20762   0.25525   0.00000  Uiso   1.00
H187   H     0.70429   0.09388   0.24028   0.00000  Uiso   1.00
H188   H     0.96238   0.23947   0.25969   0.00000  Uiso   1.00
H189   H     0.96293   0.09383   0.24041   0.00000  Uiso   1.00
H190   H     0.70374   0.23952   0.25954   0.00000  Uiso   1.00
C191   C     0.95756   0.16664   0.25004   0.00000  Uiso   1.00
C192   C     0.70910   0.16670   0.24993   0.00000  Uiso   1.00
C193   C     0.86064   0.02395   0.27550   0.00000  Uiso   1.00
C194   C     0.80603   0.30939   0.22450   0.00000  Uiso   1.00
C195   C     0.80603   0.02401   0.22450   0.00000  Uiso   1.00
C196   C     0.86064   0.30932   0.27550   0.00000  Uiso   1.00
H197   H     0.88247   0.04209   0.29590   0.00000  Uiso   1.00
H198   H     0.78420   0.29124   0.20410   0.00000  Uiso   1.00
H199   H     0.78420   0.04221   0.20410   0.00000  Uiso   1.00
H200   H     0.88246   0.29112   0.29591   0.00000  Uiso   1.00
N201   N     0.83333   0.28573   0.25000   0.00000  Uiso   1.00
N202   N     0.83333   0.04760   0.25000   0.00000  Uiso   1.00
C203   C     0.71590   0.15742   0.45547   0.00000  Uiso   1.00
H204   H     0.71661   0.12641   0.43435   0.00000  Uiso   1.00
H205   H     0.68921   0.15355   0.47899   0.00000  Uiso   1.00
H206   H     0.71023   0.18750   0.43407   0.00000  Uiso   1.00
C207   C     0.94871   0.19101   0.04525   0.00000  Uiso   1.00
H208   H     0.94526   0.22082   0.06779   0.00000  Uiso   1.00
H209   H     0.95693   0.16058   0.06512   0.00000  Uiso   1.00
H210   H     0.97498   0.19825   0.02217   0.00000  Uiso   1.00
N211   N     0.71974   0.17130   0.05102   0.00000  Uiso   1.00
H212   H     0.71388   0.14653   0.07466   0.00000  Uiso   1.00
C213   C     0.71297   0.21705   0.06738   0.00000  Uiso   1.00
H214   H     0.68493   0.21819   0.08935   0.00000  Uiso   1.00
H215   H     0.70877   0.24045   0.03862   0.00000  Uiso   1.00
H216   H     0.73933   0.22900   0.08758   0.00000  Uiso   1.00
N217   N     0.94576   0.19021   0.44925   0.00000  Uiso   1.00
H218   H     0.95232   0.16671   0.42450   0.00000  Uiso   1.00
C219   C     0.95301   0.23667   0.43586   0.00000  Uiso   1.00
H220   H     0.98392   0.23948   0.41923   0.00000  Uiso   1.00
H221   H     0.95236   0.25922   0.46574   0.00000  Uiso   1.00
H222   H     0.92918   0.24802   0.41192   0.00000  Uiso   1.00
O223   O     0.10559   0.53821   0.25000   0.00000  Uiso   1.00
O224   O     0.22774   0.46179   0.25001   0.00000  Uiso   1.00
O225   O     0.22774   0.53821   0.25001   0.00000  Uiso   1.00
O226   O     0.10559   0.46179   0.25000   0.00000  Uiso   1.00
C227   C     0.08660   0.50002   0.24997   0.00000  Uiso   1.00
C228   C     0.24674   0.49998   0.25002   0.00000  Uiso   1.00
O229   O     0.16666   0.53823   0.18393   0.00000  Uiso   1.00
O230   O     0.16667   0.46177   0.31608   0.00000  Uiso   1.00
O231   O     0.16667   0.53823   0.31608   0.00000  Uiso   1.00
O232   O     0.16666   0.46177   0.18393   0.00000  Uiso   1.00
C233   C     0.16759   0.50000   0.16355   0.00000  Uiso   1.00
C234   C     0.16579   0.50003   0.33646   0.00000  Uiso   1.00
Zn235  Zn    0.16667   0.55104   0.25000   0.00000  Uiso   1.00
Zn236  Zn    0.16667   0.44896   0.25000   0.00000  Uiso   1.00
C237   C     0.20276   0.50739   0.40525   0.00000  Uiso   1.00
C238   C     0.13042   0.49633   0.09461   0.00000  Uiso   1.00
C239   C     0.16573   0.50035   0.38404   0.00000  Uiso   1.00
C240   C     0.16769   0.50024   0.11597   0.00000  Uiso   1.00
C241   C     0.12859   0.49606   0.40751   0.00000  Uiso   1.00
C242   C     0.20451   0.50711   0.09261   0.00000  Uiso   1.00
C243   C     0.12791   0.49824   0.45432   0.00000  Uiso   1.00
C244   C     0.20479   0.50893   0.04576   0.00000  Uiso   1.00
C245   C     0.16613   0.50376   0.47659   0.00000  Uiso   1.00
C246   C     0.16670   0.50380   0.02336   0.00000  Uiso   1.00
C247   C     0.20379   0.50894   0.45187   0.00000  Uiso   1.00
C248   C     0.12908   0.49926   0.04806   0.00000  Uiso   1.00
C249   C     0.09009   0.49605   0.47905   0.00000  Uiso   1.00
C250   C     0.24199   0.51633   0.02117   0.00000  Uiso   1.00
C251   C     0.09081   0.49889   0.02612   0.00000  Uiso   1.00
C252   C     0.24145   0.51635   0.47399   0.00000  Uiso   1.00
H253   H     0.23037   0.51162   0.38458   0.00000  Uiso   1.00
H254   H     0.10271   0.49166   0.11506   0.00000  Uiso   1.00
H255   H     0.10058   0.49188   0.38857   0.00000  Uiso   1.00
H256   H     0.23251   0.51072   0.11168   0.00000  Uiso   1.00
C257   C     0.02139   0.45909   0.24463   0.00000  Uiso   1.00
C258   C     0.31194   0.54092   0.25533   0.00000  Uiso   1.00
C259   C     0.31225   0.45906   0.24470   0.00000  Uiso   1.00
C260   C     0.02109   0.54095   0.25525   0.00000  Uiso   1.00
H261   H     0.03762   0.42721   0.24028   0.00000  Uiso   1.00
H262   H     0.29571   0.57281   0.25969   0.00000  Uiso   1.00
H263   H     0.29626   0.42717   0.24041   0.00000  Uiso   1.00
H264   H     0.03707   0.57285   0.25954   0.00000  Uiso   1.00
C265   C     0.29090   0.49998   0.25004   0.00000  Uiso   1.00
C266   C     0.04244   0.50004   0.24993   0.00000  Uiso   1.00
C267   C     0.19397   0.35728   0.27550   0.00000  Uiso   1.00
C268   C     0.13936   0.64272   0.22450   0.00000  Uiso   1.00
C269   C     0.13936   0.35735   0.22450   0.00000  Uiso   1.00
C270   C     0.19397   0.64265   0.27550   0.00000  Uiso   1.00
H271   H     0.21580   0.37542   0.29590   0.00000  Uiso   1.00
H272   H     0.11754   0.62458   0.20410   0.00000  Uiso   1.00
H273   H     0.11753   0.37555   0.20410   0.00000  Uiso   1.00
H274   H     0.21579   0.62445   0.29591   0.00000  Uiso   1.00
N275   N     0.16667   0.61907   0.25000   0.00000  Uiso   1.00
N276   N     0.16667   0.38093   0.25000   0.00000  Uiso   1.00
C277   C     0.04923   0.49076   0.45547   0.00000  Uiso   1.00
H278   H     0.04994   0.45974   0.43435   0.00000  Uiso   1.00
H279   H     0.02254   0.48689   0.47899   0.00000  Uiso   1.00
H280   H     0.04356   0.52083   0.43407   0.00000  Uiso   1.00
C281   C     0.28205   0.52434   0.04525   0.00000  Uiso   1.00
H282   H     0.27859   0.55415   0.06779   0.00000  Uiso   1.00
H283   H     0.29026   0.49391   0.06512   0.00000  Uiso   1.00
H284   H     0.30832   0.53159   0.02217   0.00000  Uiso   1.00
N285   N     0.05307   0.50463   0.05102   0.00000  Uiso   1.00
H286   H     0.04721   0.47986   0.07466   0.00000  Uiso   1.00
C287   C     0.04631   0.55038   0.06738   0.00000  Uiso   1.00
H288   H     0.01826   0.55152   0.08935   0.00000  Uiso   1.00
H289   H     0.04211   0.57379   0.03862   0.00000  Uiso   1.00
H290   H     0.07267   0.56233   0.08758   0.00000  Uiso   1.00
N291   N     0.27909   0.52354   0.44925   0.00000  Uiso   1.00
H292   H     0.28566   0.50005   0.42450   0.00000  Uiso   1.00
C293   C     0.28635   0.57000   0.43586   0.00000  Uiso   1.00
H294   H     0.31725   0.57281   0.41923   0.00000  Uiso   1.00
H295   H     0.28570   0.59256   0.46574   0.00000  Uiso   1.00
H296   H     0.26252   0.58136   0.41192   0.00000  Uiso   1.00
O297   O     0.43892   0.53821   0.25000   0.00000  Uiso   1.00
O298   O     0.56108   0.46179   0.25001   0.00000  Uiso   1.00
O299   O     0.56108   0.53821   0.25001   0.00000  Uiso   1.00
O300   O     0.43892   0.46179   0.25000   0.00000  Uiso   1.00
C301   C     0.41993   0.50002   0.24997   0.00000  Uiso   1.00
C302   C     0.58007   0.49998   0.25002   0.00000  Uiso   1.00
O303   O     0.49999   0.53823   0.18393   0.00000  Uiso   1.00
O304   O     0.50001   0.46177   0.31608   0.00000  Uiso   1.00
O305   O     0.50001   0.53823   0.31608   0.00000  Uiso   1.00
O306   O     0.49999   0.46177   0.18393   0.00000  Uiso   1.00
C307   C     0.50092   0.50000   0.16355   0.00000  Uiso   1.00
C308   C     0.49912   0.50003   0.33646   0.00000  Uiso   1.00
Zn309  Zn    0.50000   0.55104   0.25000   0.00000  Uiso   1.00
Zn310  Zn    0.50000   0.44896   0.25000   0.00000  Uiso   1.00
C311   C     0.53609   0.50739   0.40525   0.00000  Uiso   1.00
C312   C     0.46375   0.49633   0.09461   0.00000  Uiso   1.00
C313   C     0.49906   0.50035   0.38404   0.00000  Uiso   1.00
C314   C     0.50103   0.50024   0.11597   0.00000  Uiso   1.00
C315   C     0.46192   0.49606   0.40751   0.00000  Uiso   1.00
C316   C     0.53784   0.50711   0.09261   0.00000  Uiso   1.00
C317   C     0.46125   0.49824   0.45432   0.00000  Uiso   1.00
C318   C     0.53813   0.50893   0.04576   0.00000  Uiso   1.00
C319   C     0.49946   0.50376   0.47659   0.00000  Uiso   1.00
C320   C     0.50004   0.50380   0.02336   0.00000  Uiso   1.00
C321   C     0.53712   0.50894   0.45187   0.00000  Uiso   1.00
C322   C     0.46241   0.49926   0.04806   0.00000  Uiso   1.00
C323   C     0.42343   0.49605   0.47905   0.00000  Uiso   1.00
C324   C     0.57532   0.51633   0.02117   0.00000  Uiso   1.00
C325   C     0.42414   0.49889   0.02612   0.00000  Uiso   1.00
C326   C     0.57479   0.51635   0.47399   0.00000  Uiso   1.00
H327   H     0.56370   0.51162   0.38458   0.00000  Uiso   1.00
H328   H     0.43605   0.49166   0.11506   0.00000  Uiso   1.00
H329   H     0.43391   0.49188   0.38857   0.00000  Uiso   1.00
H330   H     0.56584   0.51072   0.11168   0.00000  Uiso   1.00
C331   C     0.35473   0.45909   0.24463   0.00000  Uiso   1.00
C332   C     0.64527   0.54092   0.25533   0.00000  Uiso   1.00
C333   C     0.64558   0.45906   0.24470   0.00000  Uiso   1.00
C334   C     0.35442   0.54095   0.25525   0.00000  Uiso   1.00
H335   H     0.37096   0.42721   0.24028   0.00000  Uiso   1.00
H336   H     0.62904   0.57281   0.25969   0.00000  Uiso   1.00
H337   H     0.62960   0.42717   0.24041   0.00000  Uiso   1.00
H338   H     0.37041   0.57285   0.25954   0.00000  Uiso   1.00
C339   C     0.62423   0.49998   0.25004   0.00000  Uiso   1.00
C340   C     0.37577   0.50004   0.24993   0.00000  Uiso   1.00
C341   C     0.52731   0.35728   0.27550   0.00000  Uiso   1.00
C342   C     0.47269   0.64272   0.22450   0.00000  Uiso   1.00
C343   C     0.47269   0.35735   0.22450   0.00000  Uiso   1.00
C344   C     0.52731   0.64265   0.27550   0.00000  Uiso   1.00
H345   H     0.54913   0.37542   0.29590   0.00000  Uiso   1.00
H346   H     0.45087   0.62458   0.20410   0.00000  Uiso   1.00
H347   H     0.45087   0.37555   0.20410   0.00000  Uiso   1.00
H348   H     0.54913   0.62445   0.29591   0.00000  Uiso   1.00
N349   N     0.50000   0.61907   0.25000   0.00000  Uiso   1.00
N350   N     0.50000   0.38093   0.25000   0.00000  Uiso   1.00
C351   C     0.38256   0.49076   0.45547   0.00000  Uiso   1.00
H352   H     0.38328   0.45974   0.43435   0.00000  Uiso   1.00
H353   H     0.35588   0.48689   0.47899   0.00000  Uiso   1.00
H354   H     0.37689   0.52083   0.43407   0.00000  Uiso   1.00
C355   C     0.61538   0.52434   0.04525   0.00000  Uiso   1.00
H356   H     0.61193   0.55415   0.06779   0.00000  Uiso   1.00
H357   H     0.62360   0.49391   0.06512   0.00000  Uiso   1.00
H358   H     0.64165   0.53159   0.02217   0.00000  Uiso   1.00
N359   N     0.38640   0.50463   0.05102   0.00000  Uiso   1.00
H360   H     0.38055   0.47986   0.07466   0.00000  Uiso   1.00
C361   C     0.37964   0.55038   0.06738   0.00000  Uiso   1.00
H362   H     0.35160   0.55152   0.08935   0.00000  Uiso   1.00
H363   H     0.37544   0.57379   0.03862   0.00000  Uiso   1.00
H364   H     0.40600   0.56233   0.08758   0.00000  Uiso   1.00
N365   N     0.61243   0.52354   0.44925   0.00000  Uiso   1.00
H366   H     0.61899   0.50005   0.42450   0.00000  Uiso   1.00
C367   C     0.61968   0.57000   0.43586   0.00000  Uiso   1.00
H368   H     0.65058   0.57281   0.41923   0.00000  Uiso   1.00
H369   H     0.61903   0.59256   0.46574   0.00000  Uiso   1.00
H370   H     0.59585   0.58136   0.41192   0.00000  Uiso   1.00
O371   O     0.77226   0.53821   0.25000   0.00000  Uiso   1.00
O372   O     0.89441   0.46179   0.25001   0.00000  Uiso   1.00
O373   O     0.89441   0.53821   0.25001   0.00000  Uiso   1.00
O374   O     0.77226   0.46179   0.25000   0.00000  Uiso   1.00
C375   C     0.75326   0.50002   0.24997   0.00000  Uiso   1.00
C376   C     0.91340   0.49998   0.25002   0.00000  Uiso   1.00
O377   O     0.83333   0.53823   0.18393   0.00000  Uiso   1.00
O378   O     0.83334   0.46177   0.31608   0.00000  Uiso   1.00
O379   O     0.83334   0.53823   0.31608   0.00000  Uiso   1.00
O380   O     0.83333   0.46177   0.18393   0.00000  Uiso   1.00
C381   C     0.83425   0.50000   0.16355   0.00000  Uiso   1.00
C382   C     0.83246   0.50003   0.33646   0.00000  Uiso   1.00
Zn383  Zn    0.83333   0.55104   0.25000   0.00000  Uiso   1.00
Zn384  Zn    0.83333   0.44896   0.25000   0.00000  Uiso   1.00
C385   C     0.86942   0.50739   0.40525   0.00000  Uiso   1.00
C386   C     0.79709   0.49633   0.09461   0.00000  Uiso   1.00
C387   C     0.83239   0.50035   0.38404   0.00000  Uiso   1.00
C388   C     0.83436   0.50024   0.11597   0.00000  Uiso   1.00
C389   C     0.79526   0.49606   0.40751   0.00000  Uiso   1.00
C390   C     0.87117   0.50711   0.09261   0.00000  Uiso   1.00
C391   C     0.79458   0.49824   0.45432   0.00000  Uiso   1.00
C392   C     0.87146   0.50893   0.04576   0.00000  Uiso   1.00
C393   C     0.83279   0.50376   0.47659   0.00000  Uiso   1.00
C394   C     0.83337   0.50380   0.02336   0.00000  Uiso   1.00
C395   C     0.87046   0.50894   0.45187   0.00000  Uiso   1.00
C396   C     0.79574   0.49926   0.04806   0.00000  Uiso   1.00
C397   C     0.75676   0.49605   0.47905   0.00000  Uiso   1.00
C398   C     0.90865   0.51633   0.02117   0.00000  Uiso   1.00
C399   C     0.75748   0.49889   0.02612   0.00000  Uiso   1.00
C400   C     0.90812   0.51635   0.47399   0.00000  Uiso   1.00
H401   H     0.89704   0.51162   0.38458   0.00000  Uiso   1.00
H402   H     0.76938   0.49166   0.11506   0.00000  Uiso   1.00
H403   H     0.76725   0.49188   0.38857   0.00000  Uiso   1.00
H404   H     0.89917   0.51072   0.11168   0.00000  Uiso   1.00
C405   C     0.68806   0.45909   0.24463   0.00000  Uiso   1.00
C406   C     0.97861   0.54092   0.25533   0.00000  Uiso   1.00
C407   C     0.97891   0.45906   0.24470   0.00000  Uiso   1.00
C408   C     0.68775   0.54095   0.25525   0.00000  Uiso   1.00
H409   H     0.70429   0.42721   0.24028   0.00000  Uiso   1.00
H410   H     0.96238   0.57281   0.25969   0.00000  Uiso   1.00
H411   H     0.96293   0.42717   0.24041   0.00000  Uiso   1.00
H412   H     0.70374   0.57285   0.25954   0.00000  Uiso   1.00
C413   C     0.95756   0.49998   0.25004   0.00000  Uiso   1.00
C414   C     0.70910   0.50004   0.24993   0.00000  Uiso   1.00
C415   C     0.86064   0.35728   0.27550   0.00000  Uiso   1.00
C416   C     0.80603   0.64272   0.22450   0.00000  Uiso   1.00
C417   C     0.80603   0.35735   0.22450   0.00000  Uiso   1.00
C418   C     0.86064   0.64265   0.27550   0.00000  Uiso   1.00
H419   H     0.88247   0.37542   0.29590   0.00000  Uiso   1.00
H420   H     0.78420   0.62458   0.20410   0.00000  Uiso   1.00
H421   H     0.78420   0.37555   0.20410   0.00000  Uiso   1.00
H422   H     0.88246   0.62445   0.29591   0.00000  Uiso   1.00
N423   N     0.83333   0.61907   0.25000   0.00000  Uiso   1.00
N424   N     0.83333   0.38093   0.25000   0.00000  Uiso   1.00
C425   C     0.71590   0.49076   0.45547   0.00000  Uiso   1.00
H426   H     0.71661   0.45974   0.43435   0.00000  Uiso   1.00
H427   H     0.68921   0.48689   0.47899   0.00000  Uiso   1.00
H428   H     0.71023   0.52083   0.43407   0.00000  Uiso   1.00
C429   C     0.94871   0.52434   0.04525   0.00000  Uiso   1.00
H430   H     0.94526   0.55415   0.06779   0.00000  Uiso   1.00
H431   H     0.95693   0.49391   0.06512   0.00000  Uiso   1.00
H432   H     0.97498   0.53159   0.02217   0.00000  Uiso   1.00
N433   N     0.71974   0.50463   0.05102   0.00000  Uiso   1.00
H434   H     0.71388   0.47986   0.07466   0.00000  Uiso   1.00
C435   C     0.71297   0.55038   0.06738   0.00000  Uiso   1.00
H436   H     0.68493   0.55152   0.08935   0.00000  Uiso   1.00
H437   H     0.70877   0.57379   0.03862   0.00000  Uiso   1.00
H438   H     0.73933   0.56233   0.08758   0.00000  Uiso   1.00
N439   N     0.94576   0.52354   0.44925   0.00000  Uiso   1.00
H440   H     0.95232   0.50005   0.42450   0.00000  Uiso   1.00
C441   C     0.95301   0.57000   0.43586   0.00000  Uiso   1.00
H442   H     0.98392   0.57281   0.41923   0.00000  Uiso   1.00
H443   H     0.95236   0.59256   0.46574   0.00000  Uiso   1.00
H444   H     0.92918   0.58136   0.41192   0.00000  Uiso   1.00
O445   O     0.10559   0.87154   0.25000   0.00000  Uiso   1.00
O446   O     0.22774   0.79513   0.25001   0.00000  Uiso   1.00
O447   O     0.22774   0.87154   0.25001   0.00000  Uiso   1.00
O448   O     0.10559   0.79513   0.25000   0.00000  Uiso   1.00
C449   C     0.08660   0.83336   0.24997   0.00000  Uiso   1.00
C450   C     0.24674   0.83331   0.25002   0.00000  Uiso   1.00
O451   O     0.16666   0.87156   0.18393   0.00000  Uiso   1.00
O452   O     0.16667   0.79511   0.31608   0.00000  Uiso   1.00
O453   O     0.16667   0.87156   0.31608   0.00000  Uiso   1.00
O454   O     0.16666   0.79511   0.18393   0.00000  Uiso   1.00
C455   C     0.16759   0.83333   0.16355   0.00000  Uiso   1.00
C456   C     0.16579   0.83336   0.33646   0.00000  Uiso   1.00
Zn457  Zn    0.16667   0.88437   0.25000   0.00000  Uiso   1.00
Zn458  Zn    0.16667   0.78229   0.25000   0.00000  Uiso   1.00
C459   C     0.20276   0.84072   0.40525   0.00000  Uiso   1.00
C460   C     0.13042   0.82966   0.09461   0.00000  Uiso   1.00
C461   C     0.16573   0.83368   0.38404   0.00000  Uiso   1.00
C462   C     0.16769   0.83357   0.11597   0.00000  Uiso   1.00
C463   C     0.12859   0.82939   0.40751   0.00000  Uiso   1.00
C464   C     0.20451   0.84044   0.09261   0.00000  Uiso   1.00
C465   C     0.12791   0.83157   0.45432   0.00000  Uiso   1.00
C466   C     0.20479   0.84226   0.04576   0.00000  Uiso   1.00
C467   C     0.16613   0.83709   0.47659   0.00000  Uiso   1.00
C468   C     0.16670   0.83713   0.02336   0.00000  Uiso   1.00
C469   C     0.20379   0.84227   0.45187   0.00000  Uiso   1.00
C470   C     0.12908   0.83259   0.04806   0.00000  Uiso   1.00
C471   C     0.09009   0.82938   0.47905   0.00000  Uiso   1.00
C472   C     0.24199   0.84966   0.02117   0.00000  Uiso   1.00
C473   C     0.09081   0.83222   0.02612   0.00000  Uiso   1.00
C474   C     0.24145   0.84968   0.47399   0.00000  Uiso   1.00
H475   H     0.23037   0.84496   0.38458   0.00000  Uiso   1.00
H476   H     0.10271   0.82499   0.11506   0.00000  Uiso   1.00
H477   H     0.10058   0.82522   0.38857   0.00000  Uiso   1.00
H478   H     0.23251   0.84406   0.11168   0.00000  Uiso   1.00
C479   C     0.02139   0.79243   0.24463   0.00000  Uiso   1.00
C480   C     0.31194   0.87426   0.25533   0.00000  Uiso   1.00
C481   C     0.31225   0.79240   0.24470   0.00000  Uiso   1.00
C482   C     0.02109   0.87429   0.25525   0.00000  Uiso   1.00
H483   H     0.03762   0.76054   0.24028   0.00000  Uiso   1.00
H484   H     0.29571   0.90614   0.25969   0.00000  Uiso   1.00
H485   H     0.29626   0.76050   0.24041   0.00000  Uiso   1.00
H486   H     0.03707   0.90618   0.25954   0.00000  Uiso   1.00
C487   C     0.29090   0.83331   0.25004   0.00000  Uiso   1.00
C488   C     0.04244   0.83337   0.24993   0.00000  Uiso   1.00
C489   C     0.19397   0.69061   0.27550   0.00000  Uiso   1.00
C490   C     0.13936   0.97605   0.22450   0.00000  Uiso   1.00
C491   C     0.13936   0.69068   0.22450   0.00000  Uiso   1.00
C492   C     0.19397   0.97598   0.27550   0.00000  Uiso   1.00
H493   H     0.21580   0.70875   0.29590   0.00000  Uiso   1.00
H494   H     0.11754   0.95791   0.20410   0.00000  Uiso   1.00
H495   H     0.11753   0.70888   0.20410   0.00000  Uiso   1.00
H496   H     0.21579   0.95778   0.29591   0.00000  Uiso   1.00
N497   N     0.16667   0.95240   0.25000   0.00000  Uiso   1.00
N498   N     0.16667   0.71427   0.25000   0.00000  Uiso   1.00
C499   C     0.04923   0.82409   0.45547   0.00000  Uiso   1.00
H500   H     0.04994   0.79307   0.43435   0.00000  Uiso   1.00
H501   H     0.02254   0.82022   0.47899   0.00000  Uiso   1.00
H502   H     0.04356   0.85416   0.43407   0.00000  Uiso   1.00
C503   C     0.28205   0.85768   0.04525   0.00000  Uiso   1.00
H504   H     0.27859   0.88748   0.06779   0.00000  Uiso   1.00
H505   H     0.29026   0.82724   0.06512   0.00000  Uiso   1.00
H506   H     0.30832   0.86492   0.02217   0.00000  Uiso   1.00
N507   N     0.05307   0.83796   0.05102   0.00000  Uiso   1.00
H508   H     0.04721   0.81320   0.07466   0.00000  Uiso   1.00
C509   C     0.04631   0.88372   0.06738   0.00000  Uiso   1.00
H510   H     0.01826   0.88486   0.08935   0.00000  Uiso   1.00
H511   H     0.04211   0.90712   0.03862   0.00000  Uiso   1.00
H512   H     0.07267   0.89566   0.08758   0.00000  Uiso   1.00
N513   N     0.27909   0.85687   0.44925   0.00000  Uiso   1.00
H514   H     0.28566   0.83338   0.42450   0.00000  Uiso   1.00
C515   C     0.28635   0.90333   0.43586   0.00000  Uiso   1.00
H516   H     0.31725   0.90614   0.41923   0.00000  Uiso   1.00
H517   H     0.28570   0.92589   0.46574   0.00000  Uiso   1.00
H518   H     0.26252   0.91469   0.41192   0.00000  Uiso   1.00
O519   O     0.43892   0.87154   0.25000   0.00000  Uiso   1.00
O520   O     0.56108   0.79513   0.25001   0.00000  Uiso   1.00
O521   O     0.56108   0.87154   0.25001   0.00000  Uiso   1.00
O522   O     0.43892   0.79513   0.25000   0.00000  Uiso   1.00
C523   C     0.41993   0.83336   0.24997   0.00000  Uiso   1.00
C524   C     0.58007   0.83331   0.25002   0.00000  Uiso   1.00
O525   O     0.49999   0.87156   0.18393   0.00000  Uiso   1.00
O526   O     0.50001   0.79511   0.31608   0.00000  Uiso   1.00
O527   O     0.50001   0.87156   0.31608   0.00000  Uiso   1.00
O528   O     0.49999   0.79511   0.18393   0.00000  Uiso   1.00
C529   C     0.50092   0.83333   0.16355   0.00000  Uiso   1.00
C530   C     0.49912   0.83336   0.33646   0.00000  Uiso   1.00
Zn531  Zn    0.50000   0.88437   0.25000   0.00000  Uiso   1.00
Zn532  Zn    0.50000   0.78229   0.25000   0.00000  Uiso   1.00
C533   C     0.53609   0.84072   0.40525   0.00000  Uiso   1.00
C534   C     0.46375   0.82966   0.09461   0.00000  Uiso   1.00
C535   C     0.49906   0.83368   0.38404   0.00000  Uiso   1.00
C536   C     0.50103   0.83357   0.11597   0.00000  Uiso   1.00
C537   C     0.46192   0.82939   0.40751   0.00000  Uiso   1.00
C538   C     0.53784   0.84044   0.09261   0.00000  Uiso   1.00
C539   C     0.46125   0.83157   0.45432   0.00000  Uiso   1.00
C540   C     0.53813   0.84226   0.04576   0.00000  Uiso   1.00
C541   C     0.49946   0.83709   0.47659   0.00000  Uiso   1.00
C542   C     0.50004   0.83713   0.02336   0.00000  Uiso   1.00
C543   C     0.53712   0.84227   0.45187   0.00000  Uiso   1.00
C544   C     0.46241   0.83259   0.04806   0.00000  Uiso   1.00
C545   C     0.42343   0.82938   0.47905   0.00000  Uiso   1.00
C546   C     0.57532   0.84966   0.02117   0.00000  Uiso   1.00
C547   C     0.42414   0.83222   0.02612   0.00000  Uiso   1.00
C548   C     0.57479   0.84968   0.47399   0.00000  Uiso   1.00
H549   H     0.56370   0.84496   0.38458   0.00000  Uiso   1.00
H550   H     0.43605   0.82499   0.11506   0.00000  Uiso   1.00
H551   H     0.43391   0.82522   0.38857   0.00000  Uiso   1.00
H552   H     0.56584   0.84406   0.11168   0.00000  Uiso   1.00
C553   C     0.35473   0.79243   0.24463   0.00000  Uiso   1.00
C554   C     0.64527   0.87426   0.25533   0.00000  Uiso   1.00
C555   C     0.64558   0.79240   0.24470   0.00000  Uiso   1.00
C556   C     0.35442   0.87429   0.25525   0.00000  Uiso   1.00
H557   H     0.37096   0.76054   0.24028   0.00000  Uiso   1.00
H558   H     0.62904   0.90614   0.25969   0.00000  Uiso   1.00
H559   H     0.62960   0.76050   0.24041   0.00000  Uiso   1.00
H560   H     0.37041   0.90618   0.25954   0.00000  Uiso   1.00
C561   C     0.62423   0.83331   0.25004   0.00000  Uiso   1.00
C562   C     0.37577   0.83337   0.24993   0.00000  Uiso   1.00
C563   C     0.52731   0.69061   0.27550   0.00000  Uiso   1.00
C564   C     0.47269   0.97605   0.22450   0.00000  Uiso   1.00
C565   C     0.47269   0.69068   0.22450   0.00000  Uiso   1.00
C566   C     0.52731   0.97598   0.27550   0.00000  Uiso   1.00
H567   H     0.54913   0.70875   0.29590   0.00000  Uiso   1.00
H568   H     0.45087   0.95791   0.20410   0.00000  Uiso   1.00
H569   H     0.45087   0.70888   0.20410   0.00000  Uiso   1.00
H570   H     0.54913   0.95778   0.29591   0.00000  Uiso   1.00
N571   N     0.50000   0.95240   0.25000   0.00000  Uiso   1.00
N572   N     0.50000   0.71427   0.25000   0.00000  Uiso   1.00
C573   C     0.38256   0.82409   0.45547   0.00000  Uiso   1.00
H574   H     0.38328   0.79307   0.43435   0.00000  Uiso   1.00
H575   H     0.35588   0.82022   0.47899   0.00000  Uiso   1.00
H576   H     0.37689   0.85416   0.43407   0.00000  Uiso   1.00
C577   C     0.61538   0.85768   0.04525   0.00000  Uiso   1.00
H578   H     0.61193   0.88748   0.06779   0.00000  Uiso   1.00
H579   H     0.62360   0.82724   0.06512   0.00000  Uiso   1.00
H580   H     0.64165   0.86492   0.02217   0.00000  Uiso   1.00
N581   N     0.38640   0.83796   0.05102   0.00000  Uiso   1.00
H582   H     0.38055   0.81320   0.07466   0.00000  Uiso   1.00
C583   C     0.37964   0.88372   0.06738   0.00000  Uiso   1.00
H584   H     0.35160   0.88486   0.08935   0.00000  Uiso   1.00
H585   H     0.37544   0.90712   0.03862   0.00000  Uiso   1.00
H586   H     0.40600   0.89566   0.08758   0.00000  Uiso   1.00
N587   N     0.61243   0.85687   0.44925   0.00000  Uiso   1.00
H588   H     0.61899   0.83338   0.42450   0.00000  Uiso   1.00
C589   C     0.61968   0.90333   0.43586   0.00000  Uiso   1.00
H590   H     0.65058   0.90614   0.41923   0.00000  Uiso   1.00
H591   H     0.61903   0.92589   0.46574   0.00000  Uiso   1.00
H592   H     0.59585   0.91469   0.41192   0.00000  Uiso   1.00
O593   O     0.77226   0.87154   0.25000   0.00000  Uiso   1.00
O594   O     0.89441   0.79513   0.25001   0.00000  Uiso   1.00
O595   O     0.89441   0.87154   0.25001   0.00000  Uiso   1.00
O596   O     0.77226   0.79513   0.25000   0.00000  Uiso   1.00
C597   C     0.75326   0.83336   0.24997   0.00000  Uiso   1.00
C598   C     0.91340   0.83331   0.25002   0.00000  Uiso   1.00
O599   O     0.83333   0.87156   0.18393   0.00000  Uiso   1.00
O600   O     0.83334   0.79511   0.31608   0.00000  Uiso   1.00
O601   O     0.83334   0.87156   0.31608   0.00000  Uiso   1.00
O602   O     0.83333   0.79511   0.18393   0.00000  Uiso   1.00
C603   C     0.83425   0.83333   0.16355   0.00000  Uiso   1.00
C604   C     0.83246   0.83336   0.33646   0.00000  Uiso   1.00
Zn605  Zn    0.83333   0.88437   0.25000   0.00000  Uiso   1.00
Zn606  Zn    0.83333   0.78229   0.25000   0.00000  Uiso   1.00
C607   C     0.86942   0.84072   0.40525   0.00000  Uiso   1.00
C608   C     0.79709   0.82966   0.09461   0.00000  Uiso   1.00
C609   C     0.83239   0.83368   0.38404   0.00000  Uiso   1.00
C610   C     0.83436   0.83357   0.11597   0.00000  Uiso   1.00
C611   C     0.79526   0.82939   0.40751   0.00000  Uiso   1.00
C612   C     0.87117   0.84044   0.09261   0.00000  Uiso   1.00
C613   C     0.79458   0.83157   0.45432   0.00000  Uiso   1.00
C614   C     0.87146   0.84226   0.04576   0.00000  Uiso   1.00
C615   C     0.83279   0.83709   0.47659   0.00000  Uiso   1.00
C616   C     0.83337   0.83713   0.02336   0.00000  Uiso   1.00
C617   C     0.87046   0.84227   0.45187   0.00000  Uiso   1.00
C618   C     0.79574   0.83259   0.04806   0.00000  Uiso   1.00
C619   C     0.75676   0.82938   0.47905   0.00000  Uiso   1.00
C620   C     0.90865   0.84966   0.02117   0.00000  Uiso   1.00
C621   C     0.75748   0.83222   0.02612   0.00000  Uiso   1.00
C622   C     0.90812   0.84968   0.47399   0.00000  Uiso   1.00
H623   H     0.89704   0.84496   0.38458   0.00000  Uiso   1.00
H624   H     0.76938   0.82499   0.11506   0.00000  Uiso   1.00
H625   H     0.76725   0.82522   0.38857   0.00000  Uiso   1.00
H626   H     0.89917   0.84406   0.11168   0.00000  Uiso   1.00
C627   C     0.68806   0.79243   0.24463   0.00000  Uiso   1.00
C628   C     0.97861   0.87426   0.25533   0.00000  Uiso   1.00
C629   C     0.97891   0.79240   0.24470   0.00000  Uiso   1.00
C630   C     0.68775   0.87429   0.25525   0.00000  Uiso   1.00
H631   H     0.70429   0.76054   0.24028   0.00000  Uiso   1.00
H632   H     0.96238   0.90614   0.25969   0.00000  Uiso   1.00
H633   H     0.96293   0.76050   0.24041   0.00000  Uiso   1.00
H634   H     0.70374   0.90618   0.25954   0.00000  Uiso   1.00
C635   C     0.95756   0.83331   0.25004   0.00000  Uiso   1.00
C636   C     0.70910   0.83337   0.24993   0.00000  Uiso   1.00
C637   C     0.86064   0.69061   0.27550   0.00000  Uiso   1.00
C638   C     0.80603   0.97605   0.22450   0.00000  Uiso   1.00
C639   C     0.80603   0.69068   0.22450   0.00000  Uiso   1.00
C640   C     0.86064   0.97598   0.27550   0.00000  Uiso   1.00
H641   H     0.88247   0.70875   0.29590   0.00000  Uiso   1.00
H642   H     0.78420   0.95791   0.20410   0.00000  Uiso   1.00
H643   H     0.78420   0.70888   0.20410   0.00000  Uiso   1.00
H644   H     0.88246   0.95778   0.29591   0.00000  Uiso   1.00
N645   N     0.83333   0.95240   0.25000   0.00000  Uiso   1.00
N646   N     0.83333   0.71427   0.25000   0.00000  Uiso   1.00
C647   C     0.71590   0.82409   0.45547   0.00000  Uiso   1.00
H648   H     0.71661   0.79307   0.43435   0.00000  Uiso   1.00
H649   H     0.68921   0.82022   0.47899   0.00000  Uiso   1.00
H650   H     0.71023   0.85416   0.43407   0.00000  Uiso   1.00
C651   C     0.94871   0.85768   0.04525   0.00000  Uiso   1.00
H652   H     0.94526   0.88748   0.06779   0.00000  Uiso   1.00
H653   H     0.95693   0.82724   0.06512   0.00000  Uiso   1.00
H654   H     0.97498   0.86492   0.02217   0.00000  Uiso   1.00
N655   N     0.71974   0.83796   0.05102   0.00000  Uiso   1.00
H656   H     0.71388   0.81320   0.07466   0.00000  Uiso   1.00
C657   C     0.71297   0.88372   0.06738   0.00000  Uiso   1.00
H658   H     0.68493   0.88486   0.08935   0.00000  Uiso   1.00
H659   H     0.70877   0.90712   0.03862   0.00000  Uiso   1.00
H660   H     0.73933   0.89566   0.08758   0.00000  Uiso   1.00
N661   N     0.94576   0.85687   0.44925   0.00000  Uiso   1.00
H662   H     0.95232   0.83338   0.42450   0.00000  Uiso   1.00
C663   C     0.95301   0.90333   0.43586   0.00000  Uiso   1.00
H664   H     0.98392   0.90614   0.41923   0.00000  Uiso   1.00
H665   H     0.95236   0.92589   0.46574   0.00000  Uiso   1.00
H666   H     0.92918   0.91469   0.41192   0.00000  Uiso   1.00
O667   O     0.10559   0.20487   0.75000   0.00000  Uiso   1.00
O668   O     0.22774   0.12846   0.75001   0.00000  Uiso   1.00
O669   O     0.22774   0.20487   0.75001   0.00000  Uiso   1.00
O670   O     0.10559   0.12846   0.75000   0.00000  Uiso   1.00
C671   C     0.08660   0.16669   0.74997   0.00000  Uiso   1.00
C672   C     0.24674   0.16665   0.75002   0.00000  Uiso   1.00
O673   O     0.16666   0.20489   0.68393   0.00000  Uiso   1.00
O674   O     0.16667   0.12844   0.81608   0.00000  Uiso   1.00
O675   O     0.16667   0.20489   0.81608   0.00000  Uiso   1.00
O676   O     0.16666   0.12844   0.68393   0.00000  Uiso   1.00
C677   C     0.16759   0.16667   0.66355   0.00000  Uiso   1.00
C678   C     0.16579   0.16670   0.83646   0.00000  Uiso   1.00
Zn679  Zn    0.16667   0.21771   0.75000   0.00000  Uiso   1.00
Zn680  Zn    0.16667   0.11563   0.75000   0.00000  Uiso   1.00
C681   C     0.20276   0.17405   0.90525   0.00000  Uiso   1.00
C682   C     0.13042   0.16299   0.59461   0.00000  Uiso   1.00
C683   C     0.16573   0.16702   0.88404   0.00000  Uiso   1.00
C684   C     0.16769   0.16690   0.61597   0.00000  Uiso   1.00
C685   C     0.12859   0.16272   0.90751   0.00000  Uiso   1.00
C686   C     0.20451   0.17378   0.59261   0.00000  Uiso   1.00
C687   C     0.12791   0.16490   0.95432   0.00000  Uiso   1.00
C688   C     0.20479   0.17560   0.54576   0.00000  Uiso   1.00
C689   C     0.16613   0.17042   0.97659   0.00000  Uiso   1.00
C690   C     0.16670   0.17046   0.52336   0.00000  Uiso   1.00
C691   C     0.20379   0.17561   0.95187   0.00000  Uiso   1.00
C692   C     0.12908   0.16593   0.54806   0.00000  Uiso   1.00
C693   C     0.09009   0.16272   0.97905   0.00000  Uiso   1.00
C694   C     0.24199   0.18300   0.52117   0.00000  Uiso   1.00
C695   C     0.09081   0.16555   0.52612   0.00000  Uiso   1.00
C696   C     0.24145   0.18301   0.97399   0.00000  Uiso   1.00
H697   H     0.23037   0.17829   0.88458   0.00000  Uiso   1.00
H698   H     0.10271   0.15832   0.61506   0.00000  Uiso   1.00
H699   H     0.10058   0.15855   0.88857   0.00000  Uiso   1.00
H700   H     0.23251   0.17739   0.61168   0.00000  Uiso   1.00
C701   C     0.02139   0.12576   0.74463   0.00000  Uiso   1.00
C702   C     0.31194   0.20759   0.75533   0.00000  Uiso   1.00
C703   C     0.31225   0.12573   0.74470   0.00000  Uiso   1.00
C704   C     0.02109   0.20762   0.75525   0.00000  Uiso   1.00
H705   H     0.03762   0.09388   0.74028   0.00000  Uiso   1.00
H706   H     0.29571   0.23947   0.75969   0.00000  Uiso   1.00
H707   H     0.29626   0.09383   0.74041   0.00000  Uiso   1.00
H708   H     0.03707   0.23952   0.75954   0.00000  Uiso   1.00
C709   C     0.29090   0.16664   0.75004   0.00000  Uiso   1.00
C710   C     0.04244   0.16670   0.74993   0.00000  Uiso   1.00
C711   C     0.19397   0.02395   0.77550   0.00000  Uiso   1.00
C712   C     0.13936   0.30939   0.72450   0.00000  Uiso   1.00
C713   C     0.13936   0.02401   0.72450   0.00000  Uiso   1.00
C714   C     0.19397   0.30932   0.77550   0.00000  Uiso   1.00
H715   H     0.21580   0.04209   0.79590   0.00000  Uiso   1.00
H716   H     0.11754   0.29124   0.70410   0.00000  Uiso   1.00
H717   H     0.11753   0.04221   0.70410   0.00000  Uiso   1.00
H718   H     0.21579   0.29112   0.79591   0.00000  Uiso   1.00
N719   N     0.16667   0.28573   0.75000   0.00000  Uiso   1.00
N720   N     0.16667   0.04760   0.75000   0.00000  Uiso   1.00
C721   C     0.04923   0.15742   0.95547   0.00000  Uiso   1.00
H722   H     0.04994   0.12641   0.93435   0.00000  Uiso   1.00
H723   H     0.02254   0.15355   0.97899   0.00000  Uiso   1.00
H724   H     0.04356   0.18750   0.93407   0.00000  Uiso   1.00
C725   C     0.28205   0.19101   0.54525   0.00000  Uiso   1.00
H726   H     0.27859   0.22082   0.56779   0.00000  Uiso   1.00
H727   H     0.29026   0.16058   0.56512   0.00000  Uiso   1.00
H728   H     0.30832   0.19825   0.52217   0.00000  Uiso   1.00
N729   N     0.05307   0.17130   0.55102   0.00000  Uiso   1.00
H730   H     0.04721   0.14653   0.57466   0.00000  Uiso   1.00
C731   C     0.04631   0.21705   0.56738   0.00000  Uiso   1.00
H732   H     0.01826   0.21819   0.58935   0.00000  Uiso   1.00
H733   H     0.04211   0.24045   0.53862   0.00000  Uiso   1.00
H734   H     0.07267   0.22900   0.58758   0.00000  Uiso   1.00
N735   N     0.27909   0.19021   0.94925   0.00000  Uiso   1.00
H736   H     0.28566   0.16671   0.92450   0.00000  Uiso   1.00
C737   C     0.28635   0.23667   0.93586   0.00000  Uiso   1.00
H738   H     0.31725   0.23948   0.91923   0.00000  Uiso   1.00
H739   H     0.28570   0.25922   0.96574   0.00000  Uiso   1.00
H740   H     0.26252   0.24802   0.91192   0.00000  Uiso   1.00
O741   O     0.43892   0.20487   0.75000   0.00000  Uiso   1.00
O742   O     0.56108   0.12846   0.75001   0.00000  Uiso   1.00
O743   O     0.56108   0.20487   0.75001   0.00000  Uiso   1.00
O744   O     0.43892   0.12846   0.75000   0.00000  Uiso   1.00
C745   C     0.41993   0.16669   0.74997   0.00000  Uiso   1.00
C746   C     0.58007   0.16665   0.75002   0.00000  Uiso   1.00
O747   O     0.49999   0.20489   0.68393   0.00000  Uiso   1.00
O748   O     0.50001   0.12844   0.81608   0.00000  Uiso   1.00
O749   O     0.50001   0.20489   0.81608   0.00000  Uiso   1.00
O750   O     0.49999   0.12844   0.68393   0.00000  Uiso   1.00
C751   C     0.50092   0.16667   0.66355   0.00000  Uiso   1.00
C752   C     0.49912   0.16670   0.83646   0.00000  Uiso   1.00
Zn753  Zn    0.50000   0.21771   0.75000   0.00000  Uiso   1.00
Zn754  Zn    0.50000   0.11563   0.75000   0.00000  Uiso   1.00
C755   C     0.53609   0.17405   0.90525   0.00000  Uiso   1.00
C756   C     0.46375   0.16299   0.59461   0.00000  Uiso   1.00
C757   C     0.49906   0.16702   0.88404   0.00000  Uiso   1.00
C758   C     0.50103   0.16690   0.61597   0.00000  Uiso   1.00
C759   C     0.46192   0.16272   0.90751   0.00000  Uiso   1.00
C760   C     0.53784   0.17378   0.59261   0.00000  Uiso   1.00
C761   C     0.46125   0.16490   0.95432   0.00000  Uiso   1.00
C762   C     0.53813   0.17560   0.54576   0.00000  Uiso   1.00
C763   C     0.49946   0.17042   0.97659   0.00000  Uiso   1.00
C764   C     0.50004   0.17046   0.52336   0.00000  Uiso   1.00
C765   C     0.53712   0.17561   0.95187   0.00000  Uiso   1.00
C766   C     0.46241   0.16593   0.54806   0.00000  Uiso   1.00
C767   C     0.42343   0.16272   0.97905   0.00000  Uiso   1.00
C768   C     0.57532   0.18300   0.52117   0.00000  Uiso   1.00
C769   C     0.42414   0.16555   0.52612   0.00000  Uiso   1.00
C770   C     0.57479   0.18301   0.97399   0.00000  Uiso   1.00
H771   H     0.56370   0.17829   0.88458   0.00000  Uiso   1.00
H772   H     0.43605   0.15832   0.61506   0.00000  Uiso   1.00
H773   H     0.43391   0.15855   0.88857   0.00000  Uiso   1.00
H774   H     0.56584   0.17739   0.61168   0.00000  Uiso   1.00
C775   C     0.35473   0.12576   0.74463   0.00000  Uiso   1.00
C776   C     0.64527   0.20759   0.75533   0.00000  Uiso   1.00
C777   C     0.64558   0.12573   0.74470   0.00000  Uiso   1.00
C778   C     0.35442   0.20762   0.75525   0.00000  Uiso   1.00
H779   H     0.37096   0.09388   0.74028   0.00000  Uiso   1.00
H780   H     0.62904   0.23947   0.75969   0.00000  Uiso   1.00
H781   H     0.62960   0.09383   0.74041   0.00000  Uiso   1.00
H782   H     0.37041   0.23952   0.75954   0.00000  Uiso   1.00
C783   C     0.62423   0.16664   0.75004   0.00000  Uiso   1.00
C784   C     0.37577   0.16670   0.74993   0.00000  Uiso   1.00
C785   C     0.52731   0.02395   0.77550   0.00000  Uiso   1.00
C786   C     0.47269   0.30939   0.72450   0.00000  Uiso   1.00
C787   C     0.47269   0.02401   0.72450   0.00000  Uiso   1.00
C788   C     0.52731   0.30932   0.77550   0.00000  Uiso   1.00
H789   H     0.54913   0.04209   0.79590   0.00000  Uiso   1.00
H790   H     0.45087   0.29124   0.70410   0.00000  Uiso   1.00
H791   H     0.45087   0.04221   0.70410   0.00000  Uiso   1.00
H792   H     0.54913   0.29112   0.79591   0.00000  Uiso   1.00
N793   N     0.50000   0.28573   0.75000   0.00000  Uiso   1.00
N794   N     0.50000   0.04760   0.75000   0.00000  Uiso   1.00
C795   C     0.38256   0.15742   0.95547   0.00000  Uiso   1.00
H796   H     0.38328   0.12641   0.93435   0.00000  Uiso   1.00
H797   H     0.35588   0.15355   0.97899   0.00000  Uiso   1.00
H798   H     0.37689   0.18750   0.93407   0.00000  Uiso   1.00
C799   C     0.61538   0.19101   0.54525   0.00000  Uiso   1.00
H800   H     0.61193   0.22082   0.56779   0.00000  Uiso   1.00
H801   H     0.62360   0.16058   0.56512   0.00000  Uiso   1.00
H802   H     0.64165   0.19825   0.52217   0.00000  Uiso   1.00
N803   N     0.38640   0.17130   0.55102   0.00000  Uiso   1.00
H804   H     0.38055   0.14653   0.57466   0.00000  Uiso   1.00
C805   C     0.37964   0.21705   0.56738   0.00000  Uiso   1.00
H806   H     0.35160   0.21819   0.58935   0.00000  Uiso   1.00
H807   H     0.37544   0.24045   0.53862   0.00000  Uiso   1.00
H808   H     0.40600   0.22900   0.58758   0.00000  Uiso   1.00
N809   N     0.61243   0.19021   0.94925   0.00000  Uiso   1.00
H810   H     0.61899   0.16671   0.92450   0.00000  Uiso   1.00
C811   C     0.61968   0.23667   0.93586   0.00000  Uiso   1.00
H812   H     0.65058   0.23948   0.91923   0.00000  Uiso   1.00
H813   H     0.61903   0.25922   0.96574   0.00000  Uiso   1.00
H814   H     0.59585   0.24802   0.91192   0.00000  Uiso   1.00
O815   O     0.77226   0.20487   0.75000   0.00000  Uiso   1.00
O816   O     0.89441   0.12846   0.75001   0.00000  Uiso   1.00
O817   O     0.89441   0.20487   0.75001   0.00000  Uiso   1.00
O818   O     0.77226   0.12846   0.75000   0.00000  Uiso   1.00
C819   C     0.75326   0.16669   0.74997   0.00000  Uiso   1.00
C820   C     0.91340   0.16665   0.75002   0.00000  Uiso   1.00
O821   O     0.83333   0.20489   0.68393   0.00000  Uiso   1.00
O822   O     0.83334   0.12844   0.81608   0.00000  Uiso   1.00
O823   O     0.83334   0.20489   0.81608   0.00000  Uiso   1.00
O824   O     0.83333   0.12844   0.68393   0.00000  Uiso   1.00
C825   C     0.83425   0.16667   0.66355   0.00000  Uiso   1.00
C826   C     0.83246   0.16670   0.83646   0.00000  Uiso   1.00
Zn827  Zn    0.83333   0.21771   0.75000   0.00000  Uiso   1.00
Zn828  Zn    0.83333   0.11563   0.75000   0.00000  Uiso   1.00
C829   C     0.86942   0.17405   0.90525   0.00000  Uiso   1.00
C830   C     0.79709   0.16299   0.59461   0.00000  Uiso   1.00
C831   C     0.83239   0.16702   0.88404   0.00000  Uiso   1.00
C832   C     0.83436   0.16690   0.61597   0.00000  Uiso   1.00
C833   C     0.79526   0.16272   0.90751   0.00000  Uiso   1.00
C834   C     0.87117   0.17378   0.59261   0.00000  Uiso   1.00
C835   C     0.79458   0.16490   0.95432   0.00000  Uiso   1.00
C836   C     0.87146   0.17560   0.54576   0.00000  Uiso   1.00
C837   C     0.83279   0.17042   0.97659   0.00000  Uiso   1.00
C838   C     0.83337   0.17046   0.52336   0.00000  Uiso   1.00
C839   C     0.87046   0.17561   0.95187   0.00000  Uiso   1.00
C840   C     0.79574   0.16593   0.54806   0.00000  Uiso   1.00
C841   C     0.75676   0.16272   0.97905   0.00000  Uiso   1.00
C842   C     0.90865   0.18300   0.52117   0.00000  Uiso   1.00
C843   C     0.75748   0.16555   0.52612   0.00000  Uiso   1.00
C844   C     0.90812   0.18301   0.97399   0.00000  Uiso   1.00
H845   H     0.89704   0.17829   0.88458   0.00000  Uiso   1.00
H846   H     0.76938   0.15832   0.61506   0.00000  Uiso   1.00
H847   H     0.76725   0.15855   0.88857   0.00000  Uiso   1.00
H848   H     0.89917   0.17739   0.61168   0.00000  Uiso   1.00
C849   C     0.68806   0.12576   0.74463   0.00000  Uiso   1.00
C850   C     0.97861   0.20759   0.75533   0.00000  Uiso   1.00
C851   C     0.97891   0.12573   0.74470   0.00000  Uiso   1.00
C852   C     0.68775   0.20762   0.75525   0.00000  Uiso   1.00
H853   H     0.70429   0.09388   0.74028   0.00000  Uiso   1.00
H854   H     0.96238   0.23947   0.75969   0.00000  Uiso   1.00
H855   H     0.96293   0.09383   0.74041   0.00000  Uiso   1.00
H856   H     0.70374   0.23952   0.75954   0.00000  Uiso   1.00
C857   C     0.95756   0.16664   0.75004   0.00000  Uiso   1.00
C858   C     0.70910   0.16670   0.74993   0.00000  Uiso   1.00
C859   C     0.86064   0.02395   0.77550   0.00000  Uiso   1.00
C860   C     0.80603   0.30939   0.72450   0.00000  Uiso   1.00
C861   C     0.80603   0.02401   0.72450   0.00000  Uiso   1.00
C862   C     0.86064   0.30932   0.77550   0.00000  Uiso   1.00
H863   H     0.88247   0.04209   0.79590   0.00000  Uiso   1.00
H864   H     0.78420   0.29124   0.70410   0.00000  Uiso   1.00
H865   H     0.78420   0.04221   0.70410   0.00000  Uiso   1.00
H866   H     0.88246   0.29112   0.79591   0.00000  Uiso   1.00
N867   N     0.83333   0.28573   0.75000   0.00000  Uiso   1.00
N868   N     0.83333   0.04760   0.75000   0.00000  Uiso   1.00
C869   C     0.71590   0.15742   0.95547   0.00000  Uiso   1.00
H870   H     0.71661   0.12641   0.93435   0.00000  Uiso   1.00
H871   H     0.68921   0.15355   0.97899   0.00000  Uiso   1.00
H872   H     0.71023   0.18750   0.93407   0.00000  Uiso   1.00
C873   C     0.94871   0.19101   0.54525   0.00000  Uiso   1.00
H874   H     0.94526   0.22082   0.56779   0.00000  Uiso   1.00
H875   H     0.95693   0.16058   0.56512   0.00000  Uiso   1.00
H876   H     0.97498   0.19825   0.52217   0.00000  Uiso   1.00
N877   N     0.71974   0.17130   0.55102   0.00000  Uiso   1.00
H878   H     0.71388   0.14653   0.57466   0.00000  Uiso   1.00
C879   C     0.71297   0.21705   0.56738   0.00000  Uiso   1.00
H880   H     0.68493   0.21819   0.58935   0.00000  Uiso   1.00
H881   H     0.70877   0.24045   0.53862   0.00000  Uiso   1.00
H882   H     0.73933   0.22900   0.58758   0.00000  Uiso   1.00
N883   N     0.94576   0.19021   0.94925   0.00000  Uiso   1.00
H884   H     0.95232   0.16671   0.92450   0.00000  Uiso   1.00
C885   C     0.95301   0.23667   0.93586   0.00000  Uiso   1.00
H886   H     0.98392   0.23948   0.91923   0.00000  Uiso   1.00
H887   H     0.95236   0.25922   0.96574   0.00000  Uiso   1.00
H888   H     0.92918   0.24802   0.91192   0.00000  Uiso   1.00
O889   O     0.10559   0.53821   0.75000   0.00000  Uiso   1.00
O890   O     0.22774   0.46179   0.75001   0.00000  Uiso   1.00
O891   O     0.22774   0.53821   0.75001   0.00000  Uiso   1.00
O892   O     0.10559   0.46179   0.75000   0.00000  Uiso   1.00
C893   C     0.08660   0.50002   0.74997   0.00000  Uiso   1.00
C894   C     0.24674   0.49998   0.75002   0.00000  Uiso   1.00
O895   O     0.16666   0.53823   0.68393   0.00000  Uiso   1.00
O896   O     0.16667   0.46177   0.81608   0.00000  Uiso   1.00
O897   O     0.16667   0.53823   0.81608   0.00000  Uiso   1.00
O898   O     0.16666   0.46177   0.68393   0.00000  Uiso   1.00
C899   C     0.16759   0.50000   0.66355   0.00000  Uiso   1.00
C900   C     0.16579   0.50003   0.83646   0.00000  Uiso   1.00
Zn901  Zn    0.16667   0.55104   0.75000   0.00000  Uiso   1.00
Zn902  Zn    0.16667   0.44896   0.75000   0.00000  Uiso   1.00
C903   C     0.20276   0.50739   0.90525   0.00000  Uiso   1.00
C904   C     0.13042   0.49633   0.59461   0.00000  Uiso   1.00
C905   C     0.16573   0.50035   0.88404   0.00000  Uiso   1.00
C906   C     0.16769   0.50024   0.61597   0.00000  Uiso   1.00
C907   C     0.12859   0.49606   0.90751   0.00000  Uiso   1.00
C908   C     0.20451   0.50711   0.59261   0.00000  Uiso   1.00
C909   C     0.12791   0.49824   0.95432   0.00000  Uiso   1.00
C910   C     0.20479   0.50893   0.54576   0.00000  Uiso   1.00
C911   C     0.16613   0.50376   0.97659   0.00000  Uiso   1.00
C912   C     0.16670   0.50380   0.52336   0.00000  Uiso   1.00
C913   C     0.20379   0.50894   0.95187   0.00000  Uiso   1.00
C914   C     0.12908   0.49926   0.54806   0.00000  Uiso   1.00
C915   C     0.09009   0.49605   0.97905   0.00000  Uiso   1.00
C916   C     0.24199   0.51633   0.52117   0.00000  Uiso   1.00
C917   C     0.09081   0.49889   0.52612   0.00000  Uiso   1.00
C918   C     0.24145   0.51635   0.97399   0.00000  Uiso   1.00
H919   H     0.23037   0.51162   0.88458   0.00000  Uiso   1.00
H920   H     0.10271   0.49166   0.61506   0.00000  Uiso   1.00
H921   H     0.10058   0.49188   0.88857   0.00000  Uiso   1.00
H922   H     0.23251   0.51072   0.61168   0.00000  Uiso   1.00
C923   C     0.02139   0.45909   0.74463   0.00000  Uiso   1.00
C924   C     0.31194   0.54092   0.75533   0.00000  Uiso   1.00
C925   C     0.31225   0.45906   0.74470   0.00000  Uiso   1.00
C926   C     0.02109   0.54095   0.75525   0.00000  Uiso   1.00
H927   H     0.03762   0.42721   0.74028   0.00000  Uiso   1.00
H928   H     0.29571   0.57281   0.75969   0.00000  Uiso   1.00
H929   H     0.29626   0.42717   0.74041   0.00000  Uiso   1.00
H930   H     0.03707   0.57285   0.75954   0.00000  Uiso   1.00
C931   C     0.29090   0.49998   0.75004   0.00000  Uiso   1.00
C932   C     0.04244   0.50004   0.74993   0.00000  Uiso   1.00
C933   C     0.19397   0.35728   0.77550   0.00000  Uiso   1.00
C934   C     0.13936   0.64272   0.72450   0.00000  Uiso   1.00
C935   C     0.13936   0.35735   0.72450   0.00000  Uiso   1.00
C936   C     0.19397   0.64265   0.77550   0.00000  Uiso   1.00
H937   H     0.21580   0.37542   0.79590   0.00000  Uiso   1.00
H938   H     0.11754   0.62458   0.70410   0.00000  Uiso   1.00
H939   H     0.11753   0.37555   0.70410   0.00000  Uiso   1.00
H940   H     0.21579   0.62445   0.79591   0.00000  Uiso   1.00
N941   N     0.16667   0.61907   0.75000   0.00000  Uiso   1.00
N942   N     0.16667   0.38093   0.75000   0.00000  Uiso   1.00
C943   C     0.04923   0.49076   0.95547   0.00000  Uiso   1.00
H944   H     0.04994   0.45974   0.93435   0.00000  Uiso   1.00
H945   H     0.02254   0.48689   0.97899   0.00000  Uiso   1.00
H946   H     0.04356   0.52083   0.93407   0.00000  Uiso   1.00
C947   C     0.28205   0.52434   0.54525   0.00000  Uiso   1.00
H948   H     0.27859   0.55415   0.56779   0.00000  Uiso   1.00
H949   H     0.29026   0.49391   0.56512   0.00000  Uiso   1.00
H950   H     0.30832   0.53159   0.52217   0.00000  Uiso   1.00
N951   N     0.05307   0.50463   0.55102   0.00000  Uiso   1.00
H952   H     0.04721   0.47986   0.57466   0.00000  Uiso   1.00
C953   C     0.04631   0.55038   0.56738   0.00000  Uiso   1.00
H954   H     0.01826   0.55152   0.58935   0.00000  Uiso   1.00
H955   H     0.04211   0.57379   0.53862   0.00000  Uiso   1.00
H956   H     0.07267   0.56233   0.58758   0.00000  Uiso   1.00
N957   N     0.27909   0.52354   0.94925   0.00000  Uiso   1.00
H958   H     0.28566   0.50005   0.92450   0.00000  Uiso   1.00
C959   C     0.28635   0.57000   0.93586   0.00000  Uiso   1.00
H960   H     0.31725   0.57281   0.91923   0.00000  Uiso   1.00
H961   H     0.28570   0.59256   0.96574   0.00000  Uiso   1.00
H962   H     0.26252   0.58136   0.91192   0.00000  Uiso   1.00
O963   O     0.43892   0.53821   0.75000   0.00000  Uiso   1.00
O964   O     0.56108   0.46179   0.75001   0.00000  Uiso   1.00
O965   O     0.56108   0.53821   0.75001   0.00000  Uiso   1.00
O966   O     0.43892   0.46179   0.75000   0.00000  Uiso   1.00
C967   C     0.41993   0.50002   0.74997   0.00000  Uiso   1.00
C968   C     0.58007   0.49998   0.75002   0.00000  Uiso   1.00
O969   O     0.49999   0.53823   0.68393   0.00000  Uiso   1.00
O970   O     0.50001   0.46177   0.81608   0.00000  Uiso   1.00
O971   O     0.50001   0.53823   0.81608   0.00000  Uiso   1.00
O972   O     0.49999   0.46177   0.68393   0.00000  Uiso   1.00
C973   C     0.50092   0.50000   0.66355   0.00000  Uiso   1.00
C974   C     0.49912   0.50003   0.83646   0.00000  Uiso   1.00
Zn975  Zn    0.50000   0.55104   0.75000   0.00000  Uiso   1.00
Zn976  Zn    0.50000   0.44896   0.75000   0.00000  Uiso   1.00
C977   C     0.53609   0.50739   0.90525   0.00000  Uiso   1.00
C978   C     0.46375   0.49633   0.59461   0.00000  Uiso   1.00
C979   C     0.49906   0.50035   0.88404   0.00000  Uiso   1.00
C980   C     0.50103   0.50024   0.61597   0.00000  Uiso   1.00
C981   C     0.46192   0.49606   0.90751   0.00000  Uiso   1.00
C982   C     0.53784   0.50711   0.59261   0.00000  Uiso   1.00
C983   C     0.46125   0.49824   0.95432   0.00000  Uiso   1.00
C984   C     0.53813   0.50893   0.54576   0.00000  Uiso   1.00
C985   C     0.49946   0.50376   0.97659   0.00000  Uiso   1.00
C986   C     0.50004   0.50380   0.52336   0.00000  Uiso   1.00
C987   C     0.53712   0.50894   0.95187   0.00000  Uiso   1.00
C988   C     0.46241   0.49926   0.54806   0.00000  Uiso   1.00
C989   C     0.42343   0.49605   0.97905   0.00000  Uiso   1.00
C990   C     0.57532   0.51633   0.52117   0.00000  Uiso   1.00
C991   C     0.42414   0.49889   0.52612   0.00000  Uiso   1.00
C992   C     0.57479   0.51635   0.97399   0.00000  Uiso   1.00
H993   H     0.56370   0.51162   0.88458   0.00000  Uiso   1.00
H994   H     0.43605   0.49166   0.61506   0.00000  Uiso   1.00
H995   H     0.43391   0.49188   0.88857   0.00000  Uiso   1.00
H996   H     0.56584   0.51072   0.61168   0.00000  Uiso   1.00
C997   C     0.35473   0.45909   0.74463   0.00000  Uiso   1.00
C998   C     0.64527   0.54092   0.75533   0.00000  Uiso   1.00
C999   C     0.64558   0.45906   0.74470   0.00000  Uiso   1.00
C1000  C     0.35442   0.54095   0.75525   0.00000  Uiso   1.00
H1001  H     0.37096   0.42721   0.74028   0.00000  Uiso   1.00
H1002  H     0.62904   0.57281   0.75969   0.00000  Uiso   1.00
H1003  H     0.62960   0.42717   0.74041   0.00000  Uiso   1.00
H1004  H     0.37041   0.57285   0.75954   0.00000  Uiso   1.00
C1005  C     0.62423   0.49998   0.75004   0.00000  Uiso   1.00
C1006  C     0.37577   0.50004   0.74993   0.00000  Uiso   1.00
C1007  C     0.52731   0.35728   0.77550   0.00000  Uiso   1.00
C1008  C     0.47269   0.64272   0.72450   0.00000  Uiso   1.00
C1009  C     0.47269   0.35735   0.72450   0.00000  Uiso   1.00
C1010  C     0.52731   0.64265   0.77550   0.00000  Uiso   1.00
H1011  H     0.54913   0.37542   0.79590   0.00000  Uiso   1.00
H1012  H     0.45087   0.62458   0.70410   0.00000  Uiso   1.00
H1013  H     0.45087   0.37555   0.70410   0.00000  Uiso   1.00
H1014  H     0.54913   0.62445   0.79591   0.00000  Uiso   1.00
N1015  N     0.50000   0.61907   0.75000   0.00000  Uiso   1.00
N1016  N     0.50000   0.38093   0.75000   0.00000  Uiso   1.00
C1017  C     0.38256   0.49076   0.95547   0.00000  Uiso   1.00
H1018  H     0.38328   0.45974   0.93435   0.00000  Uiso   1.00
H1019  H     0.35588   0.48689   0.97899   0.00000  Uiso   1.00
H1020  H     0.37689   0.52083   0.93407   0.00000  Uiso   1.00
C1021  C     0.61538   0.52434   0.54525   0.00000  Uiso   1.00
H1022  H     0.61193   0.55415   0.56779   0.00000  Uiso   1.00
H1023  H     0.62360   0.49391   0.56512   0.00000  Uiso   1.00
H1024  H     0.64165   0.53159   0.52217   0.00000  Uiso   1.00
N1025  N     0.38640   0.50463   0.55102   0.00000  Uiso   1.00
H1026  H     0.38055   0.47986   0.57466   0.00000  Uiso   1.00
C1027  C     0.37964   0.55038   0.56738   0.00000  Uiso   1.00
H1028  H     0.35160   0.55152   0.58935   0.00000  Uiso   1.00
H1029  H     0.37544   0.57379   0.53862   0.00000  Uiso   1.00
H1030  H     0.40600   0.56233   0.58758   0.00000  Uiso   1.00
N1031  N     0.61243   0.52354   0.94925   0.00000  Uiso   1.00
H1032  H     0.61899   0.50005   0.92450   0.00000  Uiso   1.00
C1033  C     0.61968   0.57000   0.93586   0.00000  Uiso   1.00
H1034  H     0.65058   0.57281   0.91923   0.00000  Uiso   1.00
H1035  H     0.61903   0.59256   0.96574   0.00000  Uiso   1.00
H1036  H     0.59585   0.58136   0.91192   0.00000  Uiso   1.00
O1037  O     0.77226   0.53821   0.75000   0.00000  Uiso   1.00
O1038  O     0.89441   0.46179   0.75001   0.00000  Uiso   1.00
O1039  O     0.89441   0.53821   0.75001   0.00000  Uiso   1.00
O1040  O     0.77226   0.46179   0.75000   0.00000  Uiso   1.00
C1041  C     0.75326   0.50002   0.74997   0.00000  Uiso   1.00
C1042  C     0.91340   0.49998   0.75002   0.00000  Uiso   1.00
O1043  O     0.83333   0.53823   0.68393   0.00000  Uiso   1.00
O1044  O     0.83334   0.46177   0.81608   0.00000  Uiso   1.00
O1045  O     0.83334   0.53823   0.81608   0.00000  Uiso   1.00
O1046  O     0.83333   0.46177   0.68393   0.00000  Uiso   1.00
C1047  C     0.83425   0.50000   0.66355   0.00000  Uiso   1.00
C1048  C     0.83246   0.50003   0.83646   0.00000  Uiso   1.00
Zn1049 Zn    0.83333   0.55104   0.75000   0.00000  Uiso   1.00
Zn1050 Zn    0.83333   0.44896   0.75000   0.00000  Uiso   1.00
C1051  C     0.86942   0.50739   0.90525   0.00000  Uiso   1.00
C1052  C     0.79709   0.49633   0.59461   0.00000  Uiso   1.00
C1053  C     0.83239   0.50035   0.88404   0.00000  Uiso   1.00
C1054  C     0.83436   0.50024   0.61597   0.00000  Uiso   1.00
C1055  C     0.79526   0.49606   0.90751   0.00000  Uiso   1.00
C1056  C     0.87117   0.50711   0.59261   0.00000  Uiso   1.00
C1057  C     0.79458   0.49824   0.95432   0.00000  Uiso   1.00
C1058  C     0.87146   0.50893   0.54576   0.00000  Uiso   1.00
C1059  C     0.83279   0.50376   0.97659   0.00000  Uiso   1.00
C1060  C     0.83337   0.50380   0.52336   0.00000  Uiso   1.00
C1061  C     0.87046   0.50894   0.95187   0.00000  Uiso   1.00
C1062  C     0.79574   0.49926   0.54806   0.00000  Uiso   1.00
C1063  C     0.75676   0.49605   0.97905   0.00000  Uiso   1.00
C1064  C     0.90865   0.51633   0.52117   0.00000  Uiso   1.00
C1065  C     0.75748   0.49889   0.52612   0.00000  Uiso   1.00
C1066  C     0.90812   0.51635   0.97399   0.00000  Uiso   1.00
H1067  H     0.89704   0.51162   0.88458   0.00000  Uiso   1.00
H1068  H     0.76938   0.49166   0.61506   0.00000  Uiso   1.00
H1069  H     0.76725   0.49188   0.88857   0.00000  Uiso   1.00
H1070  H     0.89917   0.51072   0.61168   0.00000  Uiso   1.00
C1071  C     0.68806   0.45909   0.74463   0.00000  Uiso   1.00
C1072  C     0.97861   0.54092   0.75533   0.00000  Uiso   1.00
C1073  C     0.97891   0.45906   0.74470   0.00000  Uiso   1.00
C1074  C     0.68775   0.54095   0.75525   0.00000  Uiso   1.00
H1075  H     0.70429   0.42721   0.74028   0.00000  Uiso   1.00
H1076  H     0.96238   0.57281   0.75969   0.00000  Uiso   1.00
H1077  H     0.96293   0.42717   0.74041   0.00000  Uiso   1.00
H1078  H     0.70374   0.57285   0.75954   0.00000  Uiso   1.00
C1079  C     0.95756   0.49998   0.75004   0.00000  Uiso   1.00
C1080  C     0.70910   0.50004   0.74993   0.00000  Uiso   1.00
C1081  C     0.86064   0.35728   0.77550   0.00000  Uiso   1.00
C1082  C     0.80603   0.64272   0.72450   0.00000  Uiso   1.00
C1083  C     0.80603   0.35735   0.72450   0.00000  Uiso   1.00
C1084  C     0.86064   0.64265   0.77550   0.00000  Uiso   1.00
H1085  H     0.88247   0.37542   0.79590   0.00000  Uiso   1.00
H1086  H     0.78420   0.62458   0.70410   0.00000  Uiso   1.00
H1087  H     0.78420   0.37555   0.70410   0.00000  Uiso   1.00
H1088  H     0.88246   0.62445   0.79591   0.00000  Uiso   1.00
N1089  N     0.83333   0.61907   0.75000   0.00000  Uiso   1.00
N1090  N     0.83333   0.38093   0.75000   0.00000  Uiso   1.00
C1091  C     0.71590   0.49076   0.95547   0.00000  Uiso   1.00
H1092  H     0.71661   0.45974   0.93435   0.00000  Uiso   1.00
H1093  H     0.68921   0.48689   0.97899   0.00000  Uiso   1.00
H1094  H     0.71023   0.52083   0.93407   0.00000  Uiso   1.00
C1095  C     0.94871   0.52434   0.54525   0.00000  Uiso   1.00
H1096  H     0.94526   0.55415   0.56779   0.00000  Uiso   1.00
H1097  H     0.95693   0.49391   0.56512   0.00000  Uiso   1.00
H1098  H     0.97498   0.53159   0.52217   0.00000  Uiso   1.00
N1099  N     0.71974   0.50463   0.55102   0.00000  Uiso   1.00
H1100  H     0.71388   0.47986   0.57466   0.00000  Uiso   1.00
C1101  C     0.71297   0.55038   0.56738   0.00000  Uiso   1.00
H1102  H     0.68493   0.55152   0.58935   0.00000  Uiso   1.00
H1103  H     0.70877   0.57379   0.53862   0.00000  Uiso   1.00
H1104  H     0.73933   0.56233   0.58758   0.00000  Uiso   1.00
N1105  N     0.94576   0.52354   0.94925   0.00000  Uiso   1.00
H1106  H     0.95232   0.50005   0.92450   0.00000  Uiso   1.00
C1107  C     0.95301   0.57000   0.93586   0.00000  Uiso   1.00
H1108  H     0.98392   0.57281   0.91923   0.00000  Uiso   1.00
H1109  H     0.95236   0.59256   0.96574   0.00000  Uiso   1.00
H1110  H     0.92918   0.58136   0.91192   0.00000  Uiso   1.00
O1111  O     0.10559   0.87154   0.75000   0.00000  Uiso   1.00
O1112  O     0.22774   0.79513   0.75001   0.00000  Uiso   1.00
O1113  O     0.22774   0.87154   0.75001   0.00000  Uiso   1.00
O1114  O     0.10559   0.79513   0.75000   0.00000  Uiso   1.00
C1115  C     0.08660   0.83336   0.74997   0.00000  Uiso   1.00
C1116  C     0.24674   0.83331   0.75002   0.00000  Uiso   1.00
O1117  O     0.16666   0.87156   0.68393   0.00000  Uiso   1.00
O1118  O     0.16667   0.79511   0.81608   0.00000  Uiso   1.00
O1119  O     0.16667   0.87156   0.81608   0.00000  Uiso   1.00
O1120  O     0.16666   0.79511   0.68393   0.00000  Uiso   1.00
C1121  C     0.16759   0.83333   0.66355   0.00000  Uiso   1.00
C1122  C     0.16579   0.83336   0.83646   0.00000  Uiso   1.00
Zn1123 Zn    0.16667   0.88437   0.75000   0.00000  Uiso   1.00
Zn1124 Zn    0.16667   0.78229   0.75000   0.00000  Uiso   1.00
C1125  C     0.20276   0.84072   0.90525   0.00000  Uiso   1.00
C1126  C     0.13042   0.82966   0.59461   0.00000  Uiso   1.00
C1127  C     0.16573   0.83368   0.88404   0.00000  Uiso   1.00
C1128  C     0.16769   0.83357   0.61597   0.00000  Uiso   1.00
C1129  C     0.12859   0.82939   0.90751   0.00000  Uiso   1.00
C1130  C     0.20451   0.84044   0.59261   0.00000  Uiso   1.00
C1131  C     0.12791   0.83157   0.95432   0.00000  Uiso   1.00
C1132  C     0.20479   0.84226   0.54576   0.00000  Uiso   1.00
C1133  C     0.16613   0.83709   0.97659   0.00000  Uiso   1.00
C1134  C     0.16670   0.83713   0.52336   0.00000  Uiso   1.00
C1135  C     0.20379   0.84227   0.95187   0.00000  Uiso   1.00
C1136  C     0.12908   0.83259   0.54806   0.00000  Uiso   1.00
C1137  C     0.09009   0.82938   0.97905   0.00000  Uiso   1.00
C1138  C     0.24199   0.84966   0.52117   0.00000  Uiso   1.00
C1139  C     0.09081   0.83222   0.52612   0.00000  Uiso   1.00
C1140  C     0.24145   0.84968   0.97399   0.00000  Uiso   1.00
H1141  H     0.23037   0.84496   0.88458   0.00000  Uiso   1.00
H1142  H     0.10271   0.82499   0.61506   0.00000  Uiso   1.00
H1143  H     0.10058   0.82522   0.88857   0.00000  Uiso   1.00
H1144  H     0.23251   0.84406   0.61168   0.00000  Uiso   1.00
C1145  C     0.02139   0.79243   0.74463   0.00000  Uiso   1.00
C1146  C     0.31194   0.87426   0.75533   0.00000  Uiso   1.00
C1147  C     0.31225   0.79240   0.74470   0.00000  Uiso   1.00
C1148  C     0.02109   0.87429   0.75525   0.00000  Uiso   1.00
H1149  H     0.03762   0.76054   0.74028   0.00000  Uiso   1.00
H1150  H     0.29571   0.90614   0.75969   0.00000  Uiso   1.00
H1151  H     0.29626   0.76050   0.74041   0.00000  Uiso   1.00
H1152  H     0.03707   0.90618   0.75954   0.00000  Uiso   1.00
C1153  C     0.29090   0.83331   0.75004   0.00000  Uiso   1.00
C1154  C     0.04244   0.83337   0.74993   0.00000  Uiso   1.00
C1155  C     0.19397   0.69061   0.77550   0.00000  Uiso   1.00
C1156  C     0.13936   0.97605   0.72450   0.00000  Uiso   1.00
C1157  C     0.13936   0.69068   0.72450   0.00000  Uiso   1.00
C1158  C     0.19397   0.97598   0.77550   0.00000  Uiso   1.00
H1159  H     0.21580   0.70875   0.79590   0.00000  Uiso   1.00
H1160  H     0.11754   0.95791   0.70410   0.00000  Uiso   1.00
H1161  H     0.11753   0.70888   0.70410   0.00000  Uiso   1.00
H1162  H     0.21579   0.95778   0.79591   0.00000  Uiso   1.00
N1163  N     0.16667   0.95240   0.75000   0.00000  Uiso   1.00
N1164  N     0.16667   0.71427   0.75000   0.00000  Uiso   1.00
C1165  C     0.04923   0.82409   0.95547   0.00000  Uiso   1.00
H1166  H     0.04994   0.79307   0.93435   0.00000  Uiso   1.00
H1167  H     0.02254   0.82022   0.97899   0.00000  Uiso   1.00
H1168  H     0.04356   0.85416   0.93407   0.00000  Uiso   1.00
C1169  C     0.28205   0.85768   0.54525   0.00000  Uiso   1.00
H1170  H     0.27859   0.88748   0.56779   0.00000  Uiso   1.00
H1171  H     0.29026   0.82724   0.56512   0.00000  Uiso   1.00
H1172  H     0.30832   0.86492   0.52217   0.00000  Uiso   1.00
N1173  N     0.05307   0.83796   0.55102   0.00000  Uiso   1.00
H1174  H     0.04721   0.81320   0.57466   0.00000  Uiso   1.00
C1175  C     0.04631   0.88372   0.56738   0.00000  Uiso   1.00
H1176  H     0.01826   0.88486   0.58935   0.00000  Uiso   1.00
H1177  H     0.04211   0.90712   0.53862   0.00000  Uiso   1.00
H1178  H     0.07267   0.89566   0.58758   0.00000  Uiso   1.00
N1179  N     0.27909   0.85687   0.94925   0.00000  Uiso   1.00
H1180  H     0.28566   0.83338   0.92450   0.00000  Uiso   1.00
C1181  C     0.28635   0.90333   0.93586   0.00000  Uiso   1.00
H1182  H     0.31725   0.90614   0.91923   0.00000  Uiso   1.00
H1183  H     0.28570   0.92589   0.96574   0.00000  Uiso   1.00
H1184  H     0.26252   0.91469   0.91192   0.00000  Uiso   1.00
O1185  O     0.43892   0.87154   0.75000   0.00000  Uiso   1.00
O1186  O     0.56108   0.79513   0.75001   0.00000  Uiso   1.00
O1187  O     0.56108   0.87154   0.75001   0.00000  Uiso   1.00
O1188  O     0.43892   0.79513   0.75000   0.00000  Uiso   1.00
C1189  C     0.41993   0.83336   0.74997   0.00000  Uiso   1.00
C1190  C     0.58007   0.83331   0.75002   0.00000  Uiso   1.00
O1191  O     0.49999   0.87156   0.68393   0.00000  Uiso   1.00
O1192  O     0.50001   0.79511   0.81608   0.00000  Uiso   1.00
O1193  O     0.50001   0.87156   0.81608   0.00000  Uiso   1.00
O1194  O     0.49999   0.79511   0.68393   0.00000  Uiso   1.00
C1195  C     0.50092   0.83333   0.66355   0.00000  Uiso   1.00
C1196  C     0.49912   0.83336   0.83646   0.00000  Uiso   1.00
Zn1197 Zn    0.50000   0.88437   0.75000   0.00000  Uiso   1.00
Zn1198 Zn    0.50000   0.78229   0.75000   0.00000  Uiso   1.00
C1199  C     0.53609   0.84072   0.90525   0.00000  Uiso   1.00
C1200  C     0.46375   0.82966   0.59461   0.00000  Uiso   1.00
C1201  C     0.49906   0.83368   0.88404   0.00000  Uiso   1.00
C1202  C     0.50103   0.83357   0.61597   0.00000  Uiso   1.00
C1203  C     0.46192   0.82939   0.90751   0.00000  Uiso   1.00
C1204  C     0.53784   0.84044   0.59261   0.00000  Uiso   1.00
C1205  C     0.46125   0.83157   0.95432   0.00000  Uiso   1.00
C1206  C     0.53813   0.84226   0.54576   0.00000  Uiso   1.00
C1207  C     0.49946   0.83709   0.97659   0.00000  Uiso   1.00
C1208  C     0.50004   0.83713   0.52336   0.00000  Uiso   1.00
C1209  C     0.53712   0.84227   0.95187   0.00000  Uiso   1.00
C1210  C     0.46241   0.83259   0.54806   0.00000  Uiso   1.00
C1211  C     0.42343   0.82938   0.97905   0.00000  Uiso   1.00
C1212  C     0.57532   0.84966   0.52117   0.00000  Uiso   1.00
C1213  C     0.42414   0.83222   0.52612   0.00000  Uiso   1.00
C1214  C     0.57479   0.84968   0.97399   0.00000  Uiso   1.00
H1215  H     0.56370   0.84496   0.88458   0.00000  Uiso   1.00
H1216  H     0.43605   0.82499   0.61506   0.00000  Uiso   1.00
H1217  H     0.43391   0.82522   0.88857   0.00000  Uiso   1.00
H1218  H     0.56584   0.84406   0.61168   0.00000  Uiso   1.00
C1219  C     0.35473   0.79243   0.74463   0.00000  Uiso   1.00
C1220  C     0.64527   0.87426   0.75533   0.00000  Uiso   1.00
C1221  C     0.64558   0.79240   0.74470   0.00000  Uiso   1.00
C1222  C     0.35442   0.87429   0.75525   0.00000  Uiso   1.00
H1223  H     0.37096   0.76054   0.74028   0.00000  Uiso   1.00
H1224  H     0.62904   0.90614   0.75969   0.00000  Uiso   1.00
H1225  H     0.62960   0.76050   0.74041   0.00000  Uiso   1.00
H1226  H     0.37041   0.90618   0.75954   0.00000  Uiso   1.00
C1227  C     0.62423   0.83331   0.75004   0.00000  Uiso   1.00
C1228  C     0.37577   0.83337   0.74993   0.00000  Uiso   1.00
C1229  C     0.52731   0.69061   0.77550   0.00000  Uiso   1.00
C1230  C     0.47269   0.97605   0.72450   0.00000  Uiso   1.00
C1231  C     0.47269   0.69068   0.72450   0.00000  Uiso   1.00
C1232  C     0.52731   0.97598   0.77550   0.00000  Uiso   1.00
H1233  H     0.54913   0.70875   0.79590   0.00000  Uiso   1.00
H1234  H     0.45087   0.95791   0.70410   0.00000  Uiso   1.00
H1235  H     0.45087   0.70888   0.70410   0.00000  Uiso   1.00
H1236  H     0.54913   0.95778   0.79591   0.00000  Uiso   1.00
N1237  N     0.50000   0.95240   0.75000   0.00000  Uiso   1.00
N1238  N     0.50000   0.71427   0.75000   0.00000  Uiso   1.00
C1239  C     0.38256   0.82409   0.95547   0.00000  Uiso   1.00
H1240  H     0.38328   0.79307   0.93435   0.00000  Uiso   1.00
H1241  H     0.35588   0.82022   0.97899   0.00000  Uiso   1.00
H1242  H     0.37689   0.85416   0.93407   0.00000  Uiso   1.00
C1243  C     0.61538   0.85768   0.54525   0.00000  Uiso   1.00
H1244  H     0.61193   0.88748   0.56779   0.00000  Uiso   1.00
H1245  H     0.62360   0.82724   0.56512   0.00000  Uiso   1.00
H1246  H     0.64165   0.86492   0.52217   0.00000  Uiso   1.00
N1247  N     0.38640   0.83796   0.55102   0.00000  Uiso   1.00
H1248  H     0.38055   0.81320   0.57466   0.00000  Uiso   1.00
C1249  C     0.37964   0.88372   0.56738   0.00000  Uiso   1.00
H1250  H     0.35160   0.88486   0.58935   0.00000  Uiso   1.00
H1251  H     0.37544   0.90712   0.53862   0.00000  Uiso   1.00
H1252  H     0.40600   0.89566   0.58758   0.00000  Uiso   1.00
N1253  N     0.61243   0.85687   0.94925   0.00000  Uiso   1.00
H1254  H     0.61899   0.83338   0.92450   0.00000  Uiso   1.00
C1255  C     0.61968   0.90333   0.93586   0.00000  Uiso   1.00
H1256  H     0.65058   0.90614   0.91923   0.00000  Uiso   1.00
H1257  H     0.61903   0.92589   0.96574   0.00000  Uiso   1.00
H1258  H     0.59585   0.91469   0.91192   0.00000  Uiso   1.00
O1259  O     0.77226   0.87154   0.75000   0.00000  Uiso   1.00
O1260  O     0.89441   0.79513   0.75001   0.00000  Uiso   1.00
O1261  O     0.89441   0.87154   0.75001   0.00000  Uiso   1.00
O1262  O     0.77226   0.79513   0.75000   0.00000  Uiso   1.00
C1263  C     0.75326   0.83336   0.74997   0.00000  Uiso   1.00
C1264  C     0.91340   0.83331   0.75002   0.00000  Uiso   1.00
O1265  O     0.83333   0.87156   0.68393   0.00000  Uiso   1.00
O1266  O     0.83334   0.79511   0.81608   0.00000  Uiso   1.00
O1267  O     0.83334   0.87156   0.81608   0.00000  Uiso   1.00
O1268  O     0.83333   0.79511   0.68393   0.00000  Uiso   1.00
C1269  C     0.83425   0.83333   0.66355   0.00000  Uiso   1.00
C1270  C     0.83246   0.83336   0.83646   0.00000  Uiso   1.00
Zn1271 Zn    0.83333   0.88437   0.75000   0.00000  Uiso   1.00
Zn1272 Zn    0.83333   0.78229   0.75000   0.00000  Uiso   1.00
C1273  C     0.86942   0.84072   0.90525   0.00000  Uiso   1.00
C1274  C     0.79709   0.82966   0.59461   0.00000  Uiso   1.00
C1275  C     0.83239   0.83368   0.88404   0.00000  Uiso   1.00
C1276  C     0.83436   0.83357   0.61597   0.00000  Uiso   1.00
C1277  C     0.79526   0.82939   0.90751   0.00000  Uiso   1.00
C1278  C     0.87117   0.84044   0.59261   0.00000  Uiso   1.00
C1279  C     0.79458   0.83157   0.95432   0.00000  Uiso   1.00
C1280  C     0.87146   0.84226   0.54576   0.00000  Uiso   1.00
C1281  C     0.83279   0.83709   0.97659   0.00000  Uiso   1.00
C1282  C     0.83337   0.83713   0.52336   0.00000  Uiso   1.00
C1283  C     0.87046   0.84227   0.95187   0.00000  Uiso   1.00
C1284  C     0.79574   0.83259   0.54806   0.00000  Uiso   1.00
C1285  C     0.75676   0.82938   0.97905   0.00000  Uiso   1.00
C1286  C     0.90865   0.84966   0.52117   0.00000  Uiso   1.00
C1287  C     0.75748   0.83222   0.52612   0.00000  Uiso   1.00
C1288  C     0.90812   0.84968   0.97399   0.00000  Uiso   1.00
H1289  H     0.89704   0.84496   0.88458   0.00000  Uiso   1.00
H1290  H     0.76938   0.82499   0.61506   0.00000  Uiso   1.00
H1291  H     0.76725   0.82522   0.88857   0.00000  Uiso   1.00
H1292  H     0.89917   0.84406   0.61168   0.00000  Uiso   1.00
C1293  C     0.68806   0.79243   0.74463   0.00000  Uiso   1.00
C1294  C     0.97861   0.87426   0.75533   0.00000  Uiso   1.00
C1295  C     0.97891   0.79240   0.74470   0.00000  Uiso   1.00
C1296  C     0.68775   0.87429   0.75525   0.00000  Uiso   1.00
H1297  H     0.70429   0.76054   0.74028   0.00000  Uiso   1.00
H1298  H     0.96238   0.90614   0.75969   0.00000  Uiso   1.00
H1299  H     0.96293   0.76050   0.74041   0.00000  Uiso   1.00
H1300  H     0.70374   0.90618   0.75954   0.00000  Uiso   1.00
C1301  C     0.95756   0.83331   0.75004   0.00000  Uiso   1.00
C1302  C     0.70910   0.83337   0.74993   0.00000  Uiso   1.00
C1303  C     0.86064   0.69061   0.77550   0.00000  Uiso   1.00
C1304  C     0.80603   0.97605   0.72450   0.00000  Uiso   1.00
C1305  C     0.80603   0.69068   0.72450   0.00000  Uiso   1.00
C1306  C     0.86064   0.97598   0.77550   0.00000  Uiso   1.00
H1307  H     0.88247   0.70875   0.79590   0.00000  Uiso   1.00
H1308  H     0.78420   0.95791   0.70410   0.00000  Uiso   1.00
H1309  H     0.78420   0.70888   0.70410   0.00000  Uiso   1.00
H1310  H     0.88246   0.95778   0.79591   0.00000  Uiso   1.00
N1311  N     0.83333   0.95240   0.75000   0.00000  Uiso   1.00
N1312  N     0.83333   0.71427   0.75000   0.00000  Uiso   1.00
C1313  C     0.71590   0.82409   0.95547   0.00000  Uiso   1.00
H1314  H     0.71661   0.79307   0.93435   0.00000  Uiso   1.00
H1315  H     0.68921   0.82022   0.97899   0.00000  Uiso   1.00
H1316  H     0.71023   0.85416   0.93407   0.00000  Uiso   1.00
C1317  C     0.94871   0.85768   0.54525   0.00000  Uiso   1.00
H1318  H     0.94526   0.88748   0.56779   0.00000  Uiso   1.00
H1319  H     0.95693   0.82724   0.56512   0.00000  Uiso   1.00
H1320  H     0.97498   0.86492   0.52217   0.00000  Uiso   1.00
N1321  N     0.71974   0.83796   0.55102   0.00000  Uiso   1.00
H1322  H     0.71388   0.81320   0.57466   0.00000  Uiso   1.00
C1323  C     0.71297   0.88372   0.56738   0.00000  Uiso   1.00
H1324  H     0.68493   0.88486   0.58935   0.00000  Uiso   1.00
H1325  H     0.70877   0.90712   0.53862   0.00000  Uiso   1.00
H1326  H     0.73933   0.89566   0.58758   0.00000  Uiso   1.00
N1327  N     0.94576   0.85687   0.94925   0.00000  Uiso   1.00
H1328  H     0.95232   0.83338   0.92450   0.00000  Uiso   1.00
C1329  C     0.95301   0.90333   0.93586   0.00000  Uiso   1.00
H1330  H     0.98392   0.90614   0.91923   0.00000  Uiso   1.00
H1331  H     0.95236   0.92589   0.96574   0.00000  Uiso   1.00
H1332  H     0.92918   0.91469   0.91192   0.00000  Uiso   1.00
loop_
_geom_bond_atom_site_label_1
_geom_bond_atom_site_label_2
_geom_bond_distance
_geom_bond_site_symmetry_2
_ccdc_geom_bond_type
O1     C5      1.285   .     A
O1     Zn13    2.011   .     S
O2     C6      1.285   .     A
O2     Zn14    2.011   .     S
O3     Zn13    2.010   .     S
O3     C6      1.284   .     A
O4     Zn14    2.010   .     S
O4     C5      1.284   .     A
C5     C44     1.427   .     S
C6     C43     1.427   .     S
O7     C11     1.281   .     A
O7     Zn13    2.003   .     S
O8     C12     1.282   .     A
O8     Zn14    2.003   .     S
O9     C12     1.281   .     A
O9     Zn13    2.004   .     S
O10    C11     1.282   .     A
O10    Zn14    2.004   .     S
C11    C18     1.417   .     S
C12    C17     1.417   .     S
Zn13   N53     2.009   .     S
Zn14   N54     2.009   .     S
C15    C25     1.390   .     A
C15    C17     1.380   .     A
C15    H31     1.082   .     S
C16    H32     1.083   .     S
C16    C18     1.378   .     A
C16    C26     1.390   .     A
C17    C19     1.384   .     A
C18    C20     1.382   .     A
C19    C21     1.395   .     A
C19    H33     1.083   .     S
C20    H34     1.083   .     S
C20    C22     1.396   .     A
C21    C27     1.417   .     A
C21    C23     1.422   .     A
C22    C28     1.413   .     A
C22    C24     1.419   .     A
C23    C25     1.419   .     A
C23    C690    1.393   .     S
C24    C26     1.416   .     A
C24    C689    1.393   1_554 S
C25    C30     1.412   .     A
C26    C29     1.410   .     A
C27    C55     1.516   .     S
C27    C695    1.405   .     S
C28    C59     1.511   .     S
C28    C696    1.405   1_554 S
C29    N63     1.426   .     S
C29    C693    1.405   1_554 S
C30    N69     1.427   .     S
C30    C694    1.405   .     S
C35    H39     1.084   .     S
C35    C44     1.398   .     A
C35    C185    1.373   1_455 S
C36    C43     1.398   .     A
C36    H40     1.084   .     S
C36    C112    1.373   .     S
C37    C43     1.398   .     A
C37    H41     1.084   .     S
C37    C109    1.373   .     S
C38    C44     1.398   .     A
C38    H42     1.084   .     S
C38    C184    1.373   1_455 S
C45    H49     1.082   .     S
C45    N54     1.366   .     A
C45    C492    1.416   1_545 S
C46    H50     1.082   .     S
C46    N53     1.366   .     A
C46    C269    1.416   .     S
C47    N54     1.366   .     A
C47    H51     1.082   .     S
C47    C490    1.416   1_545 S
C48    N53     1.366   .     A
C48    H52     1.082   .     S
C48    C267    1.416   .     S
C55    H56     1.111   .     S
C55    H57     1.107   .     S
C55    H58     1.110   .     S
C59    H60     1.111   .     S
C59    H62     1.104   .     S
C59    H61     1.111   .     S
N63    C65     1.451   .     S
N63    H64     1.031   .     S
C65    H68     1.110   .     S
C65    H66     1.108   .     S
C65    H67     1.111   .     S
N69    H70     1.031   .     S
N69    C71     1.447   .     S
C71    H74     1.111   .     S
C71    H72     1.110   .     S
C71    H73     1.111   .     S
O75    C79     1.285   .     A
O75    Zn87    2.011   .     S
O76    C80     1.285   .     A
O76    Zn88    2.011   .     S
O77    Zn87    2.010   .     S
O77    C80     1.284   .     A
O78    Zn88    2.010   .     S
O78    C79     1.284   .     A
C79    C118    1.427   .     S
C80    C117    1.427   .     S
O81    C85     1.281   .     A
O81    Zn87    2.003   .     S
O82    C86     1.282   .     A
O82    Zn88    2.003   .     S
O83    C86     1.281   .     A
O83    Zn87    2.004   .     S
O84    C85     1.282   .     A
O84    Zn88    2.004   .     S
C85    C92     1.417   .     S
C86    C91     1.417   .     S
Zn87   N127    2.009   .     S
Zn88   N128    2.009   .     S
C89    C99     1.390   .     A
C89    C91     1.380   .     A
C89    H105    1.082   .     S
C90    H106    1.083   .     S
C90    C92     1.378   .     A
C90    C100    1.390   .     A
C91    C93     1.384   .     A
C92    C94     1.382   .     A
C93    C95     1.395   .     A
C93    H107    1.083   .     S
C94    H108    1.083   .     S
C94    C96     1.396   .     A
C95    C101    1.417   .     A
C95    C97     1.422   .     A
C96    C102    1.413   .     A
C96    C98     1.419   .     A
C97    C99     1.419   .     A
C97    C764    1.393   .     S
C98    C100    1.416   .     A
C98    C763    1.393   1_554 S
C99    C104    1.412   .     A
C100   C103    1.410   .     A
C101   C129    1.516   .     S
C101   C769    1.405   .     S
C102   C133    1.511   .     S
C102   C770    1.405   1_554 S
C103   N137    1.426   .     S
C103   C767    1.405   1_554 S
C104   N143    1.427   .     S
C104   C768    1.405   .     S
C109   H113    1.084   .     S
C109   C118    1.398   .     A
C110   C117    1.398   .     A
C110   H114    1.084   .     S
C110   C186    1.373   .     S
C111   C117    1.398   .     A
C111   H115    1.084   .     S
C111   C183    1.373   .     S
C112   C118    1.398   .     A
C112   H116    1.084   .     S
C119   H123    1.082   .     S
C119   N128    1.366   .     A
C119   C566    1.416   1_545 S
C120   H124    1.082   .     S
C120   N127    1.366   .     A
C120   C343    1.416   .     S
C121   N128    1.366   .     A
C121   H125    1.082   .     S
C121   C564    1.416   1_545 S
C122   N127    1.366   .     A
C122   H126    1.082   .     S
C122   C341    1.416   .     S
C129   H130    1.111   .     S
C129   H131    1.107   .     S
C129   H132    1.110   .     S
C133   H134    1.111   .     S
C133   H136    1.104   .     S
C133   H135    1.111   .     S
N137   C139    1.451   .     S
N137   H138    1.031   .     S
C139   H142    1.110   .     S
C139   H140    1.108   .     S
C139   H141    1.111   .     S
N143   H144    1.031   .     S
N143   C145    1.447   .     S
C145   H148    1.111   .     S
C145   H146    1.110   .     S
C145   H147    1.111   .     S
O149   C153    1.285   .     A
O149   Zn161   2.011   .     S
O150   C154    1.285   .     A
O150   Zn162   2.011   .     S
O151   Zn161   2.010   .     S
O151   C154    1.284   .     A
O152   Zn162   2.010   .     S
O152   C153    1.284   .     A
C153   C192    1.427   .     S
C154   C191    1.427   .     S
O155   C159    1.281   .     A
O155   Zn161   2.003   .     S
O156   C160    1.282   .     A
O156   Zn162   2.003   .     S
O157   C160    1.281   .     A
O157   Zn161   2.004   .     S
O158   C159    1.282   .     A
O158   Zn162   2.004   .     S
C159   C166    1.417   .     S
C160   C165    1.417   .     S
Zn161  N201    2.009   .     S
Zn162  N202    2.009   .     S
C163   C173    1.390   .     A
C163   C165    1.380   .     A
C163   H179    1.082   .     S
C164   H180    1.083   .     S
C164   C166    1.378   .     A
C164   C174    1.390   .     A
C165   C167    1.384   .     A
C166   C168    1.382   .     A
C167   C169    1.395   .     A
C167   H181    1.083   .     S
C168   H182    1.083   .     S
C168   C170    1.396   .     A
C169   C175    1.417   .     A
C169   C171    1.422   .     A
C170   C176    1.413   .     A
C170   C172    1.419   .     A
C171   C173    1.419   .     A
C171   C838    1.393   .     S
C172   C174    1.416   .     A
C172   C837    1.393   1_554 S
C173   C178    1.412   .     A
C174   C177    1.410   .     A
C175   C203    1.516   .     S
C175   C843    1.405   .     S
C176   C207    1.511   .     S
C176   C844    1.405   1_554 S
C177   N211    1.426   .     S
C177   C841    1.405   1_554 S
C178   N217    1.427   .     S
C178   C842    1.405   .     S
C183   H187    1.084   .     S
C183   C192    1.398   .     A
C184   C191    1.398   .     A
C184   H188    1.084   .     S
C184   C38     1.373   1_655 S
C185   C191    1.398   .     A
C185   H189    1.084   .     S
C185   C35     1.373   1_655 S
C186   C192    1.398   .     A
C186   H190    1.084   .     S
C193   H197    1.082   .     S
C193   N202    1.366   .     A
C193   C640    1.416   1_545 S
C194   H198    1.082   .     S
C194   N201    1.366   .     A
C194   C417    1.416   .     S
C195   N202    1.366   .     A
C195   H199    1.082   .     S
C195   C638    1.416   1_545 S
C196   N201    1.366   .     A
C196   H200    1.082   .     S
C196   C415    1.416   .     S
C203   H204    1.111   .     S
C203   H205    1.107   .     S
C203   H206    1.110   .     S
C207   H208    1.111   .     S
C207   H210    1.104   .     S
C207   H209    1.111   .     S
N211   C213    1.451   .     S
N211   H212    1.031   .     S
C213   H216    1.110   .     S
C213   H214    1.108   .     S
C213   H215    1.111   .     S
N217   H218    1.031   .     S
N217   C219    1.447   .     S
C219   H222    1.111   .     S
C219   H220    1.110   .     S
C219   H221    1.111   .     S
O223   C227    1.285   .     A
O223   Zn235   2.011   .     S
O224   C228    1.285   .     A
O224   Zn236   2.011   .     S
O225   Zn235   2.010   .     S
O225   C228    1.284   .     A
O226   Zn236   2.010   .     S
O226   C227    1.284   .     A
C227   C266    1.427   .     S
C228   C265    1.427   .     S
O229   C233    1.281   .     A
O229   Zn235   2.003   .     S
O230   C234    1.282   .     A
O230   Zn236   2.003   .     S
O231   C234    1.281   .     A
O231   Zn235   2.004   .     S
O232   C233    1.282   .     A
O232   Zn236   2.004   .     S
C233   C240    1.417   .     S
C234   C239    1.417   .     S
Zn235  N275    2.009   .     S
Zn236  N276    2.009   .     S
C237   C247    1.390   .     A
C237   C239    1.380   .     A
C237   H253    1.082   .     S
C238   H254    1.083   .     S
C238   C240    1.378   .     A
C238   C248    1.390   .     A
C239   C241    1.384   .     A
C240   C242    1.382   .     A
C241   C243    1.395   .     A
C241   H255    1.083   .     S
C242   H256    1.083   .     S
C242   C244    1.396   .     A
C243   C249    1.417   .     A
C243   C245    1.422   .     A
C244   C250    1.413   .     A
C244   C246    1.419   .     A
C245   C247    1.419   .     A
C245   C912    1.393   .     S
C246   C248    1.416   .     A
C246   C911    1.393   1_554 S
C247   C252    1.412   .     A
C248   C251    1.410   .     A
C249   C277    1.516   .     S
C249   C917    1.405   .     S
C250   C281    1.511   .     S
C250   C918    1.405   1_554 S
C251   N285    1.426   .     S
C251   C915    1.405   1_554 S
C252   N291    1.427   .     S
C252   C916    1.405   .     S
C257   H261    1.084   .     S
C257   C266    1.398   .     A
C257   C407    1.373   1_455 S
C258   C265    1.398   .     A
C258   H262    1.084   .     S
C258   C334    1.373   .     S
C259   C265    1.398   .     A
C259   H263    1.084   .     S
C259   C331    1.373   .     S
C260   C266    1.398   .     A
C260   H264    1.084   .     S
C260   C406    1.373   1_455 S
C267   H271    1.082   .     S
C267   N276    1.366   .     A
C268   H272    1.082   .     S
C268   N275    1.366   .     A
C268   C491    1.416   .     S
C269   N276    1.366   .     A
C269   H273    1.082   .     S
C270   N275    1.366   .     A
C270   H274    1.082   .     S
C270   C489    1.416   .     S
C277   H278    1.111   .     S
C277   H279    1.107   .     S
C277   H280    1.110   .     S
C281   H282    1.111   .     S
C281   H284    1.104   .     S
C281   H283    1.111   .     S
N285   C287    1.451   .     S
N285   H286    1.031   .     S
C287   H290    1.110   .     S
C287   H288    1.108   .     S
C287   H289    1.111   .     S
N291   H292    1.031   .     S
N291   C293    1.447   .     S
C293   H296    1.111   .     S
C293   H294    1.110   .     S
C293   H295    1.111   .     S
O297   C301    1.285   .     A
O297   Zn309   2.011   .     S
O298   C302    1.285   .     A
O298   Zn310   2.011   .     S
O299   Zn309   2.010   .     S
O299   C302    1.284   .     A
O300   Zn310   2.010   .     S
O300   C301    1.284   .     A
C301   C340    1.427   .     S
C302   C339    1.427   .     S
O303   C307    1.281   .     A
O303   Zn309   2.003   .     S
O304   C308    1.282   .     A
O304   Zn310   2.003   .     S
O305   C308    1.281   .     A
O305   Zn309   2.004   .     S
O306   C307    1.282   .     A
O306   Zn310   2.004   .     S
C307   C314    1.417   .     S
C308   C313    1.417   .     S
Zn309  N349    2.009   .     S
Zn310  N350    2.009   .     S
C311   C321    1.390   .     A
C311   C313    1.380   .     A
C311   H327    1.082   .     S
C312   H328    1.083   .     S
C312   C314    1.378   .     A
C312   C322    1.390   .     A
C313   C315    1.384   .     A
C314   C316    1.382   .     A
C315   C317    1.395   .     A
C315   H329    1.083   .     S
C316   H330    1.083   .     S
C316   C318    1.396   .     A
C317   C323    1.417   .     A
C317   C319    1.422   .     A
C318   C324    1.413   .     A
C318   C320    1.419   .     A
C319   C321    1.419   .     A
C319   C986    1.393   .     S
C320   C322    1.416   .     A
C320   C985    1.393   1_554 S
C321   C326    1.412   .     A
C322   C325    1.410   .     A
C323   C351    1.516   .     S
C323   C991    1.405   .     S
C324   C355    1.511   .     S
C324   C992    1.405   1_554 S
C325   N359    1.426   .     S
C325   C989    1.405   1_554 S
C326   N365    1.427   .     S
C326   C990    1.405   .     S
C331   H335    1.084   .     S
C331   C340    1.398   .     A
C332   C339    1.398   .     A
C332   H336    1.084   .     S
C332   C408    1.373   .     S
C333   C339    1.398   .     A
C333   H337    1.084   .     S
C333   C405    1.373   .     S
C334   C340    1.398   .     A
C334   H338    1.084   .     S
C341   H345    1.082   .     S
C341   N350    1.366   .     A
C342   H346    1.082   .     S
C342   N349    1.366   .     A
C342   C565    1.416   .     S
C343   N350    1.366   .     A
C343   H347    1.082   .     S
C344   N349    1.366   .     A
C344   H348    1.082   .     S
C344   C563    1.416   .     S
C351   H352    1.111   .     S
C351   H353    1.107   .     S
C351   H354    1.110   .     S
C355   H356    1.111   .     S
C355   H358    1.104   .     S
C355   H357    1.111   .     S
N359   C361    1.451   .     S
N359   H360    1.031   .     S
C361   H364    1.110   .     S
C361   H362    1.108   .     S
C361   H363    1.111   .     S
N365   H366    1.031   .     S
N365   C367    1.447   .     S
C367   H370    1.111   .     S
C367   H368    1.110   .     S
C367   H369    1.111   .     S
O371   C375    1.285   .     A
O371   Zn383   2.011   .     S
O372   C376    1.285   .     A
O372   Zn384   2.011   .     S
O373   Zn383   2.010   .     S
O373   C376    1.284   .     A
O374   Zn384   2.010   .     S
O374   C375    1.284   .     A
C375   C414    1.427   .     S
C376   C413    1.427   .     S
O377   C381    1.281   .     A
O377   Zn383   2.003   .     S
O378   C382    1.282   .     A
O378   Zn384   2.003   .     S
O379   C382    1.281   .     A
O379   Zn383   2.004   .     S
O380   C381    1.282   .     A
O380   Zn384   2.004   .     S
C381   C388    1.417   .     S
C382   C387    1.417   .     S
Zn383  N423    2.009   .     S
Zn384  N424    2.009   .     S
C385   C395    1.390   .     A
C385   C387    1.380   .     A
C385   H401    1.082   .     S
C386   H402    1.083   .     S
C386   C388    1.378   .     A
C386   C396    1.390   .     A
C387   C389    1.384   .     A
C388   C390    1.382   .     A
C389   C391    1.395   .     A
C389   H403    1.083   .     S
C390   H404    1.083   .     S
C390   C392    1.396   .     A
C391   C397    1.417   .     A
C391   C393    1.422   .     A
C392   C398    1.413   .     A
C392   C394    1.419   .     A
C393   C395    1.419   .     A
C393   C1060   1.393   .     S
C394   C396    1.416   .     A
C394   C1059   1.393   1_554 S
C395   C400    1.412   .     A
C396   C399    1.410   .     A
C397   C425    1.516   .     S
C397   C1065   1.405   .     S
C398   C429    1.511   .     S
C398   C1066   1.405   1_554 S
C399   N433    1.426   .     S
C399   C1063   1.405   1_554 S
C400   N439    1.427   .     S
C400   C1064   1.405   .     S
C405   H409    1.084   .     S
C405   C414    1.398   .     A
C406   C413    1.398   .     A
C406   H410    1.084   .     S
C406   C260    1.373   1_655 S
C407   C413    1.398   .     A
C407   H411    1.084   .     S
C407   C257    1.373   1_655 S
C408   C414    1.398   .     A
C408   H412    1.084   .     S
C415   H419    1.082   .     S
C415   N424    1.366   .     A
C416   H420    1.082   .     S
C416   N423    1.366   .     A
C416   C639    1.416   .     S
C417   N424    1.366   .     A
C417   H421    1.082   .     S
C418   N423    1.366   .     A
C418   H422    1.082   .     S
C418   C637    1.416   .     S
C425   H426    1.111   .     S
C425   H427    1.107   .     S
C425   H428    1.110   .     S
C429   H430    1.111   .     S
C429   H432    1.104   .     S
C429   H431    1.111   .     S
N433   C435    1.451   .     S
N433   H434    1.031   .     S
C435   H438    1.110   .     S
C435   H436    1.108   .     S
C435   H437    1.111   .     S
N439   H440    1.031   .     S
N439   C441    1.447   .     S
C441   H444    1.111   .     S
C441   H442    1.110   .     S
C441   H443    1.111   .     S
O445   C449    1.285   .     A
O445   Zn457   2.011   .     S
O446   C450    1.285   .     A
O446   Zn458   2.011   .     S
O447   Zn457   2.010   .     S
O447   C450    1.284   .     A
O448   Zn458   2.010   .     S
O448   C449    1.284   .     A
C449   C488    1.427   .     S
C450   C487    1.427   .     S
O451   C455    1.281   .     A
O451   Zn457   2.003   .     S
O452   C456    1.282   .     A
O452   Zn458   2.003   .     S
O453   C456    1.281   .     A
O453   Zn457   2.004   .     S
O454   C455    1.282   .     A
O454   Zn458   2.004   .     S
C455   C462    1.417   .     S
C456   C461    1.417   .     S
Zn457  N497    2.009   .     S
Zn458  N498    2.009   .     S
C459   C469    1.390   .     A
C459   C461    1.380   .     A
C459   H475    1.082   .     S
C460   H476    1.083   .     S
C460   C462    1.378   .     A
C460   C470    1.390   .     A
C461   C463    1.384   .     A
C462   C464    1.382   .     A
C463   C465    1.395   .     A
C463   H477    1.083   .     S
C464   H478    1.083   .     S
C464   C466    1.396   .     A
C465   C471    1.417   .     A
C465   C467    1.422   .     A
C466   C472    1.413   .     A
C466   C468    1.419   .     A
C467   C469    1.419   .     A
C467   C1134   1.393   .     S
C468   C470    1.416   .     A
C468   C1133   1.393   1_554 S
C469   C474    1.412   .     A
C470   C473    1.410   .     A
C471   C499    1.516   .     S
C471   C1139   1.405   .     S
C472   C503    1.511   .     S
C472   C1140   1.405   1_554 S
C473   N507    1.426   .     S
C473   C1137   1.405   1_554 S
C474   N513    1.427   .     S
C474   C1138   1.405   .     S
C479   H483    1.084   .     S
C479   C488    1.398   .     A
C479   C629    1.373   1_455 S
C480   C487    1.398   .     A
C480   H484    1.084   .     S
C480   C556    1.373   .     S
C481   C487    1.398   .     A
C481   H485    1.084   .     S
C481   C553    1.373   .     S
C482   C488    1.398   .     A
C482   H486    1.084   .     S
C482   C628    1.373   1_455 S
C489   H493    1.082   .     S
C489   N498    1.366   .     A
C490   H494    1.082   .     S
C490   N497    1.366   .     A
C490   C47     1.416   1_565 S
C491   N498    1.366   .     A
C491   H495    1.082   .     S
C492   N497    1.366   .     A
C492   H496    1.082   .     S
C492   C45     1.416   1_565 S
C499   H500    1.111   .     S
C499   H501    1.107   .     S
C499   H502    1.110   .     S
C503   H504    1.111   .     S
C503   H506    1.104   .     S
C503   H505    1.111   .     S
N507   C509    1.451   .     S
N507   H508    1.031   .     S
C509   H512    1.110   .     S
C509   H510    1.108   .     S
C509   H511    1.111   .     S
N513   H514    1.031   .     S
N513   C515    1.447   .     S
C515   H518    1.111   .     S
C515   H516    1.110   .     S
C515   H517    1.111   .     S
O519   C523    1.285   .     A
O519   Zn531   2.011   .     S
O520   C524    1.285   .     A
O520   Zn532   2.011   .     S
O521   Zn531   2.010   .     S
O521   C524    1.284   .     A
O522   Zn532   2.010   .     S
O522   C523    1.284   .     A
C523   C562    1.427   .     S
C524   C561    1.427   .     S
O525   C529    1.281   .     A
O525   Zn531   2.003   .     S
O526   C530    1.282   .     A
O526   Zn532   2.003   .     S
O527   C530    1.281   .     A
O527   Zn531   2.004   .     S
O528   C529    1.282   .     A
O528   Zn532   2.004   .     S
C529   C536    1.417   .     S
C530   C535    1.417   .     S
Zn531  N571    2.009   .     S
Zn532  N572    2.009   .     S
C533   C543    1.390   .     A
C533   C535    1.380   .     A
C533   H549    1.082   .     S
C534   H550    1.083   .     S
C534   C536    1.378   .     A
C534   C544    1.390   .     A
C535   C537    1.384   .     A
C536   C538    1.382   .     A
C537   C539    1.395   .     A
C537   H551    1.083   .     S
C538   H552    1.083   .     S
C538   C540    1.396   .     A
C539   C545    1.417   .     A
C539   C541    1.422   .     A
C540   C546    1.413   .     A
C540   C542    1.419   .     A
C541   C543    1.419   .     A
C541   C1208   1.393   .     S
C542   C544    1.416   .     A
C542   C1207   1.393   1_554 S
C543   C548    1.412   .     A
C544   C547    1.410   .     A
C545   C573    1.516   .     S
C545   C1213   1.405   .     S
C546   C577    1.511   .     S
C546   C1214   1.405   1_554 S
C547   N581    1.426   .     S
C547   C1211   1.405   1_554 S
C548   N587    1.427   .     S
C548   C1212   1.405   .     S
C553   H557    1.084   .     S
C553   C562    1.398   .     A
C554   C561    1.398   .     A
C554   H558    1.084   .     S
C554   C630    1.373   .     S
C555   C561    1.398   .     A
C555   H559    1.084   .     S
C555   C627    1.373   .     S
C556   C562    1.398   .     A
C556   H560    1.084   .     S
C563   H567    1.082   .     S
C563   N572    1.366   .     A
C564   H568    1.082   .     S
C564   N571    1.366   .     A
C564   C121    1.416   1_565 S
C565   N572    1.366   .     A
C565   H569    1.082   .     S
C566   N571    1.366   .     A
C566   H570    1.082   .     S
C566   C119    1.416   1_565 S
C573   H574    1.111   .     S
C573   H575    1.107   .     S
C573   H576    1.110   .     S
C577   H578    1.111   .     S
C577   H580    1.104   .     S
C577   H579    1.111   .     S
N581   C583    1.451   .     S
N581   H582    1.031   .     S
C583   H586    1.110   .     S
C583   H584    1.108   .     S
C583   H585    1.111   .     S
N587   H588    1.031   .     S
N587   C589    1.447   .     S
C589   H592    1.111   .     S
C589   H590    1.110   .     S
C589   H591    1.111   .     S
O593   C597    1.285   .     A
O593   Zn605   2.011   .     S
O594   C598    1.285   .     A
O594   Zn606   2.011   .     S
O595   Zn605   2.010   .     S
O595   C598    1.284   .     A
O596   Zn606   2.010   .     S
O596   C597    1.284   .     A
C597   C636    1.427   .     S
C598   C635    1.427   .     S
O599   C603    1.281   .     A
O599   Zn605   2.003   .     S
O600   C604    1.282   .     A
O600   Zn606   2.003   .     S
O601   C604    1.281   .     A
O601   Zn605   2.004   .     S
O602   C603    1.282   .     A
O602   Zn606   2.004   .     S
C603   C610    1.417   .     S
C604   C609    1.417   .     S
Zn605  N645    2.009   .     S
Zn606  N646    2.009   .     S
C607   C617    1.390   .     A
C607   C609    1.380   .     A
C607   H623    1.082   .     S
C608   H624    1.083   .     S
C608   C610    1.378   .     A
C608   C618    1.390   .     A
C609   C611    1.384   .     A
C610   C612    1.382   .     A
C611   C613    1.395   .     A
C611   H625    1.083   .     S
C612   H626    1.083   .     S
C612   C614    1.396   .     A
C613   C619    1.417   .     A
C613   C615    1.422   .     A
C614   C620    1.413   .     A
C614   C616    1.419   .     A
C615   C617    1.419   .     A
C615   C1282   1.393   .     S
C616   C618    1.416   .     A
C616   C1281   1.393   1_554 S
C617   C622    1.412   .     A
C618   C621    1.410   .     A
C619   C647    1.516   .     S
C619   C1287   1.405   .     S
C620   C651    1.511   .     S
C620   C1288   1.405   1_554 S
C621   N655    1.426   .     S
C621   C1285   1.405   1_554 S
C622   N661    1.427   .     S
C622   C1286   1.405   .     S
C627   H631    1.084   .     S
C627   C636    1.398   .     A
C628   C635    1.398   .     A
C628   H632    1.084   .     S
C628   C482    1.373   1_655 S
C629   C635    1.398   .     A
C629   H633    1.084   .     S
C629   C479    1.373   1_655 S
C630   C636    1.398   .     A
C630   H634    1.084   .     S
C637   H641    1.082   .     S
C637   N646    1.366   .     A
C638   H642    1.082   .     S
C638   N645    1.366   .     A
C638   C195    1.416   1_565 S
C639   N646    1.366   .     A
C639   H643    1.082   .     S
C640   N645    1.366   .     A
C640   H644    1.082   .     S
C640   C193    1.416   1_565 S
C647   H648    1.111   .     S
C647   H649    1.107   .     S
C647   H650    1.110   .     S
C651   H652    1.111   .     S
C651   H654    1.104   .     S
C651   H653    1.111   .     S
N655   C657    1.451   .     S
N655   H656    1.031   .     S
C657   H660    1.110   .     S
C657   H658    1.108   .     S
C657   H659    1.111   .     S
N661   H662    1.031   .     S
N661   C663    1.447   .     S
C663   H666    1.111   .     S
C663   H664    1.110   .     S
C663   H665    1.111   .     S
O667   C671    1.285   .     A
O667   Zn679   2.011   .     S
O668   C672    1.285   .     A
O668   Zn680   2.011   .     S
O669   Zn679   2.010   .     S
O669   C672    1.284   .     A
O670   Zn680   2.010   .     S
O670   C671    1.284   .     A
C671   C710    1.427   .     S
C672   C709    1.427   .     S
O673   C677    1.281   .     A
O673   Zn679   2.003   .     S
O674   C678    1.282   .     A
O674   Zn680   2.003   .     S
O675   C678    1.281   .     A
O675   Zn679   2.004   .     S
O676   C677    1.282   .     A
O676   Zn680   2.004   .     S
C677   C684    1.417   .     S
C678   C683    1.417   .     S
Zn679  N719    2.009   .     S
Zn680  N720    2.009   .     S
C681   C691    1.390   .     A
C681   C683    1.380   .     A
C681   H697    1.082   .     S
C682   H698    1.083   .     S
C682   C684    1.378   .     A
C682   C692    1.390   .     A
C683   C685    1.384   .     A
C684   C686    1.382   .     A
C685   C687    1.395   .     A
C685   H699    1.083   .     S
C686   H700    1.083   .     S
C686   C688    1.396   .     A
C687   C693    1.417   .     A
C687   C689    1.422   .     A
C688   C694    1.413   .     A
C688   C690    1.419   .     A
C689   C691    1.419   .     A
C689   C24     1.393   1_556 S
C690   C692    1.416   .     A
C691   C696    1.412   .     A
C692   C695    1.410   .     A
C693   C721    1.516   .     S
C693   C29     1.405   1_556 S
C694   C725    1.511   .     S
C695   N729    1.426   .     S
C696   N735    1.427   .     S
C696   C28     1.405   1_556 S
C701   H705    1.084   .     S
C701   C710    1.398   .     A
C701   C851    1.373   1_455 S
C702   C709    1.398   .     A
C702   H706    1.084   .     S
C702   C778    1.373   .     S
C703   C709    1.398   .     A
C703   H707    1.084   .     S
C703   C775    1.373   .     S
C704   C710    1.398   .     A
C704   H708    1.084   .     S
C704   C850    1.373   1_455 S
C711   H715    1.082   .     S
C711   N720    1.366   .     A
C711   C1158   1.416   1_545 S
C712   H716    1.082   .     S
C712   N719    1.366   .     A
C712   C935    1.416   .     S
C713   N720    1.366   .     A
C713   H717    1.082   .     S
C713   C1156   1.416   1_545 S
C714   N719    1.366   .     A
C714   H718    1.082   .     S
C714   C933    1.416   .     S
C721   H722    1.111   .     S
C721   H723    1.107   .     S
C721   H724    1.110   .     S
C725   H726    1.111   .     S
C725   H728    1.104   .     S
C725   H727    1.111   .     S
N729   C731    1.451   .     S
N729   H730    1.031   .     S
C731   H734    1.110   .     S
C731   H732    1.108   .     S
C731   H733    1.111   .     S
N735   H736    1.031   .     S
N735   C737    1.447   .     S
C737   H740    1.111   .     S
C737   H738    1.110   .     S
C737   H739    1.111   .     S
O741   C745    1.285   .     A
O741   Zn753   2.011   .     S
O742   C746    1.285   .     A
O742   Zn754   2.011   .     S
O743   Zn753   2.010   .     S
O743   C746    1.284   .     A
O744   Zn754   2.010   .     S
O744   C745    1.284   .     A
C745   C784    1.427   .     S
C746   C783    1.427   .     S
O747   C751    1.281   .     A
O747   Zn753   2.003   .     S
O748   C752    1.282   .     A
O748   Zn754   2.003   .     S
O749   C752    1.281   .     A
O749   Zn753   2.004   .     S
O750   C751    1.282   .     A
O750   Zn754   2.004   .     S
C751   C758    1.417   .     S
C752   C757    1.417   .     S
Zn753  N793    2.009   .     S
Zn754  N794    2.009   .     S
C755   C765    1.390   .     A
C755   C757    1.380   .     A
C755   H771    1.082   .     S
C756   H772    1.083   .     S
C756   C758    1.378   .     A
C756   C766    1.390   .     A
C757   C759    1.384   .     A
C758   C760    1.382   .     A
C759   C761    1.395   .     A
C759   H773    1.083   .     S
C760   H774    1.083   .     S
C760   C762    1.396   .     A
C761   C767    1.417   .     A
C761   C763    1.422   .     A
C762   C768    1.413   .     A
C762   C764    1.419   .     A
C763   C765    1.419   .     A
C763   C98     1.393   1_556 S
C764   C766    1.416   .     A
C765   C770    1.412   .     A
C766   C769    1.410   .     A
C767   C795    1.516   .     S
C767   C103    1.405   1_556 S
C768   C799    1.511   .     S
C769   N803    1.426   .     S
C770   N809    1.427   .     S
C770   C102    1.405   1_556 S
C775   H779    1.084   .     S
C775   C784    1.398   .     A
C776   C783    1.398   .     A
C776   H780    1.084   .     S
C776   C852    1.373   .     S
C777   C783    1.398   .     A
C777   H781    1.084   .     S
C777   C849    1.373   .     S
C778   C784    1.398   .     A
C778   H782    1.084   .     S
C785   H789    1.082   .     S
C785   N794    1.366   .     A
C785   C1232   1.416   1_545 S
C786   H790    1.082   .     S
C786   N793    1.366   .     A
C786   C1009   1.416   .     S
C787   N794    1.366   .     A
C787   H791    1.082   .     S
C787   C1230   1.416   1_545 S
C788   N793    1.366   .     A
C788   H792    1.082   .     S
C788   C1007   1.416   .     S
C795   H796    1.111   .     S
C795   H797    1.107   .     S
C795   H798    1.110   .     S
C799   H800    1.111   .     S
C799   H802    1.104   .     S
C799   H801    1.111   .     S
N803   C805    1.451   .     S
N803   H804    1.031   .     S
C805   H808    1.110   .     S
C805   H806    1.108   .     S
C805   H807    1.111   .     S
N809   H810    1.031   .     S
N809   C811    1.447   .     S
C811   H814    1.111   .     S
C811   H812    1.110   .     S
C811   H813    1.111   .     S
O815   C819    1.285   .     A
O815   Zn827   2.011   .     S
O816   C820    1.285   .     A
O816   Zn828   2.011   .     S
O817   Zn827   2.010   .     S
O817   C820    1.284   .     A
O818   Zn828   2.010   .     S
O818   C819    1.284   .     A
C819   C858    1.427   .     S
C820   C857    1.427   .     S
O821   C825    1.281   .     A
O821   Zn827   2.003   .     S
O822   C826    1.282   .     A
O822   Zn828   2.003   .     S
O823   C826    1.281   .     A
O823   Zn827   2.004   .     S
O824   C825    1.282   .     A
O824   Zn828   2.004   .     S
C825   C832    1.417   .     S
C826   C831    1.417   .     S
Zn827  N867    2.009   .     S
Zn828  N868    2.009   .     S
C829   C839    1.390   .     A
C829   C831    1.380   .     A
C829   H845    1.082   .     S
C830   H846    1.083   .     S
C830   C832    1.378   .     A
C830   C840    1.390   .     A
C831   C833    1.384   .     A
C832   C834    1.382   .     A
C833   C835    1.395   .     A
C833   H847    1.083   .     S
C834   H848    1.083   .     S
C834   C836    1.396   .     A
C835   C841    1.417   .     A
C835   C837    1.422   .     A
C836   C842    1.413   .     A
C836   C838    1.419   .     A
C837   C839    1.419   .     A
C837   C172    1.393   1_556 S
C838   C840    1.416   .     A
C839   C844    1.412   .     A
C840   C843    1.410   .     A
C841   C869    1.516   .     S
C841   C177    1.405   1_556 S
C842   C873    1.511   .     S
C843   N877    1.426   .     S
C844   N883    1.427   .     S
C844   C176    1.405   1_556 S
C849   H853    1.084   .     S
C849   C858    1.398   .     A
C850   C857    1.398   .     A
C850   H854    1.084   .     S
C850   C704    1.373   1_655 S
C851   C857    1.398   .     A
C851   H855    1.084   .     S
C851   C701    1.373   1_655 S
C852   C858    1.398   .     A
C852   H856    1.084   .     S
C859   H863    1.082   .     S
C859   N868    1.366   .     A
C859   C1306   1.416   1_545 S
C860   H864    1.082   .     S
C860   N867    1.366   .     A
C860   C1083   1.416   .     S
C861   N868    1.366   .     A
C861   H865    1.082   .     S
C861   C1304   1.416   1_545 S
C862   N867    1.366   .     A
C862   H866    1.082   .     S
C862   C1081   1.416   .     S
C869   H870    1.111   .     S
C869   H871    1.107   .     S
C869   H872    1.110   .     S
C873   H874    1.111   .     S
C873   H876    1.104   .     S
C873   H875    1.111   .     S
N877   C879    1.451   .     S
N877   H878    1.031   .     S
C879   H882    1.110   .     S
C879   H880    1.108   .     S
C879   H881    1.111   .     S
N883   H884    1.031   .     S
N883   C885    1.447   .     S
C885   H888    1.111   .     S
C885   H886    1.110   .     S
C885   H887    1.111   .     S
O889   C893    1.285   .     A
O889   Zn901   2.011   .     S
O890   C894    1.285   .     A
O890   Zn902   2.011   .     S
O891   Zn901   2.010   .     S
O891   C894    1.284   .     A
O892   Zn902   2.010   .     S
O892   C893    1.284   .     A
C893   C932    1.427   .     S
C894   C931    1.427   .     S
O895   C899    1.281   .     A
O895   Zn901   2.003   .     S
O896   C900    1.282   .     A
O896   Zn902   2.003   .     S
O897   C900    1.281   .     A
O897   Zn901   2.004   .     S
O898   C899    1.282   .     A
O898   Zn902   2.004   .     S
C899   C906    1.417   .     S
C900   C905    1.417   .     S
Zn901  N941    2.009   .     S
Zn902  N942    2.009   .     S
C903   C913    1.390   .     A
C903   C905    1.380   .     A
C903   H919    1.082   .     S
C904   H920    1.083   .     S
C904   C906    1.378   .     A
C904   C914    1.390   .     A
C905   C907    1.384   .     A
C906   C908    1.382   .     A
C907   C909    1.395   .     A
C907   H921    1.083   .     S
C908   H922    1.083   .     S
C908   C910    1.396   .     A
C909   C915    1.417   .     A
C909   C911    1.422   .     A
C910   C916    1.413   .     A
C910   C912    1.419   .     A
C911   C913    1.419   .     A
C911   C246    1.393   1_556 S
C912   C914    1.416   .     A
C913   C918    1.412   .     A
C914   C917    1.410   .     A
C915   C943    1.516   .     S
C915   C251    1.405   1_556 S
C916   C947    1.511   .     S
C917   N951    1.426   .     S
C918   N957    1.427   .     S
C918   C250    1.405   1_556 S
C923   H927    1.084   .     S
C923   C932    1.398   .     A
C923   C1073   1.373   1_455 S
C924   C931    1.398   .     A
C924   H928    1.084   .     S
C924   C1000   1.373   .     S
C925   C931    1.398   .     A
C925   H929    1.084   .     S
C925   C997    1.373   .     S
C926   C932    1.398   .     A
C926   H930    1.084   .     S
C926   C1072   1.373   1_455 S
C933   H937    1.082   .     S
C933   N942    1.366   .     A
C934   H938    1.082   .     S
C934   N941    1.366   .     A
C934   C1157   1.416   .     S
C935   N942    1.366   .     A
C935   H939    1.082   .     S
C936   N941    1.366   .     A
C936   H940    1.082   .     S
C936   C1155   1.416   .     S
C943   H944    1.111   .     S
C943   H945    1.107   .     S
C943   H946    1.110   .     S
C947   H948    1.111   .     S
C947   H950    1.104   .     S
C947   H949    1.111   .     S
N951   C953    1.451   .     S
N951   H952    1.031   .     S
C953   H956    1.110   .     S
C953   H954    1.108   .     S
C953   H955    1.111   .     S
N957   H958    1.031   .     S
N957   C959    1.447   .     S
C959   H962    1.111   .     S
C959   H960    1.110   .     S
C959   H961    1.111   .     S
O963   C967    1.285   .     A
O963   Zn975   2.011   .     S
O964   C968    1.285   .     A
O964   Zn976   2.011   .     S
O965   Zn975   2.010   .     S
O965   C968    1.284   .     A
O966   Zn976   2.010   .     S
O966   C967    1.284   .     A
C967   C1006   1.427   .     S
C968   C1005   1.427   .     S
O969   C973    1.281   .     A
O969   Zn975   2.003   .     S
O970   C974    1.282   .     A
O970   Zn976   2.003   .     S
O971   C974    1.281   .     A
O971   Zn975   2.004   .     S
O972   C973    1.282   .     A
O972   Zn976   2.004   .     S
C973   C980    1.417   .     S
C974   C979    1.417   .     S
Zn975  N1015   2.009   .     S
Zn976  N1016   2.009   .     S
C977   C987    1.390   .     A
C977   C979    1.380   .     A
C977   H993    1.082   .     S
C978   H994    1.083   .     S
C978   C980    1.378   .     A
C978   C988    1.390   .     A
C979   C981    1.384   .     A
C980   C982    1.382   .     A
C981   C983    1.395   .     A
C981   H995    1.083   .     S
C982   H996    1.083   .     S
C982   C984    1.396   .     A
C983   C989    1.417   .     A
C983   C985    1.422   .     A
C984   C990    1.413   .     A
C984   C986    1.419   .     A
C985   C987    1.419   .     A
C985   C320    1.393   1_556 S
C986   C988    1.416   .     A
C987   C992    1.412   .     A
C988   C991    1.410   .     A
C989   C1017   1.516   .     S
C989   C325    1.405   1_556 S
C990   C1021   1.511   .     S
C991   N1025   1.426   .     S
C992   N1031   1.427   .     S
C992   C324    1.405   1_556 S
C997   H1001   1.084   .     S
C997   C1006   1.398   .     A
C998   C1005   1.398   .     A
C998   H1002   1.084   .     S
C998   C1074   1.373   .     S
C999   C1005   1.398   .     A
C999   H1003   1.084   .     S
C999   C1071   1.373   .     S
C1000  C1006   1.398   .     A
C1000  H1004   1.084   .     S
C1007  H1011   1.082   .     S
C1007  N1016   1.366   .     A
C1008  H1012   1.082   .     S
C1008  N1015   1.366   .     A
C1008  C1231   1.416   .     S
C1009  N1016   1.366   .     A
C1009  H1013   1.082   .     S
C1010  N1015   1.366   .     A
C1010  H1014   1.082   .     S
C1010  C1229   1.416   .     S
C1017  H1018   1.111   .     S
C1017  H1019   1.107   .     S
C1017  H1020   1.110   .     S
C1021  H1022   1.111   .     S
C1021  H1024   1.104   .     S
C1021  H1023   1.111   .     S
N1025  C1027   1.451   .     S
N1025  H1026   1.031   .     S
C1027  H1030   1.110   .     S
C1027  H1028   1.108   .     S
C1027  H1029   1.111   .     S
N1031  H1032   1.031   .     S
N1031  C1033   1.447   .     S
C1033  H1036   1.111   .     S
C1033  H1034   1.110   .     S
C1033  H1035   1.111   .     S
O1037  C1041   1.285   .     A
O1037  Zn1049  2.011   .     S
O1038  C1042   1.285   .     A
O1038  Zn1050  2.011   .     S
O1039  Zn1049  2.010   .     S
O1039  C1042   1.284   .     A
O1040  Zn1050  2.010   .     S
O1040  C1041   1.284   .     A
C1041  C1080   1.427   .     S
C1042  C1079   1.427   .     S
O1043  C1047   1.281   .     A
O1043  Zn1049  2.003   .     S
O1044  C1048   1.282   .     A
O1044  Zn1050  2.003   .     S
O1045  C1048   1.281   .     A
O1045  Zn1049  2.004   .     S
O1046  C1047   1.282   .     A
O1046  Zn1050  2.004   .     S
C1047  C1054   1.417   .     S
C1048  C1053   1.417   .     S
Zn1049 N1089   2.009   .     S
Zn1050 N1090   2.009   .     S
C1051  C1061   1.390   .     A
C1051  C1053   1.380   .     A
C1051  H1067   1.082   .     S
C1052  H1068   1.083   .     S
C1052  C1054   1.378   .     A
C1052  C1062   1.390   .     A
C1053  C1055   1.384   .     A
C1054  C1056   1.382   .     A
C1055  C1057   1.395   .     A
C1055  H1069   1.083   .     S
C1056  H1070   1.083   .     S
C1056  C1058   1.396   .     A
C1057  C1063   1.417   .     A
C1057  C1059   1.422   .     A
C1058  C1064   1.413   .     A
C1058  C1060   1.419   .     A
C1059  C1061   1.419   .     A
C1059  C394    1.393   1_556 S
C1060  C1062   1.416   .     A
C1061  C1066   1.412   .     A
C1062  C1065   1.410   .     A
C1063  C1091   1.516   .     S
C1063  C399    1.405   1_556 S
C1064  C1095   1.511   .     S
C1065  N1099   1.426   .     S
C1066  N1105   1.427   .     S
C1066  C398    1.405   1_556 S
C1071  H1075   1.084   .     S
C1071  C1080   1.398   .     A
C1072  C1079   1.398   .     A
C1072  H1076   1.084   .     S
C1072  C926    1.373   1_655 S
C1073  C1079   1.398   .     A
C1073  H1077   1.084   .     S
C1073  C923    1.373   1_655 S
C1074  C1080   1.398   .     A
C1074  H1078   1.084   .     S
C1081  H1085   1.082   .     S
C1081  N1090   1.366   .     A
C1082  H1086   1.082   .     S
C1082  N1089   1.366   .     A
C1082  C1305   1.416   .     S
C1083  N1090   1.366   .     A
C1083  H1087   1.082   .     S
C1084  N1089   1.366   .     A
C1084  H1088   1.082   .     S
C1084  C1303   1.416   .     S
C1091  H1092   1.111   .     S
C1091  H1093   1.107   .     S
C1091  H1094   1.110   .     S
C1095  H1096   1.111   .     S
C1095  H1098   1.104   .     S
C1095  H1097   1.111   .     S
N1099  C1101   1.451   .     S
N1099  H1100   1.031   .     S
C1101  H1104   1.110   .     S
C1101  H1102   1.108   .     S
C1101  H1103   1.111   .     S
N1105  H1106   1.031   .     S
N1105  C1107   1.447   .     S
C1107  H1110   1.111   .     S
C1107  H1108   1.110   .     S
C1107  H1109   1.111   .     S
O1111  C1115   1.285   .     A
O1111  Zn1123  2.011   .     S
O1112  C1116   1.285   .     A
O1112  Zn1124  2.011   .     S
O1113  Zn1123  2.010   .     S
O1113  C1116   1.284   .     A
O1114  Zn1124  2.010   .     S
O1114  C1115   1.284   .     A
C1115  C1154   1.427   .     S
C1116  C1153   1.427   .     S
O1117  C1121   1.281   .     A
O1117  Zn1123  2.003   .     S
O1118  C1122   1.282   .     A
O1118  Zn1124  2.003   .     S
O1119  C1122   1.281   .     A
O1119  Zn1123  2.004   .     S
O1120  C1121   1.282   .     A
O1120  Zn1124  2.004   .     S
C1121  C1128   1.417   .     S
C1122  C1127   1.417   .     S
Zn1123 N1163   2.009   .     S
Zn1124 N1164   2.009   .     S
C1125  C1135   1.390   .     A
C1125  C1127   1.380   .     A
C1125  H1141   1.082   .     S
C1126  H1142   1.083   .     S
C1126  C1128   1.378   .     A
C1126  C1136   1.390   .     A
C1127  C1129   1.384   .     A
C1128  C1130   1.382   .     A
C1129  C1131   1.395   .     A
C1129  H1143   1.083   .     S
C1130  H1144   1.083   .     S
C1130  C1132   1.396   .     A
C1131  C1137   1.417   .     A
C1131  C1133   1.422   .     A
C1132  C1138   1.413   .     A
C1132  C1134   1.419   .     A
C1133  C1135   1.419   .     A
C1133  C468    1.393   1_556 S
C1134  C1136   1.416   .     A
C1135  C1140   1.412   .     A
C1136  C1139   1.410   .     A
C1137  C1165   1.516   .     S
C1137  C473    1.405   1_556 S
C1138  C1169   1.511   .     S
C1139  N1173   1.426   .     S
C1140  N1179   1.427   .     S
C1140  C472    1.405   1_556 S
C1145  H1149   1.084   .     S
C1145  C1154   1.398   .     A
C1145  C1295   1.373   1_455 S
C1146  C1153   1.398   .     A
C1146  H1150   1.084   .     S
C1146  C1222   1.373   .     S
C1147  C1153   1.398   .     A
C1147  H1151   1.084   .     S
C1147  C1219   1.373   .     S
C1148  C1154   1.398   .     A
C1148  H1152   1.084   .     S
C1148  C1294   1.373   1_455 S
C1155  H1159   1.082   .     S
C1155  N1164   1.366   .     A
C1156  H1160   1.082   .     S
C1156  N1163   1.366   .     A
C1156  C713    1.416   1_565 S
C1157  N1164   1.366   .     A
C1157  H1161   1.082   .     S
C1158  N1163   1.366   .     A
C1158  H1162   1.082   .     S
C1158  C711    1.416   1_565 S
C1165  H1166   1.111   .     S
C1165  H1167   1.107   .     S
C1165  H1168   1.110   .     S
C1169  H1170   1.111   .     S
C1169  H1172   1.104   .     S
C1169  H1171   1.111   .     S
N1173  C1175   1.451   .     S
N1173  H1174   1.031   .     S
C1175  H1178   1.110   .     S
C1175  H1176   1.108   .     S
C1175  H1177   1.111   .     S
N1179  H1180   1.031   .     S
N1179  C1181   1.447   .     S
C1181  H1184   1.111   .     S
C1181  H1182   1.110   .     S
C1181  H1183   1.111   .     S
O1185  C1189   1.285   .     A
O1185  Zn1197  2.011   .     S
O1186  C1190   1.285   .     A
O1186  Zn1198  2.011   .     S
O1187  Zn1197  2.010   .     S
O1187  C1190   1.284   .     A
O1188  Zn1198  2.010   .     S
O1188  C1189   1.284   .     A
C1189  C1228   1.427   .     S
C1190  C1227   1.427   .     S
O1191  C1195   1.281   .     A
O1191  Zn1197  2.003   .     S
O1192  C1196   1.282   .     A
O1192  Zn1198  2.003   .     S
O1193  C1196   1.281   .     A
O1193  Zn1197  2.004   .     S
O1194  C1195   1.282   .     A
O1194  Zn1198  2.004   .     S
C1195  C1202   1.417   .     S
C1196  C1201   1.417   .     S
Zn1197 N1237   2.009   .     S
Zn1198 N1238   2.009   .     S
C1199  C1209   1.390   .     A
C1199  C1201   1.380   .     A
C1199  H1215   1.082   .     S
C1200  H1216   1.083   .     S
C1200  C1202   1.378   .     A
C1200  C1210   1.390   .     A
C1201  C1203   1.384   .     A
C1202  C1204   1.382   .     A
C1203  C1205   1.395   .     A
C1203  H1217   1.083   .     S
C1204  H1218   1.083   .     S
C1204  C1206   1.396   .     A
C1205  C1211   1.417   .     A
C1205  C1207   1.422   .     A
C1206  C1212   1.413   .     A
C1206  C1208   1.419   .     A
C1207  C1209   1.419   .     A
C1207  C542    1.393   1_556 S
C1208  C1210   1.416   .     A
C1209  C1214   1.412   .     A
C1210  C1213   1.410   .     A
C1211  C1239   1.516   .     S
C1211  C547    1.405   1_556 S
C1212  C1243   1.511   .     S
C1213  N1247   1.426   .     S
C1214  N1253   1.427   .     S
C1214  C546    1.405   1_556 S
C1219  H1223   1.084   .     S
C1219  C1228   1.398   .     A
C1220  C1227   1.398   .     A
C1220  H1224   1.084   .     S
C1220  C1296   1.373   .     S
C1221  C1227   1.398   .     A
C1221  H1225   1.084   .     S
C1221  C1293   1.373   .     S
C1222  C1228   1.398   .     A
C1222  H1226   1.084   .     S
C1229  H1233   1.082   .     S
C1229  N1238   1.366   .     A
C1230  H1234   1.082   .     S
C1230  N1237   1.366   .     A
C1230  C787    1.416   1_565 S
C1231  N1238   1.366   .     A
C1231  H1235   1.082   .     S
C1232  N1237   1.366   .     A
C1232  H1236   1.082   .     S
C1232  C785    1.416   1_565 S
C1239  H1240   1.111   .     S
C1239  H1241   1.107   .     S
C1239  H1242   1.110   .     S
C1243  H1244   1.111   .     S
C1243  H1246   1.104   .     S
C1243  H1245   1.111   .     S
N1247  C1249   1.451   .     S
N1247  H1248   1.031   .     S
C1249  H1252   1.110   .     S
C1249  H1250   1.108   .     S
C1249  H1251   1.111   .     S
N1253  H1254   1.031   .     S
N1253  C1255   1.447   .     S
C1255  H1258   1.111   .     S
C1255  H1256   1.110   .     S
C1255  H1257   1.111   .     S
O1259  C1263   1.285   .     A
O1259  Zn1271  2.011   .     S
O1260  C1264   1.285   .     A
O1260  Zn1272  2.011   .     S
O1261  Zn1271  2.010   .     S
O1261  C1264   1.284   .     A
O1262  Zn1272  2.010   .     S
O1262  C1263   1.284   .     A
C1263  C1302   1.427   .     S
C1264  C1301   1.427   .     S
O1265  C1269   1.281   .     A
O1265  Zn1271  2.003   .     S
O1266  C1270   1.282   .     A
O1266  Zn1272  2.003   .     S
O1267  C1270   1.281   .     A
O1267  Zn1271  2.004   .     S
O1268  C1269   1.282   .     A
O1268  Zn1272  2.004   .     S
C1269  C1276   1.417   .     S
C1270  C1275   1.417   .     S
Zn1271 N1311   2.009   .     S
Zn1272 N1312   2.009   .     S
C1273  C1283   1.390   .     A
C1273  C1275   1.380   .     A
C1273  H1289   1.082   .     S
C1274  H1290   1.083   .     S
C1274  C1276   1.378   .     A
C1274  C1284   1.390   .     A
C1275  C1277   1.384   .     A
C1276  C1278   1.382   .     A
C1277  C1279   1.395   .     A
C1277  H1291   1.083   .     S
C1278  H1292   1.083   .     S
C1278  C1280   1.396   .     A
C1279  C1285   1.417   .     A
C1279  C1281   1.422   .     A
C1280  C1286   1.413   .     A
C1280  C1282   1.419   .     A
C1281  C1283   1.419   .     A
C1281  C616    1.393   1_556 S
C1282  C1284   1.416   .     A
C1283  C1288   1.412   .     A
C1284  C1287   1.410   .     A
C1285  C1313   1.516   .     S
C1285  C621    1.405   1_556 S
C1286  C1317   1.511   .     S
C1287  N1321   1.426   .     S
C1288  N1327   1.427   .     S
C1288  C620    1.405   1_556 S
C1293  H1297   1.084   .     S
C1293  C1302   1.398   .     A
C1294  C1301   1.398   .     A
C1294  H1298   1.084   .     S
C1294  C1148   1.373   1_655 S
C1295  C1301   1.398   .     A
C1295  H1299   1.084   .     S
C1295  C1145   1.373   1_655 S
C1296  C1302   1.398   .     A
C1296  H1300   1.084   .     S
C1303  H1307   1.082   .     S
C1303  N1312   1.366   .     A
C1304  H1308   1.082   .     S
C1304  N1311   1.366   .     A
C1304  C861    1.416   1_565 S
C1305  N1312   1.366   .     A
C1305  H1309   1.082   .     S
C1306  N1311   1.366   .     A
C1306  H1310   1.082   .     S
C1306  C859    1.416   1_565 S
C1313  H1314   1.111   .     S
C1313  H1315   1.107   .     S
C1313  H1316   1.110   .     S
C1317  H1318   1.111   .     S
C1317  H1320   1.104   .     S
C1317  H1319   1.111   .     S
N1321  C1323   1.451   .     S
N1321  H1322   1.031   .     S
C1323  H1326   1.110   .     S
C1323  H1324   1.108   .     S
C1323  H1325   1.111   .     S
N1327  H1328   1.031   .     S
N1327  C1329   1.447   .     S
C1329  H1332   1.111   .     S
C1329  H1330   1.110   .     S
C1329  H1331   1.111   .     S
