data_str_m1_o2_o5_pcu_sym.26
_audit_creation_date              2020-01-03
_audit_creation_method            'Materials Studio'
_symmetry_space_group_name_H-M    'P1'
_symmetry_Int_Tables_number       1
_symmetry_cell_setting            triclinic
loop_
_symmetry_equiv_pos_as_xyz
  x,y,z
_cell_length_a                    24.5443
_cell_length_b                    24.5443
_cell_length_c                    22.4031
_cell_angle_alpha                 89.9349
_cell_angle_beta                  89.9349
_cell_angle_gamma                 89.9046
loop_
_atom_site_label
_atom_site_type_symbol
_atom_site_fract_x
_atom_site_fract_y
_atom_site_fract_z
_atom_site_U_iso_or_equiv
_atom_site_adp_type
_atom_site_occupancy
C1     C     0.22897   0.27103   0.25000   0.00000  Uiso   1.00
C2     C     0.22677   0.73044   0.25375   0.00000  Uiso   1.00
C3     C     0.20073   0.63630   0.26990   0.00000  Uiso   1.00
C4     C     0.33663   0.17277   0.69602   0.00000  Uiso   1.00
C5     C     0.65366   0.81629   0.29924   0.00000  Uiso   1.00
C6     C     0.18657   0.65086   0.70280   0.00000  Uiso   1.00
C7     C     0.79689   0.36793   0.25952   0.00000  Uiso   1.00
C8     C     0.35020   0.81343   0.29865   0.00000  Uiso   1.00
C9     C     0.63316   0.20219   0.73233   0.00000  Uiso   1.00
C10    C     0.19054   0.35338   0.29226   0.00000  Uiso   1.00
C11    C     0.80074   0.63791   0.72346   0.00000  Uiso   1.00
C12    C     0.64485   0.19228   0.28808   0.00000  Uiso   1.00
C13    C     0.72860   0.77140   0.75000   0.00000  Uiso   1.00
C14    C     0.36323   0.79880   0.73336   0.00000  Uiso   1.00
C15    C     0.84836   0.68234   0.29890   0.00000  Uiso   1.00
C16    C     0.19509   0.35791   0.71413   0.00000  Uiso   1.00
C17    C     0.14788   0.35212   0.25000   0.00000  Uiso   1.00
C18    C     0.85209   0.64791   0.75000   0.00000  Uiso   1.00
C19    C     0.35060   0.85387   0.25369   0.00000  Uiso   1.00
C20    C     0.64696   0.14843   0.74971   0.00000  Uiso   1.00
C21    C     0.85302   0.64698   0.25000   0.00000  Uiso   1.00
C22    C     0.14796   0.35204   0.75000   0.00000  Uiso   1.00
C23    C     0.64614   0.14940   0.24630   0.00000  Uiso   1.00
C24    C     0.27139   0.22861   0.25000   0.00000  Uiso   1.00
C25    C     0.35157   0.85305   0.75029   0.00000  Uiso   1.00
C26    C     0.84967   0.35486   0.75347   0.00000  Uiso   1.00
C27    C     0.14650   0.64872   0.25325   0.00000  Uiso   1.00
C28    C     0.64767   0.85233   0.75000   0.00000  Uiso   1.00
C29    C     0.35233   0.14767   0.25000   0.00000  Uiso   1.00
C30    C     0.14514   0.65034   0.74653   0.00000  Uiso   1.00
C31    C     0.85128   0.35350   0.24675   0.00000  Uiso   1.00
C32    C     0.35246   0.14754   0.75000   0.00000  Uiso   1.00
C33    C     0.64809   0.85191   0.25000   0.00000  Uiso   1.00
C34    C     0.20767   0.26521   0.10336   0.00000  Uiso   1.00
C35    C     0.22504   0.73250   0.74758   0.00000  Uiso   1.00
C36    C     0.21053   0.22505   0.05174   0.00000  Uiso   1.00
C37    C     0.85873   0.82218   0.74126   0.00000  Uiso   1.00
C38    C     0.87503   0.87890   0.76186   0.00000  Uiso   1.00
C39    C     0.26789   0.79628   0.10727   0.00000  Uiso   1.00
C40    C     0.22955   0.77880   0.05814   0.00000  Uiso   1.00
C41    C     0.81457   0.14680   0.70718   0.00000  Uiso   1.00
C42    C     0.87332   0.12760   0.71223   0.00000  Uiso   1.00
C43    C     0.69361   0.66152   0.16692   0.00000  Uiso   1.00
C44    C     0.65761   0.66033   0.11176   0.00000  Uiso   1.00
C45    C     0.12773   0.18505   0.77983   0.00000  Uiso   1.00
C46    C     0.76956   0.27323   0.24625   0.00000  Uiso   1.00
C47    C     0.13037   0.12484   0.79548   0.00000  Uiso   1.00
C48    C     0.72894   0.23549   0.10732   0.00000  Uiso   1.00
C49    C     0.72613   0.20850   0.04646   0.00000  Uiso   1.00
C50    C     0.18593   0.87495   0.71224   0.00000  Uiso   1.00
C51    C     0.14868   0.92167   0.73047   0.00000  Uiso   1.00
C52    C     0.75932   0.26146   0.88799   0.00000  Uiso   1.00
C53    C     0.78286   0.30067   0.93397   0.00000  Uiso   1.00
C54    C     0.14622   0.82009   0.29803   0.00000  Uiso   1.00
C55    C     0.09233   0.85078   0.29796   0.00000  Uiso   1.00
C56    C     0.70798   0.76181   0.89622   0.00000  Uiso   1.00
C57    C     0.27153   0.22847   0.75000   0.00000  Uiso   1.00
C58    C     0.73912   0.74744   0.95282   0.00000  Uiso   1.00
C59    C     0.18889   0.13617   0.30007   0.00000  Uiso   1.00
C60    C     0.12880   0.12123   0.30047   0.00000  Uiso   1.00
C61    C     0.19374   0.73752   0.89618   0.00000  Uiso   1.00
C62    C     0.15044   0.75803   0.93947   0.00000  Uiso   1.00
C63    C     0.85459   0.18255   0.28350   0.00000  Uiso   1.00
C64    C     0.86773   0.12250   0.27509   0.00000  Uiso   1.00
C65    C     0.31682   0.26915   0.87532   0.00000  Uiso   1.00
C66    C     0.30140   0.29385   0.93516   0.00000  Uiso   1.00
C67    C     0.80735   0.83088   0.16120   0.00000  Uiso   1.00
C68    C     0.72950   0.77049   0.25000   0.00000  Uiso   1.00
C69    C     0.83777   0.83489   0.10217   0.00000  Uiso   1.00
C70    C     0.73819   0.79202   0.60378   0.00000  Uiso   1.00
C71    C     0.75256   0.76087   0.54718   0.00000  Uiso   1.00
C72    C     0.36383   0.31111   0.19993   0.00000  Uiso   1.00
C73    C     0.37877   0.37120   0.19952   0.00000  Uiso   1.00
C74    C     0.76249   0.30625   0.60381   0.00000  Uiso   1.00
C75    C     0.74199   0.34956   0.56052   0.00000  Uiso   1.00
C76    C     0.31745   0.64540   0.21652   0.00000  Uiso   1.00
C77    C     0.37750   0.63226   0.22494   0.00000  Uiso   1.00
C78    C     0.23084   0.18320   0.62469   0.00000  Uiso   1.00
C79    C     0.99997   0.50011   0.47329   0.00000  Uiso   1.00
C80    C     0.20614   0.19862   0.56486   0.00000  Uiso   1.00
C81    C     0.66910   0.69265   0.33880   0.00000  Uiso   1.00
C82    C     0.66509   0.66222   0.39782   0.00000  Uiso   1.00
C83    C     0.23854   0.74067   0.61201   0.00000  Uiso   1.00
C84    C     0.19934   0.71713   0.56603   0.00000  Uiso   1.00
C85    C     0.67991   0.35378   0.20197   0.00000  Uiso   1.00
C86    C     0.64922   0.40767   0.20203   0.00000  Uiso   1.00
C87    C     0.26451   0.77106   0.39268   0.00000  Uiso   1.00
C88    C     0.29150   0.77388   0.45355   0.00000  Uiso   1.00
C89    C     0.62505   0.31407   0.78775   0.00000  Uiso   1.00
C90    C     0.00003   0.50010   0.52670   0.00000  Uiso   1.00
C91    C     0.57833   0.35131   0.76952   0.00000  Uiso   1.00
C92    C     0.23479   0.29233   0.39664   0.00000  Uiso   1.00
C93    C     0.27495   0.28946   0.44826   0.00000  Uiso   1.00
C94    C     0.67783   0.64125   0.75874   0.00000  Uiso   1.00
C95    C     0.62110   0.62496   0.73814   0.00000  Uiso   1.00
C96    C     0.70370   0.23211   0.39274   0.00000  Uiso   1.00
C97    C     0.72120   0.27045   0.44186   0.00000  Uiso   1.00
C98    C     0.35320   0.68543   0.79283   0.00000  Uiso   1.00
C99    C     0.37240   0.62669   0.78778   0.00000  Uiso   1.00
C100   C     0.83845   0.80638   0.33309   0.00000  Uiso   1.00
C101   C     0.50016   0.99993   0.47329   0.00000  Uiso   1.00
C102   C     0.83963   0.84240   0.38824   0.00000  Uiso   1.00
C103   C     0.31496   0.37227   0.72018   0.00000  Uiso   1.00
C104   C     0.37516   0.36964   0.70450   0.00000  Uiso   1.00
C105   C     0.07017   0.25857   0.19134   0.00000  Uiso   1.00
C106   C     0.05775   0.21972   0.13987   0.00000  Uiso   1.00
C107   C     0.02659   0.16970   0.16161   0.00000  Uiso   1.00
C108   C     0.90208   0.70926   0.86842   0.00000  Uiso   1.00
C109   C     0.92427   0.76166   0.89633   0.00000  Uiso   1.00
C110   C     0.91324   0.76375   0.96328   0.00000  Uiso   1.00
C111   C     0.26341   0.93630   0.21806   0.00000  Uiso   1.00
C112   C     0.77100   0.72900   0.75000   0.00000  Uiso   1.00
C113   C     0.50015   0.99998   0.52670   0.00000  Uiso   1.00
C114   C     0.20596   0.94213   0.19258   0.00000  Uiso   1.00
C115   C     0.16956   0.97506   0.23454   0.00000  Uiso   1.00
C116   C     0.71091   0.08271   0.84920   0.00000  Uiso   1.00
C117   C     0.76588   0.09154   0.87996   0.00000  Uiso   1.00
C118   C     0.76089   0.08464   0.94743   0.00000  Uiso   1.00
C119   C     0.84860   0.63803   0.10639   0.00000  Uiso   1.00
C120   C     0.85995   0.59372   0.06012   0.00000  Uiso   1.00
C121   C     0.89064   0.61620   0.00629   0.00000  Uiso   1.00
C122   C     0.11448   0.31261   0.88227   0.00000  Uiso   1.00
C123   C     0.06581   0.30685   0.92434   0.00000  Uiso   1.00
C124   C     0.50002   0.99985   0.97330   0.00000  Uiso   1.00
C125   C     0.08030   0.32322   0.98805   0.00000  Uiso   1.00
C126   C     0.72845   0.07460   0.16351   0.00000  Uiso   1.00
C127   C     0.72159   0.02784   0.11918   0.00000  Uiso   1.00
C128   C     0.76745   0.98617   0.12521   0.00000  Uiso   1.00
C129   C     0.29249   0.91824   0.85275   0.00000  Uiso   1.00
C130   C     0.23935   0.90534   0.88590   0.00000  Uiso   1.00
C131   C     0.24789   0.90486   0.95341   0.00000  Uiso   1.00
C132   C     0.92337   0.26540   0.83078   0.00000  Uiso   1.00
C133   C     0.93151   0.23485   0.88955   0.00000  Uiso   1.00
C134   C     0.96695   0.18429   0.88115   0.00000  Uiso   1.00
C135   C     0.50007   0.99984   0.02671   0.00000  Uiso   1.00
C136   C     0.06785   0.72968   0.17282   0.00000  Uiso   1.00
C137   C     0.00677   0.73939   0.16482   0.00000  Uiso   1.00
C138   C     0.99235   0.75066   0.09980   0.00000  Uiso   1.00
C139   C     0.72425   0.90856   0.85773   0.00000  Uiso   1.00
C140   C     0.73399   0.91761   0.92432   0.00000  Uiso   1.00
C141   C     0.79244   0.93540   0.93685   0.00000  Uiso   1.00
C142   C     0.28336   0.07939   0.15588   0.00000  Uiso   1.00
C143   C     0.22602   0.08884   0.13092   0.00000  Uiso   1.00
C144   C     0.22249   0.07206   0.06567   0.00000  Uiso   1.00
C145   C     0.05599   0.72804   0.79245   0.00000  Uiso   1.00
C146   C     0.99991   0.49997   0.97330   0.00000  Uiso   1.00
C147   C     0.06182   0.79006   0.79730   0.00000  Uiso   1.00
C148   C     0.01496   0.81917   0.76602   0.00000  Uiso   1.00
C149   C     0.91719   0.29317   0.14665   0.00000  Uiso   1.00
C150   C     0.89650   0.24344   0.11205   0.00000  Uiso   1.00
C151   C     0.91054   0.24747   0.04589   0.00000  Uiso   1.00
C152   C     0.30423   0.09367   0.86694   0.00000  Uiso   1.00
C153   C     0.25223   0.11128   0.89955   0.00000  Uiso   1.00
C154   C     0.21601   0.06238   0.91309   0.00000  Uiso   1.00
C155   C     0.64697   0.85761   0.10849   0.00000  Uiso   1.00
C156   C     0.64096   0.89790   0.05696   0.00000  Uiso   1.00
C157   C     0.99990   0.50003   0.02671   0.00000  Uiso   1.00
C158   C     0.60618   0.87467   0.00671   0.00000  Uiso   1.00
C159   C     0.59144   0.77575   0.64227   0.00000  Uiso   1.00
C160   C     0.58240   0.76600   0.57568   0.00000  Uiso   1.00
C161   C     0.56460   0.70755   0.56316   0.00000  Uiso   1.00
C162   C     0.42062   0.21664   0.34411   0.00000  Uiso   1.00
C163   C     0.41116   0.27398   0.36908   0.00000  Uiso   1.00
C164   C     0.42795   0.27751   0.43433   0.00000  Uiso   1.00
C165   C     0.77195   0.44401   0.70754   0.00000  Uiso   1.00
C166   C     0.70994   0.43817   0.70269   0.00000  Uiso   1.00
C167   C     0.68082   0.48504   0.73395   0.00000  Uiso   1.00
C168   C     0.99994   0.50002   0.09007   0.00000  Uiso   1.00
C169   C     0.20683   0.58281   0.35336   0.00000  Uiso   1.00
C170   C     0.25656   0.60350   0.38795   0.00000  Uiso   1.00
C171   C     0.25252   0.58946   0.45411   0.00000  Uiso   1.00
C172   C     0.40633   0.19577   0.63306   0.00000  Uiso   1.00
C173   C     0.38872   0.24777   0.60045   0.00000  Uiso   1.00
C174   C     0.43762   0.28399   0.58690   0.00000  Uiso   1.00
C175   C     0.64239   0.85304   0.39151   0.00000  Uiso   1.00
C176   C     0.60211   0.85906   0.44304   0.00000  Uiso   1.00
C177   C     0.62535   0.89384   0.49329   0.00000  Uiso   1.00
C178   C     0.23460   0.57663   0.66922   0.00000  Uiso   1.00
C179   C     0.99996   0.49998   0.90993   0.00000  Uiso   1.00
C180   C     0.26516   0.56848   0.61046   0.00000  Uiso   1.00
C181   C     0.31571   0.53304   0.61886   0.00000  Uiso   1.00
C182   C     0.77032   0.43217   0.32717   0.00000  Uiso   1.00
C183   C     0.76061   0.49325   0.33515   0.00000  Uiso   1.00
C184   C     0.74936   0.50768   0.40017   0.00000  Uiso   1.00
C185   C     0.42540   0.77156   0.33650   0.00000  Uiso   1.00
C186   C     0.47216   0.77842   0.38083   0.00000  Uiso   1.00
C187   C     0.51383   0.73256   0.37480   0.00000  Uiso   1.00
C188   C     0.58177   0.20751   0.64724   0.00000  Uiso   1.00
C189   C     0.59466   0.26065   0.61409   0.00000  Uiso   1.00
C190   C     0.50003   0.99991   0.09007   0.00000  Uiso   1.00
C191   C     0.59514   0.25211   0.54658   0.00000  Uiso   1.00
C192   C     0.24142   0.42983   0.30866   0.00000  Uiso   1.00
C193   C     0.28028   0.44226   0.36013   0.00000  Uiso   1.00
C194   C     0.33029   0.47341   0.33839   0.00000  Uiso   1.00
C195   C     0.79076   0.59791   0.63158   0.00000  Uiso   1.00
C196   C     0.73835   0.57574   0.60366   0.00000  Uiso   1.00
C197   C     0.73630   0.58673   0.53670   0.00000  Uiso   1.00
C198   C     0.56370   0.23660   0.28193   0.00000  Uiso   1.00
C199   C     0.55787   0.29405   0.30741   0.00000  Uiso   1.00
C200   C     0.52494   0.33044   0.26545   0.00000  Uiso   1.00
C201   C     0.49999   0.99993   0.90993   0.00000  Uiso   1.00
C202   C     0.41729   0.78909   0.65080   0.00000  Uiso   1.00
C203   C     0.40846   0.73412   0.62004   0.00000  Uiso   1.00
C204   C     0.41536   0.73911   0.55257   0.00000  Uiso   1.00
C205   C     0.86198   0.65138   0.39361   0.00000  Uiso   1.00
C206   C     0.90627   0.64021   0.43997   0.00000  Uiso   1.00
C207   C     0.88380   0.60949   0.49379   0.00000  Uiso   1.00
C208   C     0.18739   0.38552   0.61774   0.00000  Uiso   1.00
C209   C     0.19315   0.43419   0.57566   0.00000  Uiso   1.00
C210   C     0.17678   0.41970   0.51195   0.00000  Uiso   1.00
C211   C     0.50007   0.00001   0.59007   0.00000  Uiso   1.00
C212   C     0.26928   0.77307   0.25408   0.00000  Uiso   1.00
C213   C     0.50009   0.99997   0.40992   0.00000  Uiso   1.00
C214   C     0.00002   0.50004   0.59007   0.00000  Uiso   1.00
C215   C     0.99998   0.50006   0.40993   0.00000  Uiso   1.00
C216   C     0.10490   0.60551   0.25076   0.00000  Uiso   1.00
C217   C     0.89410   0.39540   0.75104   0.00000  Uiso   1.00
C218   C     0.60535   0.89465   0.25000   0.00000  Uiso   1.00
C219   C     0.39483   0.10517   0.75000   0.00000  Uiso   1.00
C220   C     0.89449   0.39510   0.24924   0.00000  Uiso   1.00
C221   C     0.10460   0.60590   0.74896   0.00000  Uiso   1.00
C222   C     0.39480   0.10521   0.25000   0.00000  Uiso   1.00
C223   C     0.72590   0.23146   0.75072   0.00000  Uiso   1.00
C224   C     0.60521   0.89480   0.75000   0.00000  Uiso   1.00
C225   C     0.89471   0.60529   0.75000   0.00000  Uiso   1.00
C226   C     0.10528   0.39472   0.25000   0.00000  Uiso   1.00
C227   C     0.39473   0.89481   0.75017   0.00000  Uiso   1.00
C228   C     0.60461   0.10589   0.24876   0.00000  Uiso   1.00
C229   C     0.10532   0.39468   0.75000   0.00000  Uiso   1.00
C230   C     0.89504   0.60496   0.25000   0.00000  Uiso   1.00
C231   C     0.60519   0.10527   0.74983   0.00000  Uiso   1.00
C232   C     0.39411   0.89539   0.25124   0.00000  Uiso   1.00
C233   C     0.19104   0.27357   0.20319   0.00000  Uiso   1.00
C234   C     0.77218   0.72782   0.25000   0.00000  Uiso   1.00
C235   C     0.82357   0.74108   0.77078   0.00000  Uiso   1.00
C236   C     0.27233   0.81080   0.20718   0.00000  Uiso   1.00
C237   C     0.74133   0.17672   0.75932   0.00000  Uiso   1.00
C238   C     0.77550   0.69025   0.20235   0.00000  Uiso   1.00
C239   C     0.17990   0.26217   0.78070   0.00000  Uiso   1.00
C240   C     0.72320   0.19355   0.19821   0.00000  Uiso   1.00
C241   C     0.25572   0.82934   0.75854   0.00000  Uiso   1.00
C242   C     0.80469   0.27766   0.80034   0.00000  Uiso   1.00
C243   C     0.17148   0.74426   0.24528   0.00000  Uiso   1.00
C244   C     0.71612   0.79928   0.80307   0.00000  Uiso   1.00
C245   C     0.22906   0.27095   0.75000   0.00000  Uiso   1.00
C246   C     0.25687   0.17348   0.24488   0.00000  Uiso   1.00
C247   C     0.18640   0.72939   0.79379   0.00000  Uiso   1.00
C248   C     0.82427   0.25867   0.23664   0.00000  Uiso   1.00
C249   C     0.29234   0.20858   0.80424   0.00000  Uiso   1.00
C250   C     0.72534   0.80718   0.20166   0.00000  Uiso   1.00
C251   C     0.70072   0.78388   0.69693   0.00000  Uiso   1.00
C252   C     0.32652   0.24313   0.25512   0.00000  Uiso   1.00
C253   C     0.77062   0.31360   0.70620   0.00000  Uiso   1.00
C254   C     0.24133   0.67573   0.26337   0.00000  Uiso   1.00
C255   C     0.29142   0.20767   0.69577   0.00000  Uiso   1.00
C256   C     0.72693   0.23072   0.24592   0.00000  Uiso   1.00
C257   C     0.69281   0.77465   0.29834   0.00000  Uiso   1.00
C258   C     0.22234   0.69531   0.69966   0.00000  Uiso   1.00
C259   C     0.75574   0.32852   0.25471   0.00000  Uiso   1.00
C260   C     0.30645   0.77680   0.30179   0.00000  Uiso   1.00
C261   C     0.67067   0.24428   0.74146   0.00000  Uiso   1.00
C262   C     0.22643   0.30897   0.29681   0.00000  Uiso   1.00
C263   C     0.75892   0.67644   0.72922   0.00000  Uiso   1.00
C264   C     0.68920   0.22767   0.29282   0.00000  Uiso   1.00
C265   C     0.32328   0.75867   0.74068   0.00000  Uiso   1.00
C266   C     0.80974   0.72449   0.29765   0.00000  Uiso   1.00
C267   C     0.26854   0.77410   0.74928   0.00000  Uiso   1.00
C268   C     0.23783   0.32010   0.71930   0.00000  Uiso   1.00
C269   C     0.14662   0.30946   0.20774   0.00000  Uiso   1.00
C270   C     0.86209   0.69926   0.77654   0.00000  Uiso   1.00
C271   C     0.30773   0.85514   0.21192   0.00000  Uiso   1.00
C272   C     0.70120   0.13677   0.76664   0.00000  Uiso   1.00
C273   C     0.81766   0.65163   0.20111   0.00000  Uiso   1.00
C274   C     0.14210   0.30491   0.78587   0.00000  Uiso   1.00
C275   C     0.68657   0.14980   0.20135   0.00000  Uiso   1.00
C276   C     0.29781   0.86684   0.76766   0.00000  Uiso   1.00
C277   C     0.84914   0.31343   0.79720   0.00000  Uiso   1.00
C278   C     0.76750   0.27496   0.75242   0.00000  Uiso   1.00
C279   C     0.13207   0.70311   0.24048   0.00000  Uiso   1.00
C280   C     0.68067   0.84434   0.80087   0.00000  Uiso   1.00
C281   C     0.29775   0.13431   0.23660   0.00000  Uiso   1.00
C282   C     0.14237   0.69358   0.78803   0.00000  Uiso   1.00
C283   C     0.86370   0.29927   0.23010   0.00000  Uiso   1.00
C284   C     0.32723   0.16337   0.80398   0.00000  Uiso   1.00
C285   C     0.68371   0.84634   0.20076   0.00000  Uiso   1.00
C286   C     0.65566   0.81933   0.69913   0.00000  Uiso   1.00
C287   C     0.36569   0.20225   0.26340   0.00000  Uiso   1.00
C288   C     0.80643   0.35763   0.71197   0.00000  Uiso   1.00
H1     H     0.24798   0.28556   0.10768   0.00000  Uiso   1.00
H2     H     0.83836   0.90241   0.77524   0.00000  Uiso   1.00
H3     H     0.39940   0.66880   0.24153   0.00000  Uiso   1.00
H4     H     0.19730   0.17989   0.65788   0.00000  Uiso   1.00
H5     H     0.25093   0.14270   0.61971   0.00000  Uiso   1.00
H6     H     0.23812   0.19765   0.52982   0.00000  Uiso   1.00
H7     H     0.17381   0.16902   0.55282   0.00000  Uiso   1.00
H8     H     0.18798   0.24005   0.56726   0.00000  Uiso   1.00
H9     H     0.69126   0.66623   0.30662   0.00000  Uiso   1.00
H10    H     0.62701   0.70036   0.32218   0.00000  Uiso   1.00
H11    H     0.64272   0.68733   0.43106   0.00000  Uiso   1.00
H12    H     0.64303   0.62322   0.39132   0.00000  Uiso   1.00
H13    H     0.29803   0.76277   0.11430   0.00000  Uiso   1.00
H14    H     0.70656   0.65331   0.41513   0.00000  Uiso   1.00
H15    H     0.27447   0.75727   0.58804   0.00000  Uiso   1.00
H16    H     0.21911   0.77589   0.63510   0.00000  Uiso   1.00
H17    H     0.16217   0.70134   0.58831   0.00000  Uiso   1.00
H18    H     0.18697   0.74935   0.53398   0.00000  Uiso   1.00
H19    H     0.21948   0.68363   0.54117   0.00000  Uiso   1.00
H20    H     0.65079   0.32047   0.19178   0.00000  Uiso   1.00
H21    H     0.71068   0.35526   0.16516   0.00000  Uiso   1.00
H22    H     0.67816   0.44179   0.20906   0.00000  Uiso   1.00
H23    H     0.62827   0.41350   0.15858   0.00000  Uiso   1.00
H24    H     0.28952   0.83366   0.09222   0.00000  Uiso   1.00
H25    H     0.61846   0.40813   0.23839   0.00000  Uiso   1.00
H26    H     0.22664   0.74656   0.39646   0.00000  Uiso   1.00
H27    H     0.25232   0.81340   0.37980   0.00000  Uiso   1.00
H28    H     0.33034   0.79677   0.45006   0.00000  Uiso   1.00
H29    H     0.26437   0.79548   0.48534   0.00000  Uiso   1.00
H30    H     0.29990   0.73215   0.47047   0.00000  Uiso   1.00
H31    H     0.65305   0.33719   0.81725   0.00000  Uiso   1.00
H32    H     0.60751   0.27966   0.81417   0.00000  Uiso   1.00
H33    H     0.54911   0.32863   0.74106   0.00000  Uiso   1.00
H34    H     0.55668   0.36623   0.80988   0.00000  Uiso   1.00
H35    H     0.19909   0.81140   0.04971   0.00000  Uiso   1.00
H36    H     0.59411   0.38679   0.74414   0.00000  Uiso   1.00
H37    H     0.21444   0.25202   0.39232   0.00000  Uiso   1.00
H38    H     0.20364   0.32363   0.40789   0.00000  Uiso   1.00
H39    H     0.30090   0.32645   0.44914   0.00000  Uiso   1.00
H40    H     0.25249   0.28715   0.49115   0.00000  Uiso   1.00
H41    H     0.30123   0.25285   0.44367   0.00000  Uiso   1.00
H42    H     0.67317   0.67175   0.79496   0.00000  Uiso   1.00
H43    H     0.69873   0.60442   0.77675   0.00000  Uiso   1.00
H44    H     0.62377   0.59679   0.69952   0.00000  Uiso   1.00
H45    H     0.59920   0.60424   0.77512   0.00000  Uiso   1.00
H46    H     0.25313   0.77112   0.01673   0.00000  Uiso   1.00
H47    H     0.59759   0.66164   0.72480   0.00000  Uiso   1.00
H48    H     0.73718   0.20195   0.38572   0.00000  Uiso   1.00
H49    H     0.66630   0.21051   0.40779   0.00000  Uiso   1.00
H50    H     0.68862   0.30094   0.45028   0.00000  Uiso   1.00
H51    H     0.72885   0.24687   0.48328   0.00000  Uiso   1.00
H52    H     0.75917   0.29179   0.42841   0.00000  Uiso   1.00
H53    H     0.31809   0.68689   0.82438   0.00000  Uiso   1.00
H54    H     0.38746   0.71003   0.81116   0.00000  Uiso   1.00
H55    H     0.40698   0.62392   0.75588   0.00000  Uiso   1.00
H56    H     0.38604   0.61178   0.83213   0.00000  Uiso   1.00
H57    H     0.20818   0.74085   0.07159   0.00000  Uiso   1.00
H58    H     0.33866   0.60044   0.77188   0.00000  Uiso   1.00
H59    H     0.82028   0.83038   0.29598   0.00000  Uiso   1.00
H60    H     0.88119   0.79501   0.32158   0.00000  Uiso   1.00
H61    H     0.85790   0.81978   0.42627   0.00000  Uiso   1.00
H62    H     0.86436   0.87935   0.37921   0.00000  Uiso   1.00
H63    H     0.79755   0.85502   0.40033   0.00000  Uiso   1.00
H64    H     0.31124   0.37000   0.76970   0.00000  Uiso   1.00
H65    H     0.29892   0.41223   0.70490   0.00000  Uiso   1.00
H66    H     0.38062   0.37436   0.65556   0.00000  Uiso   1.00
H67    H     0.39731   0.40300   0.72743   0.00000  Uiso   1.00
H68    H     0.81312   0.18192   0.67562   0.00000  Uiso   1.00
H69    H     0.39251   0.32994   0.71898   0.00000  Uiso   1.00
H70    H     0.03135   0.27546   0.20893   0.00000  Uiso   1.00
H71    H     0.08899   0.23454   0.22842   0.00000  Uiso   1.00
H72    H     0.03354   0.24136   0.10542   0.00000  Uiso   1.00
H73    H     0.09634   0.20598   0.11890   0.00000  Uiso   1.00
H74    H     0.05344   0.14382   0.18971   0.00000  Uiso   1.00
H75    H     0.01281   0.14539   0.12270   0.00000  Uiso   1.00
H76    H     0.99051   0.18197   0.18835   0.00000  Uiso   1.00
H77    H     0.92488   0.67404   0.88717   0.00000  Uiso   1.00
H78    H     0.85857   0.70425   0.88224   0.00000  Uiso   1.00
H79    H     0.78998   0.11254   0.68884   0.00000  Uiso   1.00
H80    H     0.96890   0.76417   0.88886   0.00000  Uiso   1.00
H81    H     0.90488   0.79764   0.87515   0.00000  Uiso   1.00
H82    H     0.86877   0.76193   0.97229   0.00000  Uiso   1.00
H83    H     0.92938   0.80239   0.98190   0.00000  Uiso   1.00
H84    H     0.93381   0.72918   0.98586   0.00000  Uiso   1.00
H85    H     0.28296   0.97680   0.21980   0.00000  Uiso   1.00
H86    H     0.26035   0.92265   0.26570   0.00000  Uiso   1.00
H87    H     0.20803   0.96256   0.14839   0.00000  Uiso   1.00
H88    H     0.18764   0.90120   0.18633   0.00000  Uiso   1.00
H89    H     0.16351   0.95273   0.27715   0.00000  Uiso   1.00
H90    H     0.87608   0.09302   0.74413   0.00000  Uiso   1.00
H91    H     0.12925   0.98194   0.21339   0.00000  Uiso   1.00
H92    H     0.18836   0.01503   0.24471   0.00000  Uiso   1.00
H93    H     0.69615   0.04126   0.86066   0.00000  Uiso   1.00
H94    H     0.67997   0.11163   0.86773   0.00000  Uiso   1.00
H95    H     0.79621   0.06204   0.86224   0.00000  Uiso   1.00
H96    H     0.78076   0.13333   0.87091   0.00000  Uiso   1.00
H97    H     0.73182   0.11504   0.96558   0.00000  Uiso   1.00
H98    H     0.80124   0.09090   0.96866   0.00000  Uiso   1.00
H99    H     0.74605   0.04324   0.95874   0.00000  Uiso   1.00
H100   H     0.88823   0.65599   0.12062   0.00000  Uiso   1.00
H101   H     0.88823   0.11396   0.66787   0.00000  Uiso   1.00
H102   H     0.82319   0.67044   0.08544   0.00000  Uiso   1.00
H103   H     0.88460   0.56076   0.08093   0.00000  Uiso   1.00
H104   H     0.82073   0.57597   0.04487   0.00000  Uiso   1.00
H105   H     0.86634   0.64880   0.98447   0.00000  Uiso   1.00
H106   H     0.89772   0.58309   0.97345   0.00000  Uiso   1.00
H107   H     0.93073   0.63274   0.02030   0.00000  Uiso   1.00
H108   H     0.12917   0.35556   0.88389   0.00000  Uiso   1.00
H109   H     0.14754   0.28490   0.89801   0.00000  Uiso   1.00
H110   H     0.03175   0.33291   0.90822   0.00000  Uiso   1.00
H111   H     0.05214   0.26376   0.92448   0.00000  Uiso   1.00
H112   H     0.17637   0.29636   0.09210   0.00000  Uiso   1.00
H113   H     0.89956   0.16135   0.72812   0.00000  Uiso   1.00
H114   H     0.11320   0.29655   0.00551   0.00000  Uiso   1.00
H115   H     0.04393   0.31870   0.01717   0.00000  Uiso   1.00
H116   H     0.09385   0.36635   0.98945   0.00000  Uiso   1.00
H117   H     0.72815   0.05728   0.20962   0.00000  Uiso   1.00
H118   H     0.76836   0.09469   0.15510   0.00000  Uiso   1.00
H119   H     0.68196   0.00730   0.12742   0.00000  Uiso   1.00
H120   H     0.72143   0.04429   0.07294   0.00000  Uiso   1.00
H121   H     0.80738   0.00544   0.11539   0.00000  Uiso   1.00
H122   H     0.76092   0.95237   0.09317   0.00000  Uiso   1.00
H123   H     0.76807   0.96909   0.17113   0.00000  Uiso   1.00
H124   H     0.66960   0.67969   0.20402   0.00000  Uiso   1.00
H125   H     0.30555   0.95992   0.86563   0.00000  Uiso   1.00
H126   H     0.32555   0.89015   0.86806   0.00000  Uiso   1.00
H127   H     0.20795   0.93618   0.87417   0.00000  Uiso   1.00
H128   H     0.22422   0.86464   0.87270   0.00000  Uiso   1.00
H129   H     0.27595   0.87124   0.96611   0.00000  Uiso   1.00
H130   H     0.20824   0.89836   0.97621   0.00000  Uiso   1.00
H131   H     0.26534   0.94407   0.96880   0.00000  Uiso   1.00
H132   H     0.96352   0.28039   0.81474   0.00000  Uiso   1.00
H133   H     0.90786   0.23606   0.79674   0.00000  Uiso   1.00
H134   H     0.95090   0.26243   0.92249   0.00000  Uiso   1.00
H135   H     0.70499   0.61879   0.17844   0.00000  Uiso   1.00
H136   H     0.89136   0.22206   0.90756   0.00000  Uiso   1.00
H137   H     0.94650   0.15491   0.85091   0.00000  Uiso   1.00
H138   H     0.97365   0.16430   0.92503   0.00000  Uiso   1.00
H139   H     0.00709   0.19554   0.86195   0.00000  Uiso   1.00
H140   H     0.08063   0.69538   0.14330   0.00000  Uiso   1.00
H141   H     0.08999   0.76725   0.15924   0.00000  Uiso   1.00
H142   H     0.98399   0.70289   0.18015   0.00000  Uiso   1.00
H143   H     0.99391   0.77467   0.19258   0.00000  Uiso   1.00
H144   H     0.01392   0.78756   0.08353   0.00000  Uiso   1.00
H145   H     0.94777   0.75757   0.09600   0.00000  Uiso   1.00
H146   H     0.68024   0.64205   0.07374   0.00000  Uiso   1.00
H147   H     0.00366   0.71527   0.07148   0.00000  Uiso   1.00
H148   H     0.71966   0.94860   0.83515   0.00000  Uiso   1.00
H149   H     0.76121   0.88873   0.83850   0.00000  Uiso   1.00
H150   H     0.70514   0.94905   0.94099   0.00000  Uiso   1.00
H151   H     0.72631   0.87903   0.94885   0.00000  Uiso   1.00
H152   H     0.82123   0.90184   0.92600   0.00000  Uiso   1.00
H153   H     0.79684   0.94567   0.98484   0.00000  Uiso   1.00
H154   H     0.80309   0.97168   0.90970   0.00000  Uiso   1.00
H155   H     0.29707   0.03789   0.14310   0.00000  Uiso   1.00
H156   H     0.31276   0.10795   0.13413   0.00000  Uiso   1.00
H157   H     0.62067   0.63558   0.12078   0.00000  Uiso   1.00
H158   H     0.19561   0.06536   0.15687   0.00000  Uiso   1.00
H159   H     0.21547   0.13258   0.13438   0.00000  Uiso   1.00
H160   H     0.25346   0.09435   0.03913   0.00000  Uiso   1.00
H161   H     0.18137   0.08201   0.04816   0.00000  Uiso   1.00
H162   H     0.22950   0.02755   0.06098   0.00000  Uiso   1.00
H163   H     0.01658   0.71585   0.81246   0.00000  Uiso   1.00
H164   H     0.05388   0.71571   0.74453   0.00000  Uiso   1.00
H165   H     0.06235   0.80229   0.84499   0.00000  Uiso   1.00
H166   H     0.10056   0.80309   0.77624   0.00000  Uiso   1.00
H167   H     0.97564   0.80675   0.78616   0.00000  Uiso   1.00
H168   H     0.64498   0.70240   0.09966   0.00000  Uiso   1.00
H169   H     0.01474   0.80913   0.71768   0.00000  Uiso   1.00
H170   H     0.01949   0.86390   0.77115   0.00000  Uiso   1.00
H171   H     0.96043   0.30047   0.13471   0.00000  Uiso   1.00
H172   H     0.89452   0.33026   0.13180   0.00000  Uiso   1.00
H173   H     0.91444   0.20553   0.13055   0.00000  Uiso   1.00
H174   H     0.85160   0.24093   0.11635   0.00000  Uiso   1.00
H175   H     0.89414   0.28590   0.02680   0.00000  Uiso   1.00
H176   H     0.89229   0.21249   0.02177   0.00000  Uiso   1.00
H177   H     0.95535   0.24641   0.03932   0.00000  Uiso   1.00
H178   H     0.32603   0.06352   0.89527   0.00000  Uiso   1.00
H179   H     0.12998   0.18878   0.73031   0.00000  Uiso   1.00
H180   H     0.29325   0.07198   0.82484   0.00000  Uiso   1.00
H181   H     0.26306   0.13244   0.94167   0.00000  Uiso   1.00
H182   H     0.22866   0.13982   0.87130   0.00000  Uiso   1.00
H183   H     0.20454   0.04130   0.87111   0.00000  Uiso   1.00
H184   H     0.17825   0.07628   0.93576   0.00000  Uiso   1.00
H185   H     0.23766   0.03334   0.94267   0.00000  Uiso   1.00
H186   H     0.60566   0.84836   0.12663   0.00000  Uiso   1.00
H187   H     0.66583   0.81941   0.09121   0.00000  Uiso   1.00
H188   H     0.62189   0.93604   0.07349   0.00000  Uiso   1.00
H189   H     0.68197   0.90810   0.03947   0.00000  Uiso   1.00
H190   H     0.08777   0.20107   0.79513   0.00000  Uiso   1.00
H191   H     0.62457   0.83646   0.98944   0.00000  Uiso   1.00
H192   H     0.60369   0.90464   0.96963   0.00000  Uiso   1.00
H193   H     0.56430   0.86616   0.02306   0.00000  Uiso   1.00
H194   H     0.55139   0.78034   0.66485   0.00000  Uiso   1.00
H195   H     0.61127   0.73879   0.66150   0.00000  Uiso   1.00
H196   H     0.55095   0.79485   0.55901   0.00000  Uiso   1.00
H197   H     0.62097   0.77368   0.55115   0.00000  Uiso   1.00
H198   H     0.59815   0.67876   0.57401   0.00000  Uiso   1.00
H199   H     0.55433   0.70316   0.51516   0.00000  Uiso   1.00
H200   H     0.52832   0.69691   0.59031   0.00000  Uiso   1.00
H201   H     0.12567   0.11937   0.84441   0.00000  Uiso   1.00
H202   H     0.46211   0.20293   0.35690   0.00000  Uiso   1.00
H203   H     0.39205   0.18724   0.36586   0.00000  Uiso   1.00
H204   H     0.43464   0.30439   0.34313   0.00000  Uiso   1.00
H205   H     0.36743   0.28453   0.36562   0.00000  Uiso   1.00
H206   H     0.40566   0.24654   0.46087   0.00000  Uiso   1.00
H207   H     0.41800   0.31863   0.45184   0.00000  Uiso   1.00
H208   H     0.47246   0.27050   0.43902   0.00000  Uiso   1.00
H209   H     0.78414   0.48342   0.68752   0.00000  Uiso   1.00
H210   H     0.78428   0.44613   0.75546   0.00000  Uiso   1.00
H211   H     0.69771   0.43762   0.65500   0.00000  Uiso   1.00
H212   H     0.09701   0.10270   0.77255   0.00000  Uiso   1.00
H213   H     0.69692   0.39943   0.72376   0.00000  Uiso   1.00
H214   H     0.69087   0.48528   0.78228   0.00000  Uiso   1.00
H215   H     0.63609   0.48048   0.72883   0.00000  Uiso   1.00
H216   H     0.69322   0.52434   0.71378   0.00000  Uiso   1.00
H217   H     0.19952   0.53957   0.36530   0.00000  Uiso   1.00
H218   H     0.16974   0.60548   0.36821   0.00000  Uiso   1.00
H219   H     0.29446   0.58556   0.36946   0.00000  Uiso   1.00
H220   H     0.25907   0.64840   0.38366   0.00000  Uiso   1.00
H221   H     0.21409   0.60585   0.47321   0.00000  Uiso   1.00
H222   H     0.28751   0.60771   0.47824   0.00000  Uiso   1.00
H223   H     0.17355   0.19910   0.05086   0.00000  Uiso   1.00
H224   H     0.17007   0.10750   0.78099   0.00000  Uiso   1.00
H225   H     0.25358   0.54465   0.46068   0.00000  Uiso   1.00
H226   H     0.43648   0.17397   0.60473   0.00000  Uiso   1.00
H227   H     0.42802   0.20675   0.67516   0.00000  Uiso   1.00
H228   H     0.36756   0.23694   0.55833   0.00000  Uiso   1.00
H229   H     0.36018   0.27134   0.62870   0.00000  Uiso   1.00
H230   H     0.45870   0.29546   0.62889   0.00000  Uiso   1.00
H231   H     0.42372   0.32176   0.56424   0.00000  Uiso   1.00
H232   H     0.46666   0.26235   0.55733   0.00000  Uiso   1.00
H233   H     0.65165   0.89434   0.37337   0.00000  Uiso   1.00
H234   H     0.68059   0.83417   0.40878   0.00000  Uiso   1.00
H235   H     0.75345   0.27336   0.10354   0.00000  Uiso   1.00
H236   H     0.56397   0.87812   0.42651   0.00000  Uiso   1.00
H237   H     0.59191   0.81804   0.46054   0.00000  Uiso   1.00
H238   H     0.66356   0.87544   0.51056   0.00000  Uiso   1.00
H239   H     0.59538   0.89634   0.53037   0.00000  Uiso   1.00
H240   H     0.63386   0.93571   0.47693   0.00000  Uiso   1.00
H241   H     0.21961   0.53648   0.68527   0.00000  Uiso   1.00
H242   H     0.26394   0.59214   0.70327   0.00000  Uiso   1.00
H243   H     0.23758   0.54909   0.57752   0.00000  Uiso   1.00
H244   H     0.27795   0.60864   0.59245   0.00000  Uiso   1.00
H245   H     0.34509   0.55349   0.64911   0.00000  Uiso   1.00
H246   H     0.68660   0.24768   0.12020   0.00000  Uiso   1.00
H247   H     0.33571   0.52634   0.57499   0.00000  Uiso   1.00
H248   H     0.30445   0.49290   0.63807   0.00000  Uiso   1.00
H249   H     0.80462   0.41939   0.35668   0.00000  Uiso   1.00
H250   H     0.73275   0.41002   0.34075   0.00000  Uiso   1.00
H251   H     0.79710   0.51602   0.31979   0.00000  Uiso   1.00
H252   H     0.72531   0.50609   0.30740   0.00000  Uiso   1.00
H253   H     0.71247   0.48611   0.41647   0.00000  Uiso   1.00
H254   H     0.74245   0.55226   0.40396   0.00000  Uiso   1.00
H255   H     0.78477   0.49638   0.42848   0.00000  Uiso   1.00
H256   H     0.44272   0.77185   0.29039   0.00000  Uiso   1.00
H257   H     0.70324   0.16966   0.04994   0.00000  Uiso   1.00
H258   H     0.40531   0.73164   0.34491   0.00000  Uiso   1.00
H259   H     0.49270   0.81805   0.37259   0.00000  Uiso   1.00
H260   H     0.45571   0.77858   0.42707   0.00000  Uiso   1.00
H261   H     0.49456   0.69263   0.38463   0.00000  Uiso   1.00
H262   H     0.54763   0.73910   0.40685   0.00000  Uiso   1.00
H263   H     0.53091   0.73194   0.32888   0.00000  Uiso   1.00
H264   H     0.54009   0.19445   0.63437   0.00000  Uiso   1.00
H265   H     0.60985   0.17445   0.63193   0.00000  Uiso   1.00
H266   H     0.56382   0.29205   0.62582   0.00000  Uiso   1.00
H267   H     0.63537   0.27577   0.62730   0.00000  Uiso   1.00
H268   H     0.70453   0.23563   0.01466   0.00000  Uiso   1.00
H269   H     0.62876   0.22404   0.53389   0.00000  Uiso   1.00
H270   H     0.60165   0.29176   0.52378   0.00000  Uiso   1.00
H271   H     0.55593   0.23466   0.53119   0.00000  Uiso   1.00
H272   H     0.22454   0.46865   0.29107   0.00000  Uiso   1.00
H273   H     0.26546   0.41101   0.27158   0.00000  Uiso   1.00
H274   H     0.25864   0.46647   0.39458   0.00000  Uiso   1.00
H275   H     0.29402   0.40367   0.38110   0.00000  Uiso   1.00
H276   H     0.35618   0.44657   0.31029   0.00000  Uiso   1.00
H277   H     0.35460   0.48720   0.37730   0.00000  Uiso   1.00
H278   H     0.31803   0.50949   0.31165   0.00000  Uiso   1.00
H279   H     0.76786   0.20010   0.02953   0.00000  Uiso   1.00
H280   H     0.82597   0.57509   0.61285   0.00000  Uiso   1.00
H281   H     0.79579   0.64142   0.61776   0.00000  Uiso   1.00
H282   H     0.73580   0.53112   0.61116   0.00000  Uiso   1.00
H283   H     0.70238   0.59517   0.62480   0.00000  Uiso   1.00
H284   H     0.73817   0.63119   0.52765   0.00000  Uiso   1.00
H285   H     0.69765   0.57061   0.51807   0.00000  Uiso   1.00
H286   H     0.77086   0.56611   0.51416   0.00000  Uiso   1.00
H287   H     0.52320   0.21704   0.28018   0.00000  Uiso   1.00
H288   H     0.57735   0.23965   0.23429   0.00000  Uiso   1.00
H289   H     0.53744   0.29197   0.35160   0.00000  Uiso   1.00
H290   H     0.16282   0.84695   0.68274   0.00000  Uiso   1.00
H291   H     0.59880   0.31237   0.31366   0.00000  Uiso   1.00
H292   H     0.48496   0.31164   0.25528   0.00000  Uiso   1.00
H293   H     0.54727   0.33649   0.22284   0.00000  Uiso   1.00
H294   H     0.51806   0.37076   0.28660   0.00000  Uiso   1.00
H295   H     0.45874   0.80385   0.63934   0.00000  Uiso   1.00
H296   H     0.38837   0.82003   0.63227   0.00000  Uiso   1.00
H297   H     0.43796   0.70379   0.63776   0.00000  Uiso   1.00
H298   H     0.36666   0.71924   0.62909   0.00000  Uiso   1.00
H299   H     0.38496   0.76818   0.53442   0.00000  Uiso   1.00
H300   H     0.40910   0.69876   0.53134   0.00000  Uiso   1.00
H301   H     0.22034   0.89249   0.68583   0.00000  Uiso   1.00
H302   H     0.45676   0.75394   0.54126   0.00000  Uiso   1.00
H303   H     0.84417   0.61167   0.37937   0.00000  Uiso   1.00
H304   H     0.82946   0.67670   0.41448   0.00000  Uiso   1.00
H305   H     0.93935   0.61566   0.41924   0.00000  Uiso   1.00
H306   H     0.92385   0.67951   0.45522   0.00000  Uiso   1.00
H307   H     0.85107   0.63368   0.51550   0.00000  Uiso   1.00
H308   H     0.91689   0.60257   0.52671   0.00000  Uiso   1.00
H309   H     0.86746   0.56931   0.47979   0.00000  Uiso   1.00
H310   H     0.14444   0.37082   0.61612   0.00000  Uiso   1.00
H311   H     0.21510   0.35246   0.60200   0.00000  Uiso   1.00
H312   H     0.17135   0.95089   0.75893   0.00000  Uiso   1.00
H313   H     0.16710   0.46825   0.59177   0.00000  Uiso   1.00
H314   H     0.23624   0.44785   0.57551   0.00000  Uiso   1.00
H315   H     0.20345   0.38680   0.49449   0.00000  Uiso   1.00
H316   H     0.18130   0.45606   0.48283   0.00000  Uiso   1.00
H317   H     0.13365   0.40615   0.51055   0.00000  Uiso   1.00
H318   H     0.13377   0.94332   0.69011   0.00000  Uiso   1.00
H319   H     0.21284   0.24751   0.00885   0.00000  Uiso   1.00
H320   H     0.11320   0.90588   0.75584   0.00000  Uiso   1.00
H321   H     0.74273   0.22554   0.91195   0.00000  Uiso   1.00
H322   H     0.72411   0.28089   0.86490   0.00000  Uiso   1.00
H323   H     0.79865   0.33784   0.91169   0.00000  Uiso   1.00
H324   H     0.75064   0.31304   0.96601   0.00000  Uiso   1.00
H325   H     0.81636   0.28053   0.95883   0.00000  Uiso   1.00
H326   H     0.17953   0.84921   0.30822   0.00000  Uiso   1.00
H327   H     0.14474   0.78932   0.33484   0.00000  Uiso   1.00
H328   H     0.05821   0.82184   0.29093   0.00000  Uiso   1.00
H329   H     0.08650   0.87173   0.34141   0.00000  Uiso   1.00
H330   H     0.24715   0.19877   0.05632   0.00000  Uiso   1.00
H331   H     0.09187   0.88154   0.26160   0.00000  Uiso   1.00
H332   H     0.69095   0.72360   0.87743   0.00000  Uiso   1.00
H333   H     0.67391   0.78947   0.90860   0.00000  Uiso   1.00
H334   H     0.75746   0.78463   0.97251   0.00000  Uiso   1.00
H335   H     0.71100   0.72895   0.98600   0.00000  Uiso   1.00
H336   H     0.77200   0.71778   0.94248   0.00000  Uiso   1.00
H337   H     0.19616   0.16623   0.33640   0.00000  Uiso   1.00
H338   H     0.21285   0.09851   0.30924   0.00000  Uiso   1.00
H339   H     0.11978   0.09261   0.26344   0.00000  Uiso   1.00
H340   H     0.11819   0.10141   0.34351   0.00000  Uiso   1.00
H341   H     0.82820   0.82685   0.70507   0.00000  Uiso   1.00
H342   H     0.10352   0.15844   0.29518   0.00000  Uiso   1.00
H343   H     0.23457   0.74666   0.91486   0.00000  Uiso   1.00
H344   H     0.19066   0.69222   0.89319   0.00000  Uiso   1.00
H345   H     0.10908   0.75199   0.92102   0.00000  Uiso   1.00
H346   H     0.15287   0.73486   0.98187   0.00000  Uiso   1.00
H347   H     0.15647   0.80210   0.94835   0.00000  Uiso   1.00
H348   H     0.82113   0.18595   0.31699   0.00000  Uiso   1.00
H349   H     0.89167   0.20337   0.30075   0.00000  Uiso   1.00
H350   H     0.90141   0.11772   0.24233   0.00000  Uiso   1.00
H351   H     0.88041   0.10435   0.31833   0.00000  Uiso   1.00
H352   H     0.89554   0.80128   0.72321   0.00000  Uiso   1.00
H353   H     0.83119   0.10060   0.25848   0.00000  Uiso   1.00
H354   H     0.32014   0.30269   0.84214   0.00000  Uiso   1.00
H355   H     0.35731   0.24904   0.88031   0.00000  Uiso   1.00
H356   H     0.30235   0.26187   0.97020   0.00000  Uiso   1.00
H357   H     0.33101   0.32617   0.94720   0.00000  Uiso   1.00
H358   H     0.25997   0.31202   0.93275   0.00000  Uiso   1.00
H359   H     0.83377   0.80873   0.19338   0.00000  Uiso   1.00
H360   H     0.79963   0.87298   0.17781   0.00000  Uiso   1.00
H361   H     0.81267   0.85725   0.06893   0.00000  Uiso   1.00
H362   H     0.87677   0.85695   0.10867   0.00000  Uiso   1.00
H363   H     0.90323   0.87622   0.80045   0.00000  Uiso   1.00
H364   H     0.84668   0.79342   0.08488   0.00000  Uiso   1.00
H365   H     0.77640   0.80904   0.62256   0.00000  Uiso   1.00
H366   H     0.71052   0.82608   0.59139   0.00000  Uiso   1.00
H367   H     0.71537   0.74252   0.52749   0.00000  Uiso   1.00
H368   H     0.77105   0.78898   0.51400   0.00000  Uiso   1.00
H369   H     0.78223   0.72800   0.55753   0.00000  Uiso   1.00
H370   H     0.33376   0.30384   0.16359   0.00000  Uiso   1.00
H371   H     0.40148   0.28715   0.19076   0.00000  Uiso   1.00
H372   H     0.40738   0.38023   0.23656   0.00000  Uiso   1.00
H373   H     0.39859   0.38181   0.15649   0.00000  Uiso   1.00
H374   H     0.89573   0.90081   0.72487   0.00000  Uiso   1.00
H375   H     0.34156   0.39648   0.20481   0.00000  Uiso   1.00
H376   H     0.75335   0.26542   0.58514   0.00000  Uiso   1.00
H377   H     0.80779   0.30933   0.60681   0.00000  Uiso   1.00
H378   H     0.74804   0.39092   0.57897   0.00000  Uiso   1.00
H379   H     0.76516   0.34712   0.51812   0.00000  Uiso   1.00
H380   H     0.69792   0.34353   0.55164   0.00000  Uiso   1.00
H381   H     0.31405   0.67885   0.18302   0.00000  Uiso   1.00
H382   H     0.29663   0.60832   0.19927   0.00000  Uiso   1.00
H383   H     0.38228   0.59859   0.25771   0.00000  Uiso   1.00
H384   H     0.39565   0.61957   0.18170   0.00000  Uiso   1.00
O1     O     0.00000   0.50000   0.25000   0.00000  Uiso   1.00
O2     O     0.00000   0.45454   0.88202   0.00000  Uiso   1.00
O3     O     0.68031   0.88141   0.15260   0.00000  Uiso   1.00
O4     O     0.62184   0.82435   0.64992   0.00000  Uiso   1.00
O5     O     0.41772   0.21663   0.28082   0.00000  Uiso   1.00
O6     O     0.79920   0.40240   0.67528   0.00000  Uiso   1.00
O7     O     0.21532   0.58517   0.29064   0.00000  Uiso   1.00
O8     O     0.36171   0.16003   0.64243   0.00000  Uiso   1.00
O9     O     0.61859   0.81969   0.34741   0.00000  Uiso   1.00
O10    O     0.18898   0.61095   0.65924   0.00000  Uiso   1.00
O11    O     0.78287   0.42218   0.26661   0.00000  Uiso   1.00
O12    O     0.38792   0.81468   0.34448   0.00000  Uiso   1.00
O13    O     0.54546   0.00000   0.11798   0.00000  Uiso   1.00
O14    O     0.58206   0.21514   0.71012   0.00000  Uiso   1.00
O15    O     0.19752   0.39755   0.32980   0.00000  Uiso   1.00
O16    O     0.78987   0.58941   0.69433   0.00000  Uiso   1.00
O17    O     0.59785   0.20451   0.31929   0.00000  Uiso   1.00
O18    O     0.41459   0.78361   0.71385   0.00000  Uiso   1.00
O19    O     0.88572   0.67930   0.34497   0.00000  Uiso   1.00
O20    O     0.20111   0.40204   0.67624   0.00000  Uiso   1.00
O21    O     0.45454   0.00000   0.88202   0.00000  Uiso   1.00
O22    O     0.50000   0.95454   0.61798   0.00000  Uiso   1.00
O23    O     0.50000   0.04546   0.38202   0.00000  Uiso   1.00
O24    O     0.95454   0.50000   0.61798   0.00000  Uiso   1.00
O25    O     0.04546   0.50000   0.38202   0.00000  Uiso   1.00
O26    O     0.50000   0.04546   0.61798   0.00000  Uiso   1.00
O27    O     0.50000   0.95454   0.38202   0.00000  Uiso   1.00
O28    O     0.04546   0.50000   0.61798   0.00000  Uiso   1.00
O29    O     0.00000   0.50000   0.75000   0.00000  Uiso   1.00
O30    O     0.95454   0.50000   0.38202   0.00000  Uiso   1.00
O31    O     0.06399   0.60947   0.21539   0.00000  Uiso   1.00
O32    O     0.93601   0.39053   0.78461   0.00000  Uiso   1.00
O33    O     0.60947   0.93601   0.21539   0.00000  Uiso   1.00
O34    O     0.39053   0.06399   0.78461   0.00000  Uiso   1.00
O35    O     0.93601   0.39053   0.21539   0.00000  Uiso   1.00
O36    O     0.06399   0.60947   0.78461   0.00000  Uiso   1.00
O37    O     0.39053   0.06399   0.21539   0.00000  Uiso   1.00
O38    O     0.60947   0.93601   0.78461   0.00000  Uiso   1.00
O39    O     0.93601   0.60947   0.78461   0.00000  Uiso   1.00
O40    O     0.50000   0.00000   0.25000   0.00000  Uiso   1.00
O41    O     0.06399   0.39053   0.21539   0.00000  Uiso   1.00
O42    O     0.39053   0.93601   0.78461   0.00000  Uiso   1.00
O43    O     0.60947   0.06399   0.21539   0.00000  Uiso   1.00
O44    O     0.06399   0.39053   0.78461   0.00000  Uiso   1.00
O45    O     0.93601   0.60947   0.21539   0.00000  Uiso   1.00
O46    O     0.60947   0.06399   0.78461   0.00000  Uiso   1.00
O47    O     0.39053   0.93601   0.21539   0.00000  Uiso   1.00
O48    O     0.56399   0.10947   0.71539   0.00000  Uiso   1.00
O49    O     0.43601   0.89053   0.28461   0.00000  Uiso   1.00
O50    O     0.10947   0.43601   0.71539   0.00000  Uiso   1.00
O51    O     0.50000   0.00000   0.75000   0.00000  Uiso   1.00
O52    O     0.89053   0.56399   0.28461   0.00000  Uiso   1.00
O53    O     0.43601   0.89053   0.71539   0.00000  Uiso   1.00
O54    O     0.56399   0.10947   0.28461   0.00000  Uiso   1.00
O55    O     0.89053   0.56399   0.71539   0.00000  Uiso   1.00
O56    O     0.10947   0.43601   0.28461   0.00000  Uiso   1.00
O57    O     0.43601   0.10947   0.28461   0.00000  Uiso   1.00
O58    O     0.56399   0.89053   0.71539   0.00000  Uiso   1.00
O59    O     0.89053   0.43601   0.28461   0.00000  Uiso   1.00
O60    O     0.10947   0.56399   0.71539   0.00000  Uiso   1.00
O61    O     0.56399   0.89053   0.28461   0.00000  Uiso   1.00
O62    O     0.00000   0.45454   0.11798   0.00000  Uiso   1.00
O63    O     0.43601   0.10947   0.71539   0.00000  Uiso   1.00
O64    O     0.10947   0.56399   0.28461   0.00000  Uiso   1.00
O65    O     0.89053   0.43601   0.71539   0.00000  Uiso   1.00
O66    O     0.19426   0.23692   0.15633   0.00000  Uiso   1.00
O67    O     0.83645   0.79309   0.78979   0.00000  Uiso   1.00
O68    O     0.23717   0.80681   0.15928   0.00000  Uiso   1.00
O69    O     0.79566   0.16245   0.76413   0.00000  Uiso   1.00
O70    O     0.74001   0.69338   0.15455   0.00000  Uiso   1.00
O71    O     0.17075   0.21268   0.80879   0.00000  Uiso   1.00
O72    O     0.75512   0.19971   0.14783   0.00000  Uiso   1.00
O73    O     0.00000   0.54546   0.88202   0.00000  Uiso   1.00
O74    O     0.20209   0.84607   0.76396   0.00000  Uiso   1.00
O75    O     0.80049   0.24276   0.84872   0.00000  Uiso   1.00
O76    O     0.15535   0.79809   0.24055   0.00000  Uiso   1.00
O77    O     0.74388   0.78677   0.85526   0.00000  Uiso   1.00
O78    O     0.20257   0.15844   0.24392   0.00000  Uiso   1.00
O79    O     0.18859   0.76556   0.84120   0.00000  Uiso   1.00
O80    O     0.83878   0.20479   0.22812   0.00000  Uiso   1.00
O81    O     0.27646   0.23150   0.85788   0.00000  Uiso   1.00
O82    O     0.75848   0.80201   0.15194   0.00000  Uiso   1.00
O83    O     0.71323   0.75612   0.64474   0.00000  Uiso   1.00
O84    O     0.45454   0.00000   0.11798   0.00000  Uiso   1.00
O85    O     0.34157   0.29743   0.25608   0.00000  Uiso   1.00
O86    O     0.73445   0.31141   0.65880   0.00000  Uiso   1.00
O87    O     0.29521   0.66122   0.27189   0.00000  Uiso   1.00
O88    O     0.26850   0.22355   0.64212   0.00000  Uiso   1.00
O89    O     0.69797   0.74151   0.34806   0.00000  Uiso   1.00
O90    O     0.25724   0.69951   0.65129   0.00000  Uiso   1.00
O91    O     0.70191   0.34466   0.25945   0.00000  Uiso   1.00
O92    O     0.30029   0.74488   0.35218   0.00000  Uiso   1.00
O93    O     0.65393   0.29791   0.73603   0.00000  Uiso   1.00
O94    O     0.26308   0.30574   0.34367   0.00000  Uiso   1.00
O95    O     0.54546   0.00000   0.88202   0.00000  Uiso   1.00
O96    O     0.70691   0.66355   0.71021   0.00000  Uiso   1.00
O97    O     0.69319   0.26283   0.34072   0.00000  Uiso   1.00
O98    O     0.33755   0.70434   0.73587   0.00000  Uiso   1.00
O99    O     0.80661   0.75998   0.34545   0.00000  Uiso   1.00
O100   O     0.28733   0.32925   0.69122   0.00000  Uiso   1.00
O101   O     0.10245   0.30248   0.17020   0.00000  Uiso   1.00
O102   O     0.91059   0.71013   0.80568   0.00000  Uiso   1.00
O103   O     0.29549   0.90214   0.18070   0.00000  Uiso   1.00
O104   O     0.71639   0.08541   0.78615   0.00000  Uiso   1.00
O105   O     0.82070   0.61428   0.15503   0.00000  Uiso   1.00
O106   O     0.00000   0.54546   0.11798   0.00000  Uiso   1.00
O107   O     0.09796   0.29889   0.82376   0.00000  Uiso   1.00
O108   O     0.68532   0.11208   0.15553   0.00000  Uiso   1.00
O109   O     0.28487   0.91794   0.78987   0.00000  Uiso   1.00
O110   O     0.88905   0.31103   0.84076   0.00000  Uiso   1.00
O111   O     0.07782   0.71713   0.23337   0.00000  Uiso   1.00
O112   O     0.67565   0.87816   0.85007   0.00000  Uiso   1.00
O113   O     0.28337   0.08228   0.21917   0.00000  Uiso   1.00
O114   O     0.09760   0.70080   0.82471   0.00000  Uiso   1.00
O115   O     0.91483   0.28468   0.20936   0.00000  Uiso   1.00
O116   O     0.33998   0.13829   0.85758   0.00000  Uiso   1.00
Zn1    Zn    0.06497   0.50000   0.29947   0.00000  Uiso   1.00
Zn2    Zn    0.43503   0.00000   0.20053   0.00000  Uiso   1.00
Zn3    Zn    0.00000   0.43503   0.79947   0.00000  Uiso   1.00
Zn4    Zn    0.00000   0.56497   0.20053   0.00000  Uiso   1.00
Zn5    Zn    0.43503   0.00000   0.79947   0.00000  Uiso   1.00
Zn6    Zn    0.56497   0.00000   0.20053   0.00000  Uiso   1.00
Zn7    Zn    0.00000   0.56497   0.79947   0.00000  Uiso   1.00
Zn8    Zn    0.00000   0.43503   0.20053   0.00000  Uiso   1.00
Zn9    Zn    0.93503   0.50000   0.70053   0.00000  Uiso   1.00
Zn10   Zn    0.50000   0.93503   0.29947   0.00000  Uiso   1.00
Zn11   Zn    0.50000   0.06497   0.70053   0.00000  Uiso   1.00
Zn12   Zn    0.93503   0.50000   0.29947   0.00000  Uiso   1.00
Zn13   Zn    0.06497   0.50000   0.70053   0.00000  Uiso   1.00
Zn14   Zn    0.50000   0.06497   0.29947   0.00000  Uiso   1.00
Zn15   Zn    0.50000   0.93503   0.70053   0.00000  Uiso   1.00
Zn16   Zn    0.56497   0.00000   0.79947   0.00000  Uiso   1.00
loop_
_geom_bond_atom_site_label_1
_geom_bond_atom_site_label_2
_geom_bond_distance
_geom_bond_site_symmetry_2
_ccdc_geom_bond_type
C1     C233    1.405   .     A
C1     C262    1.404   .     A
C1     C24     1.471   .     S
C2     C254    1.405   .     A
C2     C212    1.479   .     S
C2     C243    1.411   .     A
C3     O7      1.385   .     S
C3     C27     1.415   .     A
C3     C254    1.398   .     A
C4     O8      1.385   .     S
C4     C32     1.413   .     A
C4     C255    1.401   .     A
C5     C33     1.413   .     A
C5     C257    1.402   .     A
C5     O9      1.382   .     S
C6     C30     1.411   .     A
C6     O10     1.385   .     S
C6     C258    1.403   .     A
C7     C259    1.404   .     A
C7     O11     1.384   .     S
C7     C31     1.410   .     A
C8     C19     1.413   .     A
C8     C260    1.403   .     A
C8     O12     1.384   .     S
C9     C20     1.416   .     A
C9     O14     1.386   .     S
C9     C261    1.400   .     A
C10    C262    1.404   .     A
C10    C17     1.413   .     A
C10    O15     1.384   .     S
C11    O16     1.385   .     S
C11    C18     1.416   .     A
C11    C263    1.400   .     A
C12    C264    1.398   .     A
C12    O17     1.381   .     S
C12    C23     1.409   .     A
C13    C112    1.471   .     S
C13    C251    1.406   .     A
C13    C244    1.406   .     A
C14    O18     1.384   .     S
C14    C265    1.400   .     A
C14    C25     1.413   .     A
C15    O19     1.383   .     S
C15    C266    1.402   .     A
C15    C21     1.403   .     A
C16    O20     1.384   .     S
C16    C22     1.415   .     A
C16    C268    1.404   .     A
C17    C269    1.413   .     A
C17    C226    1.477   .     S
C18    C225    1.478   .     S
C18    C270    1.416   .     A
C19    C271    1.409   .     A
C19    C232    1.478   .     S
C20    C231    1.475   .     S
C20    C272    1.413   .     A
C21    C230    1.457   .     S
C21    C273    1.403   .     A
C22    C229    1.479   .     S
C22    C274    1.415   .     A
C23    C275    1.413   .     A
C23    C228    1.478   .     S
C24    C252    1.405   .     A
C24    C246    1.405   .     A
C25    C276    1.416   .     A
C25    C227    1.475   .     S
C26    C277    1.411   .     A
C26    C217    1.478   .     S
C26    C288    1.413   .     A
C27    C279    1.410   .     A
C27    C216    1.475   .     S
C28    C286    1.412   .     A
C28    C224    1.473   .     S
C28    C280    1.412   .     A
C29    C222    1.473   .     S
C29    C281    1.412   .     A
C29    C287    1.412   .     A
C30    C282    1.413   .     A
C30    C221    1.478   .     S
C31    C283    1.415   .     A
C31    C220    1.475   .     S
C32    C284    1.413   .     A
C32    C219    1.469   .     S
C33    C218    1.482   .     S
C33    C285    1.413   .     A
C34    O66     1.413   .     S
C34    C36     1.522   .     S
C34    H1      1.113   .     S
C34    H112    1.112   .     S
C35    C267    1.479   .     S
C35    C258    1.412   .     A
C35    C247    1.405   .     A
C36    H319    1.109   .     S
C36    H223    1.110   .     S
C36    H330    1.110   .     S
C37    C38     1.522   .     S
C37    O67     1.410   .     S
C37    H352    1.114   .     S
C37    H341    1.110   .     S
C38    H374    1.110   .     S
C38    H2      1.109   .     S
C38    H363    1.110   .     S
C39    C40     1.512   .     S
C39    H24     1.113   .     S
C39    O68     1.411   .     S
C39    H13     1.116   .     S
C40    H46     1.109   .     S
C40    H35     1.110   .     S
C40    H57     1.111   .     S
C41    H79     1.115   .     S
C41    H68     1.115   .     S
C41    C42     1.521   .     S
C41    O69     1.411   .     S
C42    H101    1.110   .     S
C42    H90     1.111   .     S
C42    H113    1.109   .     S
C43    O70     1.409   .     S
C43    C44     1.520   .     S
C43    H124    1.112   .     S
C43    H135    1.115   .     S
C44    H157    1.110   .     S
C44    H146    1.111   .     S
C44    H168    1.111   .     S
C45    C47     1.520   .     S
C45    H179    1.114   .     S
C45    H190    1.110   .     S
C45    O71     1.415   .     S
C46    C248    1.405   .     A
C46    C256    1.479   .     S
C46    C259    1.411   .     A
C47    H212    1.110   .     S
C47    H224    1.111   .     S
C47    H201    1.110   .     S
C48    H246    1.119   .     S
C48    H235    1.111   .     S
C48    C49     1.518   .     S
C48    O72     1.416   .     S
C49    H257    1.110   .     S
C49    H268    1.109   .     S
C49    H279    1.111   .     S
C50    C51     1.521   .     S
C50    H290    1.111   .     S
C50    O74     1.414   .     S
C50    H301    1.117   .     S
C51    H320    1.110   .     S
C51    H318    1.110   .     S
C51    H312    1.111   .     S
C52    C53     1.525   .     S
C52    O75     1.415   .     S
C52    H321    1.110   .     S
C52    H322    1.114   .     S
C53    H325    1.109   .     S
C53    H323    1.110   .     S
C53    H324    1.110   .     S
C54    H327    1.118   .     S
C54    C55     1.521   .     S
C54    O76     1.414   .     S
C54    H326    1.111   .     S
C55    H328    1.111   .     S
C55    H331    1.110   .     S
C55    H329    1.110   .     S
C56    C58     1.522   .     S
C56    H332    1.111   .     S
C56    H333    1.111   .     S
C56    O77     1.411   .     S
C57    C249    1.405   .     A
C57    C255    1.405   .     A
C57    C245    1.473   .     S
C58    H336    1.110   .     S
C58    H334    1.111   .     S
C58    H335    1.111   .     S
C59    C60     1.520   .     S
C59    O78     1.411   .     S
C59    H338    1.114   .     S
C59    H337    1.114   .     S
C60    H342    1.109   .     S
C60    H339    1.110   .     S
C60    H340    1.110   .     S
C61    H344    1.117   .     S
C61    O79     1.416   .     S
C61    C62     1.523   .     S
C61    H343    1.110   .     S
C62    H346    1.108   .     S
C62    H347    1.110   .     S
C62    H345    1.107   .     S
C63    H349    1.114   .     S
C63    H348    1.115   .     S
C63    C64     1.520   .     S
C63    O80     1.409   .     S
C64    H351    1.110   .     S
C64    H350    1.111   .     S
C64    H353    1.111   .     S
C65    H354    1.112   .     S
C65    H355    1.115   .     S
C65    O81     1.412   .     S
C65    C66     1.519   .     S
C66    H358    1.111   .     S
C66    H356    1.110   .     S
C66    H357    1.110   .     S
C67    C69     1.521   .     S
C67    H360    1.114   .     S
C67    O82     1.410   .     S
C67    H359    1.111   .     S
C68    C250    1.411   .     A
C68    C257    1.411   .     A
C68    C234    1.480   .     S
C69    H361    1.111   .     S
C69    H362    1.110   .     S
C69    H364    1.111   .     S
C70    O83     1.411   .     S
C70    H365    1.111   .     S
C70    C71     1.522   .     S
C70    H366    1.111   .     S
C71    H367    1.111   .     S
C71    H369    1.110   .     S
C71    H368    1.111   .     S
C72    C73     1.520   .     S
C72    H371    1.114   .     S
C72    O85     1.411   .     S
C72    H370    1.114   .     S
C73    H373    1.110   .     S
C73    H375    1.109   .     S
C73    H372    1.110   .     S
C74    H376    1.110   .     S
C74    H377    1.117   .     S
C74    O86     1.416   .     S
C74    C75     1.523   .     S
C75    H380    1.110   .     S
C75    H378    1.107   .     S
C75    H379    1.108   .     S
C76    O87     1.409   .     S
C76    H381    1.115   .     S
C76    C77     1.520   .     S
C76    H382    1.114   .     S
C77    H383    1.111   .     S
C77    H384    1.110   .     S
C77    H3      1.111   .     S
C78    H5      1.115   .     S
C78    O88     1.412   .     S
C78    H4      1.112   .     S
C78    C80     1.519   .     S
C79    C215    1.420   .     S
C79    C90     1.197   1_655 S
C80    H8      1.111   .     S
C80    H7      1.110   .     S
C80    H6      1.110   .     S
C81    O89     1.410   .     S
C81    H10     1.114   .     S
C81    C82     1.521   .     S
C81    H9      1.111   .     S
C82    H12     1.110   .     S
C82    H14     1.111   .     S
C82    H11     1.111   .     S
C83    H15     1.110   .     S
C83    H16     1.114   .     S
C83    C84     1.525   .     S
C83    O90     1.415   .     S
C84    H17     1.110   .     S
C84    H19     1.109   .     S
C84    H18     1.110   .     S
C85    C86     1.521   .     S
C85    H21     1.118   .     S
C85    H20     1.111   .     S
C85    O91     1.414   .     S
C86    H23     1.110   .     S
C86    H25     1.110   .     S
C86    H22     1.111   .     S
C87    H27     1.119   .     S
C87    C88     1.518   .     S
C87    O92     1.416   .     S
C87    H26     1.111   .     S
C88    H30     1.111   .     S
C88    H28     1.110   .     S
C88    H29     1.109   .     S
C89    H32     1.117   .     S
C89    C91     1.521   .     S
C89    O93     1.414   .     S
C89    H31     1.111   .     S
C90    C214    1.420   .     S
C90    C79     1.197   1_455 S
C91    H36     1.110   .     S
C91    H34     1.110   .     S
C91    H33     1.111   .     S
C92    H37     1.113   .     S
C92    C93     1.522   .     S
C92    O94     1.413   .     S
C92    H38     1.112   .     S
C93    H39     1.110   .     S
C93    H41     1.110   .     S
C93    H40     1.109   .     S
C94    C95     1.522   .     S
C94    H42     1.110   .     S
C94    O96     1.410   .     S
C94    H43     1.114   .     S
C95    H44     1.110   .     S
C95    H47     1.109   .     S
C95    H45     1.110   .     S
C96    H49     1.113   .     S
C96    O97     1.411   .     S
C96    H48     1.116   .     S
C96    C97     1.512   .     S
C97    H51     1.109   .     S
C97    H50     1.110   .     S
C97    H52     1.111   .     S
C98    H53     1.115   .     S
C98    C99     1.520   .     S
C98    H54     1.115   .     S
C98    O98     1.411   .     S
C99    H55     1.111   .     S
C99    H58     1.109   .     S
C99    H56     1.110   .     S
C100   H60     1.115   .     S
C100   O99     1.409   .     S
C100   H59     1.112   .     S
C100   C102    1.520   .     S
C101   C113    1.197   .     T
C101   C213    1.420   .     S
C102   H62     1.110   .     S
C102   H63     1.111   .     S
C102   H61     1.111   .     S
C103   O100    1.415   .     S
C103   H65     1.110   .     S
C103   C104    1.520   .     S
C103   H64     1.114   .     S
C104   H69     1.111   .     S
C104   H67     1.110   .     S
C104   H66     1.110   .     S
C105   H70     1.111   .     S
C105   C106    1.528   .     S
C105   H71     1.118   .     S
C105   O101    1.419   .     S
C106   C107    1.526   .     S
C106   H72     1.109   .     S
C106   H73     1.109   .     S
C107   H75     1.110   .     S
C107   H74     1.110   .     S
C107   H76     1.110   1_455 S
C108   H77     1.111   .     S
C108   C109    1.532   .     S
C108   H78     1.119   .     S
C108   O102    1.421   .     S
C109   H81     1.109   .     S
C109   H80     1.110   .     S
C109   C110    1.525   .     S
C110   H84     1.109   .     S
C110   H82     1.111   .     S
C110   H83     1.110   .     S
C111   H86     1.121   .     S
C111   O103    1.422   .     S
C111   C114    1.528   .     S
C111   H85     1.105   .     S
C112   C235    1.404   .     A
C112   C263    1.404   .     A
C113   C211    1.420   1_565 S
C114   C115    1.527   .     S
C114   H88     1.110   .     S
C114   H87     1.110   .     S
C115   H91     1.110   .     S
C115   H89     1.110   .     S
C115   H92     1.109   1_565 S
C116   H93     1.110   .     S
C116   O104    1.420   .     S
C116   H94     1.118   .     S
C116   C117    1.532   .     S
C117   H95     1.111   .     S
C117   H96     1.108   .     S
C117   C118    1.526   .     S
C118   H98     1.110   .     S
C118   H99     1.109   .     S
C118   H97     1.109   .     S
C119   H100    1.116   .     S
C119   O105    1.412   .     S
C119   C120    1.528   .     S
C119   H102    1.114   .     S
C120   H103    1.112   .     S
C120   C121    1.525   .     S
C120   H104    1.112   .     S
C121   H107    1.111   .     S
C121   H105    1.110   1_554 S
C121   H106    1.110   1_554 S
C122   H108    1.115   .     S
C122   H109    1.115   .     S
C122   C123    1.528   .     S
C122   O107    1.414   .     S
C123   H110    1.112   .     S
C123   C125    1.526   .     S
C123   H111    1.110   .     S
C124   C201    1.420   .     S
C124   C135    1.197   1_556 S
C125   H116    1.111   .     S
C125   H114    1.110   1_556 S
C125   H115    1.111   1_556 S
C126   C127    1.528   .     S
C126   H117    1.116   .     S
C126   O108    1.413   .     S
C126   H118    1.113   .     S
C127   H120    1.111   .     S
C127   H119    1.112   .     S
C127   C128    1.526   1_545 S
C128   H123    1.111   .     S
C128   H122    1.110   .     S
C128   C127    1.526   1_565 S
C128   H121    1.111   1_565 S
C129   O109    1.421   .     S
C129   H125    1.111   .     S
C129   C130    1.533   .     S
C129   H126    1.118   .     S
C130   C131    1.527   .     S
C130   H127    1.111   .     S
C130   H128    1.107   .     S
C131   H131    1.109   .     S
C131   H129    1.111   .     S
C131   H130    1.110   .     S
C132   H132    1.112   .     S
C132   H133    1.117   .     S
C132   O110    1.418   .     S
C132   C133    1.528   .     S
C133   H134    1.110   .     S
C133   C134    1.526   .     S
C133   H136    1.110   .     S
C134   H137    1.111   .     S
C134   H138    1.110   .     S
C134   H139    1.110   1_655 S
C135   C190    1.420   .     S
C135   C124    1.197   1_554 S
C136   H140    1.115   .     S
C136   H141    1.113   .     S
C136   C137    1.528   .     S
C136   O111    1.412   .     S
C137   C138    1.524   1_455 S
C137   H142    1.111   1_455 S
C137   H143    1.112   1_455 S
C138   H145    1.110   .     S
C138   C137    1.524   1_655 S
C138   H144    1.111   1_655 S
C138   H147    1.111   1_655 S
C139   H148    1.111   .     S
C139   C140    1.528   .     S
C139   H149    1.115   .     S
C139   O112    1.419   .     S
C140   C141    1.527   .     S
C140   H150    1.111   .     S
C140   H151    1.110   .     S
C141   H153    1.110   .     S
C141   H152    1.111   .     S
C141   H154    1.109   .     S
C142   H156    1.118   .     S
C142   O113    1.420   .     S
C142   C143    1.532   .     S
C142   H155    1.110   .     S
C143   C144    1.522   .     S
C143   H158    1.108   .     S
C143   H159    1.107   .     S
C144   H162    1.111   .     S
C144   H160    1.109   .     S
C144   H161    1.110   .     S
C145   O114    1.418   .     S
C145   H163    1.107   .     S
C145   C147    1.533   .     S
C145   H164    1.117   .     S
C146   C179    1.420   .     S
C146   C157    1.197   1_556 S
C147   H165    1.110   .     S
C147   C148    1.524   .     S
C147   H166    1.108   .     S
C148   H169    1.111   .     S
C148   H170    1.110   .     S
C148   H167    1.108   1_455 S
C149   H172    1.117   .     S
C149   C150    1.534   .     S
C149   O115    1.421   .     S
C149   H171    1.109   .     S
C150   C151    1.524   .     S
C150   H173    1.109   .     S
C150   H174    1.108   .     S
C151   H175    1.110   .     S
C151   H176    1.110   .     S
C151   H177    1.110   .     S
C152   H180    1.117   .     S
C152   H178    1.111   .     S
C152   C153    1.532   .     S
C152   O116    1.420   .     S
C153   H182    1.106   .     S
C153   H181    1.110   .     S
C153   C154    1.525   .     S
C154   H185    1.108   .     S
C154   H183    1.111   .     S
C154   H184    1.110   .     S
C155   C156    1.526   .     S
C155   H186    1.115   .     S
C155   O3      1.411   .     S
C155   H187    1.115   .     S
C156   C158    1.525   .     S
C156   H189    1.109   .     S
C156   H188    1.110   .     S
C157   C168    1.420   .     S
C157   C146    1.197   1_554 S
C158   H193    1.111   .     S
C158   H191    1.110   1_554 S
C158   H192    1.111   1_554 S
C159   H194    1.111   .     S
C159   O4      1.419   .     S
C159   H195    1.115   .     S
C159   C160    1.528   .     S
C160   H196    1.111   .     S
C160   H197    1.110   .     S
C160   C161    1.527   .     S
C161   H198    1.111   .     S
C161   H200    1.109   .     S
C161   H199    1.110   .     S
C162   H202    1.110   .     S
C162   O5      1.420   .     S
C162   C163    1.532   .     S
C162   H203    1.118   .     S
C163   H204    1.108   .     S
C163   C164    1.522   .     S
C163   H205    1.107   .     S
C164   H206    1.109   .     S
C164   H208    1.111   .     S
C164   H207    1.110   .     S
C165   H210    1.117   .     S
C165   O6      1.418   .     S
C165   H209    1.107   .     S
C165   C166    1.533   .     S
C166   H213    1.108   .     S
C166   C167    1.524   .     S
C166   H211    1.110   .     S
C167   H214    1.111   .     S
C167   H215    1.110   .     S
C167   H216    1.108   .     S
C168   O62     1.279   1_655 S
C168   O106    1.279   1_655 S
C169   H218    1.117   .     S
C169   O7      1.421   .     S
C169   H217    1.109   .     S
C169   C170    1.534   .     S
C170   H220    1.108   .     S
C170   C171    1.524   .     S
C170   H219    1.109   .     S
C171   H222    1.110   .     S
C171   H225    1.110   .     S
C171   H221    1.110   .     S
C172   H226    1.111   .     S
C172   O8      1.420   .     S
C172   H227    1.117   .     S
C172   C173    1.532   .     S
C173   H229    1.106   .     S
C173   C174    1.525   .     S
C173   H228    1.110   .     S
C174   H230    1.111   .     S
C174   H232    1.108   .     S
C174   H231    1.110   .     S
C175   O9      1.411   .     S
C175   C176    1.526   .     S
C175   H233    1.115   .     S
C175   H234    1.115   .     S
C176   C177    1.525   .     S
C176   H236    1.110   .     S
C176   H237    1.109   .     S
C177   H238    1.110   .     S
C177   H240    1.111   .     S
C177   H239    1.111   .     S
C178   H241    1.112   .     S
C178   C180    1.528   .     S
C178   O10     1.418   .     S
C178   H242    1.117   .     S
C179   O2      1.279   1_655 S
C179   O73     1.279   1_655 S
C180   H243    1.110   .     S
C180   H244    1.110   .     S
C180   C181    1.526   .     S
C181   H245    1.111   .     S
C181   H248    1.110   .     S
C181   H247    1.110   .     S
C182   C183    1.528   .     S
C182   H250    1.113   .     S
C182   H249    1.115   .     S
C182   O11     1.412   .     S
C183   H252    1.112   .     S
C183   H251    1.111   .     S
C183   C184    1.524   .     S
C184   H253    1.111   .     S
C184   H255    1.111   .     S
C184   H254    1.110   .     S
C185   H258    1.113   .     S
C185   C186    1.528   .     S
C185   O12     1.413   .     S
C185   H256    1.116   .     S
C186   C187    1.526   .     S
C186   H260    1.111   .     S
C186   H259    1.112   .     S
C187   H263    1.111   .     S
C187   H261    1.111   .     S
C187   H262    1.110   .     S
C188   C189    1.533   .     S
C188   H265    1.118   .     S
C188   H264    1.111   .     S
C188   O14     1.421   .     S
C189   H266    1.111   .     S
C189   C191    1.527   .     S
C189   H267    1.107   .     S
C190   O13     1.279   1_565 S
C190   O84     1.279   1_565 S
C191   H270    1.110   .     S
C191   H271    1.109   .     S
C191   H269    1.111   .     S
C192   O15     1.419   .     S
C192   C193    1.528   .     S
C192   H273    1.118   .     S
C192   H272    1.110   .     S
C193   H274    1.109   .     S
C193   C194    1.526   .     S
C193   H275    1.109   .     S
C194   H276    1.110   .     S
C194   H277    1.110   .     S
C194   H278    1.110   .     S
C195   C196    1.532   .     S
C195   H280    1.111   .     S
C195   H281    1.119   .     S
C195   O16     1.421   .     S
C196   C197    1.525   .     S
C196   H283    1.109   .     S
C196   H282    1.110   .     S
C197   H286    1.109   .     S
C197   H285    1.110   .     S
C197   H284    1.111   .     S
C198   H287    1.105   .     S
C198   H288    1.121   .     S
C198   O17     1.422   .     S
C198   C199    1.528   .     S
C199   H291    1.110   .     S
C199   H289    1.110   .     S
C199   C200    1.527   .     S
C200   H293    1.110   .     S
C200   H294    1.110   .     S
C200   H292    1.109   .     S
C201   O21     1.279   1_565 S
C201   O95     1.279   1_565 S
C202   C203    1.532   .     S
C202   H296    1.118   .     S
C202   H295    1.110   .     S
C202   O18     1.420   .     S
C203   H297    1.111   .     S
C203   C204    1.526   .     S
C203   H298    1.108   .     S
C204   H300    1.110   .     S
C204   H302    1.109   .     S
C204   H299    1.109   .     S
C205   C206    1.528   .     S
C205   H303    1.116   .     S
C205   O19     1.412   .     S
C205   H304    1.114   .     S
C206   C207    1.525   .     S
C206   H306    1.112   .     S
C206   H305    1.112   .     S
C207   H307    1.110   .     S
C207   H309    1.111   .     S
C207   H308    1.110   .     S
C208   H310    1.115   .     S
C208   O20     1.414   .     S
C208   C209    1.528   .     S
C208   H311    1.115   .     S
C209   H313    1.112   .     S
C209   C210    1.526   .     S
C209   H314    1.110   .     S
C210   H316    1.111   .     S
C210   H317    1.111   .     S
C210   H315    1.110   .     S
C211   O26     1.279   .     A
C211   C113    1.420   1_545 S
C211   O22     1.279   1_545 S
C212   C236    1.402   .     A
C212   C260    1.409   .     A
C213   O27     1.279   .     A
C213   O23     1.279   1_565 S
C214   O28     1.279   .     A
C214   O24     1.279   1_455 S
C215   O30     1.279   .     A
C215   O25     1.279   1_655 S
C216   O31     1.283   .     A
C216   O64     1.274   .     A
C217   O32     1.280   .     A
C217   O65     1.279   .     A
C218   O33     1.281   .     A
C218   O61     1.281   .     A
C219   O34     1.278   .     A
C219   O63     1.278   .     A
C220   O35     1.274   .     A
C220   O59     1.283   .     A
C221   O60     1.280   .     A
C221   O36     1.279   .     A
C222   O57     1.280   .     A
C222   O37     1.280   .     A
C223   C278    1.479   .     S
C223   C237    1.408   .     A
C223   C261    1.407   .     A
C224   O58     1.280   .     A
C224   O38     1.280   .     A
C225   O39     1.281   .     A
C225   O55     1.281   .     A
C226   O56     1.281   .     A
C226   O41     1.281   .     A
C227   O53     1.282   .     A
C227   O42     1.277   .     A
C228   O43     1.277   .     A
C228   O54     1.283   .     A
C229   O44     1.280   .     A
C229   O50     1.280   .     A
C230   O52     1.274   .     A
C230   O45     1.274   .     A
C231   O48     1.277   .     A
C231   O46     1.282   .     A
C232   O47     1.283   .     A
C232   O49     1.277   .     A
C233   O66     1.385   .     S
C233   C269    1.404   .     A
C234   C238    1.413   .     A
C234   C266    1.413   .     A
C235   C270    1.400   .     A
C235   O67     1.383   .     S
C236   C271    1.398   .     A
C236   O68     1.382   .     S
C237   O69     1.382   .     S
C237   C272    1.400   .     A
C238   C273    1.403   .     A
C238   O70     1.383   .     S
C239   O71     1.386   .     S
C239   C245    1.405   .     A
C239   C274    1.404   .     A
C240   O72     1.382   .     S
C240   C275    1.403   .     A
C240   C256    1.409   .     A
C241   O74     1.384   .     S
C241   C276    1.400   .     A
C241   C267    1.407   .     A
C242   O75     1.385   .     S
C242   C277    1.403   .     A
C242   C278    1.412   .     A
C243   C279    1.404   .     A
C243   O76     1.383   .     S
C244   O77     1.388   .     S
C244   C280    1.407   .     A
C245   C268    1.405   .     A
C246   C281    1.401   .     A
C246   O78     1.384   .     S
C247   O79     1.386   .     S
C247   C282    1.400   .     A
C248   C283    1.398   .     A
C248   O80     1.382   .     S
C249   C284    1.401   .     A
C249   O81     1.383   .     S
C250   C285    1.402   .     A
C250   O82     1.384   .     S
C251   C286    1.407   .     A
C251   O83     1.388   .     S
C252   O85     1.384   .     S
C252   C287    1.401   .     A
C253   C278    1.405   .     A
C253   O86     1.386   .     S
C253   C288    1.400   .     A
C254   O87     1.382   .     S
C255   O88     1.383   .     S
C256   C264    1.402   .     A
C257   O89     1.384   .     S
C258   O90     1.385   .     S
C259   O91     1.383   .     S
C260   O92     1.382   .     S
C261   O93     1.384   .     S
C262   O94     1.385   .     S
C263   O96     1.383   .     S
C264   O97     1.382   .     S
C265   C267    1.408   .     A
C265   O98     1.382   .     S
C266   O99     1.383   .     S
C268   O100    1.386   .     S
C269   O101    1.384   .     S
C270   O102    1.385   .     S
C271   O103    1.381   .     S
C272   O104    1.384   .     S
C273   O105    1.383   .     S
C274   O107    1.383   .     S
C275   O108    1.384   .     S
C276   O109    1.386   .     S
C277   O110    1.385   .     S
C279   O111    1.384   .     S
C280   O112    1.386   .     S
C281   O113    1.382   .     S
C282   O114    1.383   .     S
C283   O115    1.385   .     S
C284   O116    1.385   .     S
C285   O3      1.382   .     S
C286   O4      1.386   .     S
C287   O5      1.382   .     S
C288   O6      1.383   .     S
H76    C107    1.110   1_655 S
H92    C115    1.109   1_545 S
H105   C121    1.110   1_556 S
H106   C121    1.110   1_556 S
H114   C125    1.110   1_554 S
H115   C125    1.111   1_554 S
H121   C128    1.111   1_545 S
H139   C134    1.110   1_455 S
H142   C137    1.111   1_655 S
H143   C137    1.112   1_655 S
H144   C138    1.111   1_455 S
H147   C138    1.111   1_455 S
H167   C148    1.108   1_655 S
H191   C158    1.110   1_556 S
H192   C158    1.111   1_556 S
O1     Zn4     1.941   .     S
O1     Zn8     1.943   .     S
O1     Zn1     1.943   .     S
O1     Zn12    1.941   1_455 S
O2     Zn3     1.911   .     S
O2     C179    1.279   1_455 S
O13    C190    1.279   1_545 S
O13    Zn6     1.911   .     S
O21    C201    1.279   1_545 S
O21    Zn5     1.911   .     S
O22    Zn15    1.910   .     S
O22    C211    1.279   1_565 S
O23    Zn14    1.910   .     S
O23    C213    1.279   1_545 S
O24    Zn9     1.910   .     S
O24    C214    1.279   1_655 S
O25    Zn1     1.910   .     S
O25    C215    1.279   1_455 S
O26    Zn11    1.911   .     S
O27    Zn10    1.911   .     S
O28    Zn13    1.911   .     S
O29    Zn3     1.941   .     S
O29    Zn13    1.941   .     S
O29    Zn7     1.943   .     S
O29    Zn9     1.943   1_455 S
O30    Zn12    1.911   .     S
O31    Zn4     1.944   .     S
O32    Zn3     1.944   1_655 S
O33    Zn6     1.940   1_565 S
O34    Zn5     1.940   .     S
O35    Zn8     1.943   1_655 S
O36    Zn7     1.943   .     S
O37    Zn2     1.940   .     S
O38    Zn16    1.940   1_565 S
O39    Zn7     1.940   1_655 S
O40    Zn14    1.943   .     S
O40    Zn2     1.943   .     S
O40    Zn6     1.941   .     S
O40    Zn10    1.941   1_545 S
O41    Zn8     1.940   .     S
O42    Zn5     1.944   1_565 S
O43    Zn6     1.944   .     S
O44    Zn3     1.940   .     S
O45    Zn4     1.940   1_655 S
O46    Zn16    1.943   .     S
O47    Zn2     1.943   1_565 S
O48    Zn11    1.944   .     S
O49    Zn10    1.944   .     S
O50    Zn13    1.940   .     S
O51    Zn11    1.941   .     S
O51    Zn5     1.941   .     S
O51    Zn15    1.943   1_545 S
O51    Zn16    1.943   .     S
O52    Zn12    1.940   .     S
O53    Zn15    1.943   .     S
O54    Zn14    1.943   .     S
O55    Zn9     1.940   .     S
O56    Zn1     1.940   .     S
O57    Zn14    1.940   .     S
O58    Zn15    1.940   .     S
O59    Zn12    1.944   .     S
O60    Zn13    1.944   .     S
O61    Zn10    1.940   .     S
O62    Zn8     1.910   .     S
O62    C168    1.279   1_455 S
O63    Zn11    1.940   .     S
O64    Zn1     1.943   .     S
O65    Zn9     1.943   .     S
O73    Zn7     1.910   .     S
O73    C179    1.279   1_455 S
O84    C190    1.279   1_545 S
O84    Zn2     1.910   .     S
O95    C201    1.279   1_545 S
O95    Zn16    1.910   .     S
O106   Zn4     1.911   .     S
O106   C168    1.279   1_455 S
Zn2    O47     1.943   1_545 S
Zn3    O32     1.944   1_455 S
Zn4    O45     1.940   1_455 S
Zn5    O42     1.944   1_545 S
Zn6    O33     1.940   1_545 S
Zn7    O39     1.940   1_455 S
Zn8    O35     1.943   1_455 S
Zn9    O29     1.943   1_655 S
Zn10   O40     1.941   1_565 S
Zn12   O1      1.941   1_655 S
Zn15   O51     1.943   1_565 S
Zn16   O38     1.940   1_545 S
