data_str_m3_o1_o17_pcu_sym.147
_audit_creation_date              2020-01-03
_audit_creation_method            'Materials Studio'
_symmetry_space_group_name_H-M    'P1'
_symmetry_Int_Tables_number       1
_symmetry_cell_setting            triclinic
loop_
_symmetry_equiv_pos_as_xyz
  x,y,z
_cell_length_a                    31.9504
_cell_length_b                    29.5484
_cell_length_c                    29.9393
_cell_angle_alpha                 90.5964
_cell_angle_beta                  90.1309
_cell_angle_gamma                 89.9755
loop_
_atom_site_label
_atom_site_type_symbol
_atom_site_fract_x
_atom_site_fract_y
_atom_site_fract_z
_atom_site_U_iso_or_equiv
_atom_site_adp_type
_atom_site_occupancy
C1     C     0.08679   0.16668   0.24994   0.00000  Uiso   1.00
C2     C     0.24654   0.16666   0.25006   0.00000  Uiso   1.00
C3     C     0.10679   0.11307   0.01952   0.00000  Uiso   1.00
C4     C     0.22654   0.22027   0.48048   0.00000  Uiso   1.00
C5     C     0.02183   0.14239   0.28313   0.00000  Uiso   1.00
C6     C     0.31150   0.19094   0.21687   0.00000  Uiso   1.00
C7     C     0.31173   0.14233   0.28314   0.00000  Uiso   1.00
C8     C     0.02161   0.19100   0.21686   0.00000  Uiso   1.00
C9     C     0.29068   0.16665   0.25004   0.00000  Uiso   1.00
C10    C     0.04265   0.16669   0.24996   0.00000  Uiso   1.00
C11    C     0.19539   0.02422   0.27457   0.00000  Uiso   1.00
C12    C     0.13795   0.30911   0.22543   0.00000  Uiso   1.00
C13    C     0.13793   0.02372   0.22546   0.00000  Uiso   1.00
C14    C     0.19540   0.30961   0.27454   0.00000  Uiso   1.00
C15    C     0.16559   0.16639   0.16352   0.00000  Uiso   1.00
C16    C     0.16774   0.16694   0.33648   0.00000  Uiso   1.00
C17    C     0.19851   0.19399   0.40758   0.00000  Uiso   1.00
C18    C     0.13482   0.13935   0.09242   0.00000  Uiso   1.00
C19    C     0.16893   0.16755   0.38420   0.00000  Uiso   1.00
C20    C     0.16441   0.16578   0.11580   0.00000  Uiso   1.00
C21    C     0.13993   0.14090   0.40600   0.00000  Uiso   1.00
C22    C     0.19340   0.19243   0.09400   0.00000  Uiso   1.00
C23    C     0.13885   0.14058   0.45196   0.00000  Uiso   1.00
C24    C     0.19448   0.19276   0.04804   0.00000  Uiso   1.00
C25    C     0.16758   0.16703   0.47664   0.00000  Uiso   1.00
C26    C     0.16575   0.16630   0.02335   0.00000  Uiso   1.00
C27    C     0.19803   0.19408   0.45461   0.00000  Uiso   1.00
C28    C     0.13530   0.13926   0.04539   0.00000  Uiso   1.00
C29    C     0.10900   0.11411   0.47319   0.00000  Uiso   1.00
C30    C     0.22433   0.21922   0.02681   0.00000  Uiso   1.00
H31    H     0.11762   0.12084   0.38683   0.00000  Uiso   1.00
H32    H     0.21571   0.21250   0.11317   0.00000  Uiso   1.00
H33    H     0.08707   0.09396   0.45369   0.00000  Uiso   1.00
H34    H     0.24626   0.23938   0.04631   0.00000  Uiso   1.00
H35    H     0.21835   0.04256   0.29424   0.00000  Uiso   1.00
H36    H     0.11499   0.29077   0.20576   0.00000  Uiso   1.00
H37    H     0.11491   0.04166   0.20588   0.00000  Uiso   1.00
H38    H     0.21842   0.29168   0.29412   0.00000  Uiso   1.00
N39    N     0.16667   0.28573   0.25000   0.00000  Uiso   1.00
N40    N     0.16667   0.04760   0.25000   0.00000  Uiso   1.00
O41    O     0.10559   0.20487   0.24999   0.00000  Uiso   1.00
O42    O     0.22774   0.12846   0.25001   0.00000  Uiso   1.00
O43    O     0.22774   0.20487   0.25000   0.00000  Uiso   1.00
O44    O     0.10559   0.12846   0.24999   0.00000  Uiso   1.00
O45    O     0.16666   0.20489   0.18392   0.00000  Uiso   1.00
O46    O     0.16667   0.12844   0.31607   0.00000  Uiso   1.00
O47    O     0.16667   0.20489   0.31607   0.00000  Uiso   1.00
O48    O     0.16666   0.12844   0.18392   0.00000  Uiso   1.00
Zn49   Zn    0.16667   0.21771   0.25000   0.00000  Uiso   1.00
Zn50   Zn    0.16667   0.11563   0.25000   0.00000  Uiso   1.00
N51    N     0.22946   0.21938   0.38372   0.00000  Uiso   1.00
H52    H     0.24478   0.19801   0.36100   0.00000  Uiso   1.00
H53    H     0.21472   0.24550   0.36649   0.00000  Uiso   1.00
N54    N     0.10387   0.11396   0.11628   0.00000  Uiso   1.00
H55    H     0.11861   0.08783   0.13350   0.00000  Uiso   1.00
H56    H     0.08855   0.13532   0.13900   0.00000  Uiso   1.00
N57    N     0.07555   0.08504   0.03956   0.00000  Uiso   1.00
H58    H     0.04618   0.09557   0.02819   0.00000  Uiso   1.00
H59    H     0.08026   0.05171   0.02860   0.00000  Uiso   1.00
N60    N     0.25777   0.24830   0.46044   0.00000  Uiso   1.00
H61    H     0.25306   0.28163   0.47140   0.00000  Uiso   1.00
H62    H     0.28715   0.23778   0.47181   0.00000  Uiso   1.00
N63    N     0.04517   0.11911   0.31697   0.00000  Uiso   1.00
H64    H     0.03722   0.08482   0.31589   0.00000  Uiso   1.00
H65    H     0.03711   0.13245   0.34825   0.00000  Uiso   1.00
N66    N     0.28816   0.21422   0.18303   0.00000  Uiso   1.00
H67    H     0.29612   0.24852   0.18411   0.00000  Uiso   1.00
H68    H     0.29622   0.20088   0.15175   0.00000  Uiso   1.00
N69    N     0.28862   0.11877   0.31685   0.00000  Uiso   1.00
H70    H     0.29701   0.13171   0.34822   0.00000  Uiso   1.00
H71    H     0.29654   0.08447   0.31535   0.00000  Uiso   1.00
N72    N     0.04471   0.21457   0.18316   0.00000  Uiso   1.00
H73    H     0.03632   0.20163   0.15178   0.00000  Uiso   1.00
H74    H     0.03680   0.24887   0.18465   0.00000  Uiso   1.00
C75    C     0.42012   0.16668   0.24994   0.00000  Uiso   1.00
C76    C     0.57988   0.16666   0.25006   0.00000  Uiso   1.00
C77    C     0.44012   0.11307   0.01952   0.00000  Uiso   1.00
C78    C     0.55987   0.22027   0.48048   0.00000  Uiso   1.00
C79    C     0.35516   0.14239   0.28313   0.00000  Uiso   1.00
C80    C     0.64484   0.19094   0.21687   0.00000  Uiso   1.00
C81    C     0.64506   0.14233   0.28314   0.00000  Uiso   1.00
C82    C     0.35494   0.19100   0.21686   0.00000  Uiso   1.00
C83    C     0.62401   0.16665   0.25004   0.00000  Uiso   1.00
C84    C     0.37599   0.16669   0.24996   0.00000  Uiso   1.00
C85    C     0.52872   0.02422   0.27457   0.00000  Uiso   1.00
C86    C     0.47128   0.30911   0.22543   0.00000  Uiso   1.00
C87    C     0.47126   0.02372   0.22546   0.00000  Uiso   1.00
C88    C     0.52874   0.30961   0.27454   0.00000  Uiso   1.00
C89    C     0.49892   0.16639   0.16352   0.00000  Uiso   1.00
C90    C     0.50108   0.16694   0.33648   0.00000  Uiso   1.00
C91    C     0.53184   0.19399   0.40758   0.00000  Uiso   1.00
C92    C     0.46816   0.13935   0.09242   0.00000  Uiso   1.00
C93    C     0.50226   0.16755   0.38420   0.00000  Uiso   1.00
C94    C     0.49774   0.16578   0.11580   0.00000  Uiso   1.00
C95    C     0.47326   0.14090   0.40600   0.00000  Uiso   1.00
C96    C     0.52673   0.19243   0.09400   0.00000  Uiso   1.00
C97    C     0.47218   0.14058   0.45196   0.00000  Uiso   1.00
C98    C     0.52782   0.19276   0.04804   0.00000  Uiso   1.00
C99    C     0.50091   0.16703   0.47664   0.00000  Uiso   1.00
C100   C     0.49908   0.16630   0.02335   0.00000  Uiso   1.00
C101   C     0.53137   0.19408   0.45461   0.00000  Uiso   1.00
C102   C     0.46863   0.13926   0.04539   0.00000  Uiso   1.00
C103   C     0.44233   0.11411   0.47319   0.00000  Uiso   1.00
C104   C     0.55766   0.21922   0.02681   0.00000  Uiso   1.00
H105   H     0.45095   0.12084   0.38683   0.00000  Uiso   1.00
H106   H     0.54904   0.21250   0.11317   0.00000  Uiso   1.00
H107   H     0.42041   0.09396   0.45369   0.00000  Uiso   1.00
H108   H     0.57959   0.23938   0.04631   0.00000  Uiso   1.00
H109   H     0.55168   0.04256   0.29424   0.00000  Uiso   1.00
H110   H     0.44832   0.29077   0.20576   0.00000  Uiso   1.00
H111   H     0.44824   0.04166   0.20588   0.00000  Uiso   1.00
H112   H     0.55176   0.29168   0.29412   0.00000  Uiso   1.00
N113   N     0.50000   0.28573   0.25000   0.00000  Uiso   1.00
N114   N     0.50000   0.04760   0.25000   0.00000  Uiso   1.00
O115   O     0.43892   0.20487   0.24999   0.00000  Uiso   1.00
O116   O     0.56108   0.12846   0.25001   0.00000  Uiso   1.00
O117   O     0.56108   0.20487   0.25000   0.00000  Uiso   1.00
O118   O     0.43892   0.12846   0.24999   0.00000  Uiso   1.00
O119   O     0.49999   0.20489   0.18392   0.00000  Uiso   1.00
O120   O     0.50001   0.12844   0.31607   0.00000  Uiso   1.00
O121   O     0.50001   0.20489   0.31607   0.00000  Uiso   1.00
O122   O     0.49999   0.12844   0.18392   0.00000  Uiso   1.00
Zn123  Zn    0.50000   0.21771   0.25000   0.00000  Uiso   1.00
Zn124  Zn    0.50000   0.11563   0.25000   0.00000  Uiso   1.00
N125   N     0.56280   0.21938   0.38372   0.00000  Uiso   1.00
H126   H     0.57811   0.19801   0.36100   0.00000  Uiso   1.00
H127   H     0.54805   0.24550   0.36649   0.00000  Uiso   1.00
N128   N     0.43720   0.11396   0.11628   0.00000  Uiso   1.00
H129   H     0.45195   0.08783   0.13350   0.00000  Uiso   1.00
H130   H     0.42189   0.13532   0.13900   0.00000  Uiso   1.00
N131   N     0.40889   0.08504   0.03956   0.00000  Uiso   1.00
H132   H     0.37951   0.09557   0.02819   0.00000  Uiso   1.00
H133   H     0.41360   0.05171   0.02860   0.00000  Uiso   1.00
N134   N     0.59110   0.24830   0.46044   0.00000  Uiso   1.00
H135   H     0.58639   0.28163   0.47140   0.00000  Uiso   1.00
H136   H     0.62048   0.23778   0.47181   0.00000  Uiso   1.00
N137   N     0.37851   0.11911   0.31697   0.00000  Uiso   1.00
H138   H     0.37055   0.08482   0.31589   0.00000  Uiso   1.00
H139   H     0.37045   0.13245   0.34825   0.00000  Uiso   1.00
N140   N     0.62149   0.21422   0.18303   0.00000  Uiso   1.00
H141   H     0.62945   0.24852   0.18411   0.00000  Uiso   1.00
H142   H     0.62955   0.20088   0.15175   0.00000  Uiso   1.00
N143   N     0.62196   0.11877   0.31685   0.00000  Uiso   1.00
H144   H     0.63034   0.13171   0.34822   0.00000  Uiso   1.00
H145   H     0.62987   0.08447   0.31535   0.00000  Uiso   1.00
N146   N     0.37804   0.21457   0.18316   0.00000  Uiso   1.00
H147   H     0.36966   0.20163   0.15178   0.00000  Uiso   1.00
H148   H     0.37013   0.24887   0.18465   0.00000  Uiso   1.00
C149   C     0.75346   0.16668   0.24994   0.00000  Uiso   1.00
C150   C     0.91321   0.16666   0.25006   0.00000  Uiso   1.00
C151   C     0.77346   0.11307   0.01952   0.00000  Uiso   1.00
C152   C     0.89321   0.22027   0.48048   0.00000  Uiso   1.00
C153   C     0.68850   0.14239   0.28313   0.00000  Uiso   1.00
C154   C     0.97817   0.19094   0.21687   0.00000  Uiso   1.00
C155   C     0.97839   0.14233   0.28314   0.00000  Uiso   1.00
C156   C     0.68827   0.19100   0.21686   0.00000  Uiso   1.00
C157   C     0.95735   0.16665   0.25004   0.00000  Uiso   1.00
C158   C     0.70932   0.16669   0.24996   0.00000  Uiso   1.00
C159   C     0.86205   0.02422   0.27457   0.00000  Uiso   1.00
C160   C     0.80461   0.30911   0.22543   0.00000  Uiso   1.00
C161   C     0.80460   0.02372   0.22546   0.00000  Uiso   1.00
C162   C     0.86207   0.30961   0.27454   0.00000  Uiso   1.00
C163   C     0.83226   0.16639   0.16352   0.00000  Uiso   1.00
C164   C     0.83441   0.16694   0.33648   0.00000  Uiso   1.00
C165   C     0.86518   0.19399   0.40758   0.00000  Uiso   1.00
C166   C     0.80149   0.13935   0.09242   0.00000  Uiso   1.00
C167   C     0.83559   0.16755   0.38420   0.00000  Uiso   1.00
C168   C     0.83107   0.16578   0.11580   0.00000  Uiso   1.00
C169   C     0.80660   0.14090   0.40600   0.00000  Uiso   1.00
C170   C     0.86007   0.19243   0.09400   0.00000  Uiso   1.00
C171   C     0.80551   0.14058   0.45196   0.00000  Uiso   1.00
C172   C     0.86115   0.19276   0.04804   0.00000  Uiso   1.00
C173   C     0.83425   0.16703   0.47664   0.00000  Uiso   1.00
C174   C     0.83242   0.16630   0.02335   0.00000  Uiso   1.00
C175   C     0.86470   0.19408   0.45461   0.00000  Uiso   1.00
C176   C     0.80196   0.13926   0.04539   0.00000  Uiso   1.00
C177   C     0.77567   0.11411   0.47319   0.00000  Uiso   1.00
C178   C     0.89099   0.21922   0.02681   0.00000  Uiso   1.00
H179   H     0.78429   0.12084   0.38683   0.00000  Uiso   1.00
H180   H     0.88238   0.21250   0.11317   0.00000  Uiso   1.00
H181   H     0.75374   0.09396   0.45369   0.00000  Uiso   1.00
H182   H     0.91292   0.23938   0.04631   0.00000  Uiso   1.00
H183   H     0.88501   0.04256   0.29424   0.00000  Uiso   1.00
H184   H     0.78165   0.29077   0.20576   0.00000  Uiso   1.00
H185   H     0.78158   0.04166   0.20588   0.00000  Uiso   1.00
H186   H     0.88509   0.29168   0.29412   0.00000  Uiso   1.00
N187   N     0.83333   0.28573   0.25000   0.00000  Uiso   1.00
N188   N     0.83333   0.04760   0.25000   0.00000  Uiso   1.00
O189   O     0.77226   0.20487   0.24999   0.00000  Uiso   1.00
O190   O     0.89441   0.12846   0.25001   0.00000  Uiso   1.00
O191   O     0.89441   0.20487   0.25000   0.00000  Uiso   1.00
O192   O     0.77226   0.12846   0.24999   0.00000  Uiso   1.00
O193   O     0.83333   0.20489   0.18392   0.00000  Uiso   1.00
O194   O     0.83334   0.12844   0.31607   0.00000  Uiso   1.00
O195   O     0.83334   0.20489   0.31607   0.00000  Uiso   1.00
O196   O     0.83333   0.12844   0.18392   0.00000  Uiso   1.00
Zn197  Zn    0.83333   0.21771   0.25000   0.00000  Uiso   1.00
Zn198  Zn    0.83333   0.11563   0.25000   0.00000  Uiso   1.00
N199   N     0.89613   0.21938   0.38372   0.00000  Uiso   1.00
H200   H     0.91145   0.19801   0.36100   0.00000  Uiso   1.00
H201   H     0.88139   0.24550   0.36649   0.00000  Uiso   1.00
N202   N     0.77054   0.11396   0.11628   0.00000  Uiso   1.00
H203   H     0.78528   0.08783   0.13350   0.00000  Uiso   1.00
H204   H     0.75522   0.13532   0.13900   0.00000  Uiso   1.00
N205   N     0.74222   0.08504   0.03956   0.00000  Uiso   1.00
H206   H     0.71285   0.09557   0.02819   0.00000  Uiso   1.00
H207   H     0.74693   0.05171   0.02860   0.00000  Uiso   1.00
N208   N     0.92444   0.24830   0.46044   0.00000  Uiso   1.00
H209   H     0.91972   0.28163   0.47140   0.00000  Uiso   1.00
H210   H     0.95381   0.23778   0.47181   0.00000  Uiso   1.00
N211   N     0.71184   0.11911   0.31697   0.00000  Uiso   1.00
H212   H     0.70388   0.08482   0.31589   0.00000  Uiso   1.00
H213   H     0.70378   0.13245   0.34825   0.00000  Uiso   1.00
N214   N     0.95483   0.21422   0.18303   0.00000  Uiso   1.00
H215   H     0.96278   0.24852   0.18411   0.00000  Uiso   1.00
H216   H     0.96289   0.20088   0.15175   0.00000  Uiso   1.00
N217   N     0.95529   0.11877   0.31685   0.00000  Uiso   1.00
H218   H     0.96368   0.13171   0.34822   0.00000  Uiso   1.00
H219   H     0.96320   0.08447   0.31535   0.00000  Uiso   1.00
N220   N     0.71138   0.21457   0.18316   0.00000  Uiso   1.00
H221   H     0.70299   0.20163   0.15178   0.00000  Uiso   1.00
H222   H     0.70346   0.24887   0.18465   0.00000  Uiso   1.00
C223   C     0.08679   0.50001   0.24994   0.00000  Uiso   1.00
C224   C     0.24654   0.49999   0.25006   0.00000  Uiso   1.00
C225   C     0.10679   0.44640   0.01952   0.00000  Uiso   1.00
C226   C     0.22654   0.55361   0.48048   0.00000  Uiso   1.00
C227   C     0.02183   0.47573   0.28313   0.00000  Uiso   1.00
C228   C     0.31150   0.52427   0.21687   0.00000  Uiso   1.00
C229   C     0.31173   0.47567   0.28314   0.00000  Uiso   1.00
C230   C     0.02161   0.52433   0.21686   0.00000  Uiso   1.00
C231   C     0.29068   0.49998   0.25004   0.00000  Uiso   1.00
C232   C     0.04265   0.50002   0.24996   0.00000  Uiso   1.00
C233   C     0.19539   0.35755   0.27457   0.00000  Uiso   1.00
C234   C     0.13795   0.64245   0.22543   0.00000  Uiso   1.00
C235   C     0.13793   0.35706   0.22546   0.00000  Uiso   1.00
C236   C     0.19540   0.64294   0.27454   0.00000  Uiso   1.00
C237   C     0.16559   0.49973   0.16352   0.00000  Uiso   1.00
C238   C     0.16774   0.50027   0.33648   0.00000  Uiso   1.00
C239   C     0.19851   0.52732   0.40758   0.00000  Uiso   1.00
C240   C     0.13482   0.47268   0.09242   0.00000  Uiso   1.00
C241   C     0.16893   0.50089   0.38420   0.00000  Uiso   1.00
C242   C     0.16441   0.49911   0.11580   0.00000  Uiso   1.00
C243   C     0.13993   0.47424   0.40600   0.00000  Uiso   1.00
C244   C     0.19340   0.52576   0.09400   0.00000  Uiso   1.00
C245   C     0.13885   0.47391   0.45196   0.00000  Uiso   1.00
C246   C     0.19448   0.52609   0.04804   0.00000  Uiso   1.00
C247   C     0.16758   0.50037   0.47664   0.00000  Uiso   1.00
C248   C     0.16575   0.49964   0.02335   0.00000  Uiso   1.00
C249   C     0.19803   0.52741   0.45461   0.00000  Uiso   1.00
C250   C     0.13530   0.47259   0.04539   0.00000  Uiso   1.00
C251   C     0.10900   0.44745   0.47319   0.00000  Uiso   1.00
C252   C     0.22433   0.55256   0.02681   0.00000  Uiso   1.00
H253   H     0.11762   0.45417   0.38683   0.00000  Uiso   1.00
H254   H     0.21571   0.54583   0.11317   0.00000  Uiso   1.00
H255   H     0.08707   0.42730   0.45369   0.00000  Uiso   1.00
H256   H     0.24626   0.57271   0.04631   0.00000  Uiso   1.00
H257   H     0.21835   0.37589   0.29424   0.00000  Uiso   1.00
H258   H     0.11499   0.62411   0.20576   0.00000  Uiso   1.00
H259   H     0.11491   0.37499   0.20588   0.00000  Uiso   1.00
H260   H     0.21842   0.62501   0.29412   0.00000  Uiso   1.00
N261   N     0.16667   0.61907   0.25000   0.00000  Uiso   1.00
N262   N     0.16667   0.38093   0.25000   0.00000  Uiso   1.00
O263   O     0.10559   0.53821   0.24999   0.00000  Uiso   1.00
O264   O     0.22774   0.46179   0.25001   0.00000  Uiso   1.00
O265   O     0.22774   0.53821   0.25000   0.00000  Uiso   1.00
O266   O     0.10559   0.46179   0.24999   0.00000  Uiso   1.00
O267   O     0.16666   0.53823   0.18392   0.00000  Uiso   1.00
O268   O     0.16667   0.46177   0.31607   0.00000  Uiso   1.00
O269   O     0.16667   0.53823   0.31607   0.00000  Uiso   1.00
O270   O     0.16666   0.46177   0.18392   0.00000  Uiso   1.00
Zn271  Zn    0.16667   0.55104   0.25000   0.00000  Uiso   1.00
Zn272  Zn    0.16667   0.44896   0.25000   0.00000  Uiso   1.00
N273   N     0.22946   0.55271   0.38372   0.00000  Uiso   1.00
H274   H     0.24478   0.53135   0.36100   0.00000  Uiso   1.00
H275   H     0.21472   0.57884   0.36649   0.00000  Uiso   1.00
N276   N     0.10387   0.44729   0.11628   0.00000  Uiso   1.00
H277   H     0.11861   0.42116   0.13350   0.00000  Uiso   1.00
H278   H     0.08855   0.46865   0.13900   0.00000  Uiso   1.00
N279   N     0.07555   0.41838   0.03956   0.00000  Uiso   1.00
H280   H     0.04618   0.42890   0.02819   0.00000  Uiso   1.00
H281   H     0.08026   0.38505   0.02860   0.00000  Uiso   1.00
N282   N     0.25777   0.58163   0.46044   0.00000  Uiso   1.00
H283   H     0.25306   0.61496   0.47140   0.00000  Uiso   1.00
H284   H     0.28715   0.57112   0.47181   0.00000  Uiso   1.00
N285   N     0.04517   0.45245   0.31697   0.00000  Uiso   1.00
H286   H     0.03722   0.41815   0.31589   0.00000  Uiso   1.00
H287   H     0.03711   0.46579   0.34825   0.00000  Uiso   1.00
N288   N     0.28816   0.54755   0.18303   0.00000  Uiso   1.00
H289   H     0.29612   0.58185   0.18411   0.00000  Uiso   1.00
H290   H     0.29622   0.53421   0.15175   0.00000  Uiso   1.00
N291   N     0.28862   0.45210   0.31685   0.00000  Uiso   1.00
H292   H     0.29701   0.46504   0.34822   0.00000  Uiso   1.00
H293   H     0.29654   0.41780   0.31535   0.00000  Uiso   1.00
N294   N     0.04471   0.54790   0.18316   0.00000  Uiso   1.00
H295   H     0.03632   0.53496   0.15178   0.00000  Uiso   1.00
H296   H     0.03680   0.58220   0.18465   0.00000  Uiso   1.00
C297   C     0.42012   0.50001   0.24994   0.00000  Uiso   1.00
C298   C     0.57988   0.49999   0.25006   0.00000  Uiso   1.00
C299   C     0.44012   0.44640   0.01952   0.00000  Uiso   1.00
C300   C     0.55987   0.55361   0.48048   0.00000  Uiso   1.00
C301   C     0.35516   0.47573   0.28313   0.00000  Uiso   1.00
C302   C     0.64484   0.52427   0.21687   0.00000  Uiso   1.00
C303   C     0.64506   0.47567   0.28314   0.00000  Uiso   1.00
C304   C     0.35494   0.52433   0.21686   0.00000  Uiso   1.00
C305   C     0.62401   0.49998   0.25004   0.00000  Uiso   1.00
C306   C     0.37599   0.50002   0.24996   0.00000  Uiso   1.00
C307   C     0.52872   0.35755   0.27457   0.00000  Uiso   1.00
C308   C     0.47128   0.64245   0.22543   0.00000  Uiso   1.00
C309   C     0.47126   0.35706   0.22546   0.00000  Uiso   1.00
C310   C     0.52874   0.64294   0.27454   0.00000  Uiso   1.00
C311   C     0.49892   0.49973   0.16352   0.00000  Uiso   1.00
C312   C     0.50108   0.50027   0.33648   0.00000  Uiso   1.00
C313   C     0.53184   0.52732   0.40758   0.00000  Uiso   1.00
C314   C     0.46816   0.47268   0.09242   0.00000  Uiso   1.00
C315   C     0.50226   0.50089   0.38420   0.00000  Uiso   1.00
C316   C     0.49774   0.49911   0.11580   0.00000  Uiso   1.00
C317   C     0.47326   0.47424   0.40600   0.00000  Uiso   1.00
C318   C     0.52673   0.52576   0.09400   0.00000  Uiso   1.00
C319   C     0.47218   0.47391   0.45196   0.00000  Uiso   1.00
C320   C     0.52782   0.52609   0.04804   0.00000  Uiso   1.00
C321   C     0.50091   0.50037   0.47664   0.00000  Uiso   1.00
C322   C     0.49908   0.49964   0.02335   0.00000  Uiso   1.00
C323   C     0.53137   0.52741   0.45461   0.00000  Uiso   1.00
C324   C     0.46863   0.47259   0.04539   0.00000  Uiso   1.00
C325   C     0.44233   0.44745   0.47319   0.00000  Uiso   1.00
C326   C     0.55766   0.55256   0.02681   0.00000  Uiso   1.00
H327   H     0.45095   0.45417   0.38683   0.00000  Uiso   1.00
H328   H     0.54904   0.54583   0.11317   0.00000  Uiso   1.00
H329   H     0.42041   0.42730   0.45369   0.00000  Uiso   1.00
H330   H     0.57959   0.57271   0.04631   0.00000  Uiso   1.00
H331   H     0.55168   0.37589   0.29424   0.00000  Uiso   1.00
H332   H     0.44832   0.62411   0.20576   0.00000  Uiso   1.00
H333   H     0.44824   0.37499   0.20588   0.00000  Uiso   1.00
H334   H     0.55176   0.62501   0.29412   0.00000  Uiso   1.00
N335   N     0.50000   0.61907   0.25000   0.00000  Uiso   1.00
N336   N     0.50000   0.38093   0.25000   0.00000  Uiso   1.00
O337   O     0.43892   0.53821   0.24999   0.00000  Uiso   1.00
O338   O     0.56108   0.46179   0.25001   0.00000  Uiso   1.00
O339   O     0.56108   0.53821   0.25000   0.00000  Uiso   1.00
O340   O     0.43892   0.46179   0.24999   0.00000  Uiso   1.00
O341   O     0.49999   0.53823   0.18392   0.00000  Uiso   1.00
O342   O     0.50001   0.46177   0.31607   0.00000  Uiso   1.00
O343   O     0.50001   0.53823   0.31607   0.00000  Uiso   1.00
O344   O     0.49999   0.46177   0.18392   0.00000  Uiso   1.00
Zn345  Zn    0.50000   0.55104   0.25000   0.00000  Uiso   1.00
Zn346  Zn    0.50000   0.44896   0.25000   0.00000  Uiso   1.00
N347   N     0.56280   0.55271   0.38372   0.00000  Uiso   1.00
H348   H     0.57811   0.53135   0.36100   0.00000  Uiso   1.00
H349   H     0.54805   0.57884   0.36649   0.00000  Uiso   1.00
N350   N     0.43720   0.44729   0.11628   0.00000  Uiso   1.00
H351   H     0.45195   0.42116   0.13350   0.00000  Uiso   1.00
H352   H     0.42189   0.46865   0.13900   0.00000  Uiso   1.00
N353   N     0.40889   0.41838   0.03956   0.00000  Uiso   1.00
H354   H     0.37951   0.42890   0.02819   0.00000  Uiso   1.00
H355   H     0.41360   0.38505   0.02860   0.00000  Uiso   1.00
N356   N     0.59110   0.58163   0.46044   0.00000  Uiso   1.00
H357   H     0.58639   0.61496   0.47140   0.00000  Uiso   1.00
H358   H     0.62048   0.57112   0.47181   0.00000  Uiso   1.00
N359   N     0.37851   0.45245   0.31697   0.00000  Uiso   1.00
H360   H     0.37055   0.41815   0.31589   0.00000  Uiso   1.00
H361   H     0.37045   0.46579   0.34825   0.00000  Uiso   1.00
N362   N     0.62149   0.54755   0.18303   0.00000  Uiso   1.00
H363   H     0.62945   0.58185   0.18411   0.00000  Uiso   1.00
H364   H     0.62955   0.53421   0.15175   0.00000  Uiso   1.00
N365   N     0.62196   0.45210   0.31685   0.00000  Uiso   1.00
H366   H     0.63034   0.46504   0.34822   0.00000  Uiso   1.00
H367   H     0.62987   0.41780   0.31535   0.00000  Uiso   1.00
N368   N     0.37804   0.54790   0.18316   0.00000  Uiso   1.00
H369   H     0.36966   0.53496   0.15178   0.00000  Uiso   1.00
H370   H     0.37013   0.58220   0.18465   0.00000  Uiso   1.00
C371   C     0.75346   0.50001   0.24994   0.00000  Uiso   1.00
C372   C     0.91321   0.49999   0.25006   0.00000  Uiso   1.00
C373   C     0.77346   0.44640   0.01952   0.00000  Uiso   1.00
C374   C     0.89321   0.55361   0.48048   0.00000  Uiso   1.00
C375   C     0.68850   0.47573   0.28313   0.00000  Uiso   1.00
C376   C     0.97817   0.52427   0.21687   0.00000  Uiso   1.00
C377   C     0.97839   0.47567   0.28314   0.00000  Uiso   1.00
C378   C     0.68827   0.52433   0.21686   0.00000  Uiso   1.00
C379   C     0.95735   0.49998   0.25004   0.00000  Uiso   1.00
C380   C     0.70932   0.50002   0.24996   0.00000  Uiso   1.00
C381   C     0.86205   0.35755   0.27457   0.00000  Uiso   1.00
C382   C     0.80461   0.64245   0.22543   0.00000  Uiso   1.00
C383   C     0.80460   0.35706   0.22546   0.00000  Uiso   1.00
C384   C     0.86207   0.64294   0.27454   0.00000  Uiso   1.00
C385   C     0.83226   0.49973   0.16352   0.00000  Uiso   1.00
C386   C     0.83441   0.50027   0.33648   0.00000  Uiso   1.00
C387   C     0.86518   0.52732   0.40758   0.00000  Uiso   1.00
C388   C     0.80149   0.47268   0.09242   0.00000  Uiso   1.00
C389   C     0.83559   0.50089   0.38420   0.00000  Uiso   1.00
C390   C     0.83107   0.49911   0.11580   0.00000  Uiso   1.00
C391   C     0.80660   0.47424   0.40600   0.00000  Uiso   1.00
C392   C     0.86007   0.52576   0.09400   0.00000  Uiso   1.00
C393   C     0.80551   0.47391   0.45196   0.00000  Uiso   1.00
C394   C     0.86115   0.52609   0.04804   0.00000  Uiso   1.00
C395   C     0.83425   0.50037   0.47664   0.00000  Uiso   1.00
C396   C     0.83242   0.49964   0.02335   0.00000  Uiso   1.00
C397   C     0.86470   0.52741   0.45461   0.00000  Uiso   1.00
C398   C     0.80196   0.47259   0.04539   0.00000  Uiso   1.00
C399   C     0.77567   0.44745   0.47319   0.00000  Uiso   1.00
C400   C     0.89099   0.55256   0.02681   0.00000  Uiso   1.00
H401   H     0.78429   0.45417   0.38683   0.00000  Uiso   1.00
H402   H     0.88238   0.54583   0.11317   0.00000  Uiso   1.00
H403   H     0.75374   0.42730   0.45369   0.00000  Uiso   1.00
H404   H     0.91292   0.57271   0.04631   0.00000  Uiso   1.00
H405   H     0.88501   0.37589   0.29424   0.00000  Uiso   1.00
H406   H     0.78165   0.62411   0.20576   0.00000  Uiso   1.00
H407   H     0.78158   0.37499   0.20588   0.00000  Uiso   1.00
H408   H     0.88509   0.62501   0.29412   0.00000  Uiso   1.00
N409   N     0.83333   0.61907   0.25000   0.00000  Uiso   1.00
N410   N     0.83333   0.38093   0.25000   0.00000  Uiso   1.00
O411   O     0.77226   0.53821   0.24999   0.00000  Uiso   1.00
O412   O     0.89441   0.46179   0.25001   0.00000  Uiso   1.00
O413   O     0.89441   0.53821   0.25000   0.00000  Uiso   1.00
O414   O     0.77226   0.46179   0.24999   0.00000  Uiso   1.00
O415   O     0.83333   0.53823   0.18392   0.00000  Uiso   1.00
O416   O     0.83334   0.46177   0.31607   0.00000  Uiso   1.00
O417   O     0.83334   0.53823   0.31607   0.00000  Uiso   1.00
O418   O     0.83333   0.46177   0.18392   0.00000  Uiso   1.00
Zn419  Zn    0.83333   0.55104   0.25000   0.00000  Uiso   1.00
Zn420  Zn    0.83333   0.44896   0.25000   0.00000  Uiso   1.00
N421   N     0.89613   0.55271   0.38372   0.00000  Uiso   1.00
H422   H     0.91145   0.53135   0.36100   0.00000  Uiso   1.00
H423   H     0.88139   0.57884   0.36649   0.00000  Uiso   1.00
N424   N     0.77054   0.44729   0.11628   0.00000  Uiso   1.00
H425   H     0.78528   0.42116   0.13350   0.00000  Uiso   1.00
H426   H     0.75522   0.46865   0.13900   0.00000  Uiso   1.00
N427   N     0.74222   0.41838   0.03956   0.00000  Uiso   1.00
H428   H     0.71285   0.42890   0.02819   0.00000  Uiso   1.00
H429   H     0.74693   0.38505   0.02860   0.00000  Uiso   1.00
N430   N     0.92444   0.58163   0.46044   0.00000  Uiso   1.00
H431   H     0.91972   0.61496   0.47140   0.00000  Uiso   1.00
H432   H     0.95381   0.57112   0.47181   0.00000  Uiso   1.00
N433   N     0.71184   0.45245   0.31697   0.00000  Uiso   1.00
H434   H     0.70388   0.41815   0.31589   0.00000  Uiso   1.00
H435   H     0.70378   0.46579   0.34825   0.00000  Uiso   1.00
N436   N     0.95483   0.54755   0.18303   0.00000  Uiso   1.00
H437   H     0.96278   0.58185   0.18411   0.00000  Uiso   1.00
H438   H     0.96289   0.53421   0.15175   0.00000  Uiso   1.00
N439   N     0.95529   0.45210   0.31685   0.00000  Uiso   1.00
H440   H     0.96368   0.46504   0.34822   0.00000  Uiso   1.00
H441   H     0.96320   0.41780   0.31535   0.00000  Uiso   1.00
N442   N     0.71138   0.54790   0.18316   0.00000  Uiso   1.00
H443   H     0.70299   0.53496   0.15178   0.00000  Uiso   1.00
H444   H     0.70346   0.58220   0.18465   0.00000  Uiso   1.00
C445   C     0.08679   0.83334   0.24994   0.00000  Uiso   1.00
C446   C     0.24654   0.83333   0.25006   0.00000  Uiso   1.00
C447   C     0.10679   0.77973   0.01952   0.00000  Uiso   1.00
C448   C     0.22654   0.88694   0.48048   0.00000  Uiso   1.00
C449   C     0.02183   0.80906   0.28313   0.00000  Uiso   1.00
C450   C     0.31150   0.85761   0.21687   0.00000  Uiso   1.00
C451   C     0.31173   0.80900   0.28314   0.00000  Uiso   1.00
C452   C     0.02161   0.85767   0.21686   0.00000  Uiso   1.00
C453   C     0.29068   0.83331   0.25004   0.00000  Uiso   1.00
C454   C     0.04265   0.83335   0.24996   0.00000  Uiso   1.00
C455   C     0.19539   0.69089   0.27457   0.00000  Uiso   1.00
C456   C     0.13795   0.97578   0.22543   0.00000  Uiso   1.00
C457   C     0.13793   0.69039   0.22546   0.00000  Uiso   1.00
C458   C     0.19540   0.97628   0.27454   0.00000  Uiso   1.00
C459   C     0.16559   0.83306   0.16352   0.00000  Uiso   1.00
C460   C     0.16774   0.83361   0.33648   0.00000  Uiso   1.00
C461   C     0.19851   0.86065   0.40758   0.00000  Uiso   1.00
C462   C     0.13482   0.80601   0.09242   0.00000  Uiso   1.00
C463   C     0.16893   0.83422   0.38420   0.00000  Uiso   1.00
C464   C     0.16441   0.83245   0.11580   0.00000  Uiso   1.00
C465   C     0.13993   0.80757   0.40600   0.00000  Uiso   1.00
C466   C     0.19340   0.85910   0.09400   0.00000  Uiso   1.00
C467   C     0.13885   0.80724   0.45196   0.00000  Uiso   1.00
C468   C     0.19448   0.85942   0.04804   0.00000  Uiso   1.00
C469   C     0.16758   0.83370   0.47664   0.00000  Uiso   1.00
C470   C     0.16575   0.83297   0.02335   0.00000  Uiso   1.00
C471   C     0.19803   0.86074   0.45461   0.00000  Uiso   1.00
C472   C     0.13530   0.80592   0.04539   0.00000  Uiso   1.00
C473   C     0.10900   0.78078   0.47319   0.00000  Uiso   1.00
C474   C     0.22433   0.88589   0.02681   0.00000  Uiso   1.00
H475   H     0.11762   0.78750   0.38683   0.00000  Uiso   1.00
H476   H     0.21571   0.87916   0.11317   0.00000  Uiso   1.00
H477   H     0.08707   0.76063   0.45369   0.00000  Uiso   1.00
H478   H     0.24626   0.90604   0.04631   0.00000  Uiso   1.00
H479   H     0.21835   0.70923   0.29424   0.00000  Uiso   1.00
H480   H     0.11499   0.95744   0.20576   0.00000  Uiso   1.00
H481   H     0.11491   0.70832   0.20588   0.00000  Uiso   1.00
H482   H     0.21842   0.95834   0.29412   0.00000  Uiso   1.00
N483   N     0.16667   0.95240   0.25000   0.00000  Uiso   1.00
N484   N     0.16667   0.71427   0.25000   0.00000  Uiso   1.00
O485   O     0.10559   0.87154   0.24999   0.00000  Uiso   1.00
O486   O     0.22774   0.79513   0.25001   0.00000  Uiso   1.00
O487   O     0.22774   0.87154   0.25000   0.00000  Uiso   1.00
O488   O     0.10559   0.79513   0.24999   0.00000  Uiso   1.00
O489   O     0.16666   0.87156   0.18392   0.00000  Uiso   1.00
O490   O     0.16667   0.79511   0.31607   0.00000  Uiso   1.00
O491   O     0.16667   0.87156   0.31607   0.00000  Uiso   1.00
O492   O     0.16666   0.79511   0.18392   0.00000  Uiso   1.00
Zn493  Zn    0.16667   0.88437   0.25000   0.00000  Uiso   1.00
Zn494  Zn    0.16667   0.78229   0.25000   0.00000  Uiso   1.00
N495   N     0.22946   0.88605   0.38372   0.00000  Uiso   1.00
H496   H     0.24478   0.86468   0.36100   0.00000  Uiso   1.00
H497   H     0.21472   0.91217   0.36649   0.00000  Uiso   1.00
N498   N     0.10387   0.78062   0.11628   0.00000  Uiso   1.00
H499   H     0.11861   0.75450   0.13350   0.00000  Uiso   1.00
H500   H     0.08855   0.80198   0.13900   0.00000  Uiso   1.00
N501   N     0.07555   0.75171   0.03956   0.00000  Uiso   1.00
H502   H     0.04618   0.76223   0.02819   0.00000  Uiso   1.00
H503   H     0.08026   0.71838   0.02860   0.00000  Uiso   1.00
N504   N     0.25777   0.91497   0.46044   0.00000  Uiso   1.00
H505   H     0.25306   0.94830   0.47140   0.00000  Uiso   1.00
H506   H     0.28715   0.90445   0.47181   0.00000  Uiso   1.00
N507   N     0.04517   0.78578   0.31697   0.00000  Uiso   1.00
H508   H     0.03722   0.75148   0.31589   0.00000  Uiso   1.00
H509   H     0.03711   0.79912   0.34825   0.00000  Uiso   1.00
N510   N     0.28816   0.88089   0.18303   0.00000  Uiso   1.00
H511   H     0.29612   0.91518   0.18411   0.00000  Uiso   1.00
H512   H     0.29622   0.86754   0.15175   0.00000  Uiso   1.00
N513   N     0.28862   0.78544   0.31685   0.00000  Uiso   1.00
H514   H     0.29701   0.79837   0.34822   0.00000  Uiso   1.00
H515   H     0.29654   0.75113   0.31535   0.00000  Uiso   1.00
N516   N     0.04471   0.88123   0.18316   0.00000  Uiso   1.00
H517   H     0.03632   0.86830   0.15178   0.00000  Uiso   1.00
H518   H     0.03680   0.91554   0.18465   0.00000  Uiso   1.00
C519   C     0.42012   0.83334   0.24994   0.00000  Uiso   1.00
C520   C     0.57988   0.83333   0.25006   0.00000  Uiso   1.00
C521   C     0.44012   0.77973   0.01952   0.00000  Uiso   1.00
C522   C     0.55987   0.88694   0.48048   0.00000  Uiso   1.00
C523   C     0.35516   0.80906   0.28313   0.00000  Uiso   1.00
C524   C     0.64484   0.85761   0.21687   0.00000  Uiso   1.00
C525   C     0.64506   0.80900   0.28314   0.00000  Uiso   1.00
C526   C     0.35494   0.85767   0.21686   0.00000  Uiso   1.00
C527   C     0.62401   0.83331   0.25004   0.00000  Uiso   1.00
C528   C     0.37599   0.83335   0.24996   0.00000  Uiso   1.00
C529   C     0.52872   0.69089   0.27457   0.00000  Uiso   1.00
C530   C     0.47128   0.97578   0.22543   0.00000  Uiso   1.00
C531   C     0.47126   0.69039   0.22546   0.00000  Uiso   1.00
C532   C     0.52874   0.97628   0.27454   0.00000  Uiso   1.00
C533   C     0.49892   0.83306   0.16352   0.00000  Uiso   1.00
C534   C     0.50108   0.83361   0.33648   0.00000  Uiso   1.00
C535   C     0.53184   0.86065   0.40758   0.00000  Uiso   1.00
C536   C     0.46816   0.80601   0.09242   0.00000  Uiso   1.00
C537   C     0.50226   0.83422   0.38420   0.00000  Uiso   1.00
C538   C     0.49774   0.83245   0.11580   0.00000  Uiso   1.00
C539   C     0.47326   0.80757   0.40600   0.00000  Uiso   1.00
C540   C     0.52673   0.85910   0.09400   0.00000  Uiso   1.00
C541   C     0.47218   0.80724   0.45196   0.00000  Uiso   1.00
C542   C     0.52782   0.85942   0.04804   0.00000  Uiso   1.00
C543   C     0.50091   0.83370   0.47664   0.00000  Uiso   1.00
C544   C     0.49908   0.83297   0.02335   0.00000  Uiso   1.00
C545   C     0.53137   0.86074   0.45461   0.00000  Uiso   1.00
C546   C     0.46863   0.80592   0.04539   0.00000  Uiso   1.00
C547   C     0.44233   0.78078   0.47319   0.00000  Uiso   1.00
C548   C     0.55766   0.88589   0.02681   0.00000  Uiso   1.00
H549   H     0.45095   0.78750   0.38683   0.00000  Uiso   1.00
H550   H     0.54904   0.87916   0.11317   0.00000  Uiso   1.00
H551   H     0.42041   0.76063   0.45369   0.00000  Uiso   1.00
H552   H     0.57959   0.90604   0.04631   0.00000  Uiso   1.00
H553   H     0.55168   0.70923   0.29424   0.00000  Uiso   1.00
H554   H     0.44832   0.95744   0.20576   0.00000  Uiso   1.00
H555   H     0.44824   0.70832   0.20588   0.00000  Uiso   1.00
H556   H     0.55176   0.95834   0.29412   0.00000  Uiso   1.00
N557   N     0.50000   0.95240   0.25000   0.00000  Uiso   1.00
N558   N     0.50000   0.71427   0.25000   0.00000  Uiso   1.00
O559   O     0.43892   0.87154   0.24999   0.00000  Uiso   1.00
O560   O     0.56108   0.79513   0.25001   0.00000  Uiso   1.00
O561   O     0.56108   0.87154   0.25000   0.00000  Uiso   1.00
O562   O     0.43892   0.79513   0.24999   0.00000  Uiso   1.00
O563   O     0.49999   0.87156   0.18392   0.00000  Uiso   1.00
O564   O     0.50001   0.79511   0.31607   0.00000  Uiso   1.00
O565   O     0.50001   0.87156   0.31607   0.00000  Uiso   1.00
O566   O     0.49999   0.79511   0.18392   0.00000  Uiso   1.00
Zn567  Zn    0.50000   0.88437   0.25000   0.00000  Uiso   1.00
Zn568  Zn    0.50000   0.78229   0.25000   0.00000  Uiso   1.00
N569   N     0.56280   0.88605   0.38372   0.00000  Uiso   1.00
H570   H     0.57811   0.86468   0.36100   0.00000  Uiso   1.00
H571   H     0.54805   0.91217   0.36649   0.00000  Uiso   1.00
N572   N     0.43720   0.78062   0.11628   0.00000  Uiso   1.00
H573   H     0.45195   0.75450   0.13350   0.00000  Uiso   1.00
H574   H     0.42189   0.80198   0.13900   0.00000  Uiso   1.00
N575   N     0.40889   0.75171   0.03956   0.00000  Uiso   1.00
H576   H     0.37951   0.76223   0.02819   0.00000  Uiso   1.00
H577   H     0.41360   0.71838   0.02860   0.00000  Uiso   1.00
N578   N     0.59110   0.91497   0.46044   0.00000  Uiso   1.00
H579   H     0.58639   0.94830   0.47140   0.00000  Uiso   1.00
H580   H     0.62048   0.90445   0.47181   0.00000  Uiso   1.00
N581   N     0.37851   0.78578   0.31697   0.00000  Uiso   1.00
H582   H     0.37055   0.75148   0.31589   0.00000  Uiso   1.00
H583   H     0.37045   0.79912   0.34825   0.00000  Uiso   1.00
N584   N     0.62149   0.88089   0.18303   0.00000  Uiso   1.00
H585   H     0.62945   0.91518   0.18411   0.00000  Uiso   1.00
H586   H     0.62955   0.86754   0.15175   0.00000  Uiso   1.00
N587   N     0.62196   0.78544   0.31685   0.00000  Uiso   1.00
H588   H     0.63034   0.79837   0.34822   0.00000  Uiso   1.00
H589   H     0.62987   0.75113   0.31535   0.00000  Uiso   1.00
N590   N     0.37804   0.88123   0.18316   0.00000  Uiso   1.00
H591   H     0.36966   0.86830   0.15178   0.00000  Uiso   1.00
H592   H     0.37013   0.91554   0.18465   0.00000  Uiso   1.00
C593   C     0.75346   0.83334   0.24994   0.00000  Uiso   1.00
C594   C     0.91321   0.83333   0.25006   0.00000  Uiso   1.00
C595   C     0.77346   0.77973   0.01952   0.00000  Uiso   1.00
C596   C     0.89321   0.88694   0.48048   0.00000  Uiso   1.00
C597   C     0.68850   0.80906   0.28313   0.00000  Uiso   1.00
C598   C     0.97817   0.85761   0.21687   0.00000  Uiso   1.00
C599   C     0.97839   0.80900   0.28314   0.00000  Uiso   1.00
C600   C     0.68827   0.85767   0.21686   0.00000  Uiso   1.00
C601   C     0.95735   0.83331   0.25004   0.00000  Uiso   1.00
C602   C     0.70932   0.83335   0.24996   0.00000  Uiso   1.00
C603   C     0.86205   0.69089   0.27457   0.00000  Uiso   1.00
C604   C     0.80461   0.97578   0.22543   0.00000  Uiso   1.00
C605   C     0.80460   0.69039   0.22546   0.00000  Uiso   1.00
C606   C     0.86207   0.97628   0.27454   0.00000  Uiso   1.00
C607   C     0.83226   0.83306   0.16352   0.00000  Uiso   1.00
C608   C     0.83441   0.83361   0.33648   0.00000  Uiso   1.00
C609   C     0.86518   0.86065   0.40758   0.00000  Uiso   1.00
C610   C     0.80149   0.80601   0.09242   0.00000  Uiso   1.00
C611   C     0.83559   0.83422   0.38420   0.00000  Uiso   1.00
C612   C     0.83107   0.83245   0.11580   0.00000  Uiso   1.00
C613   C     0.80660   0.80757   0.40600   0.00000  Uiso   1.00
C614   C     0.86007   0.85910   0.09400   0.00000  Uiso   1.00
C615   C     0.80551   0.80724   0.45196   0.00000  Uiso   1.00
C616   C     0.86115   0.85942   0.04804   0.00000  Uiso   1.00
C617   C     0.83425   0.83370   0.47664   0.00000  Uiso   1.00
C618   C     0.83242   0.83297   0.02335   0.00000  Uiso   1.00
C619   C     0.86470   0.86074   0.45461   0.00000  Uiso   1.00
C620   C     0.80196   0.80592   0.04539   0.00000  Uiso   1.00
C621   C     0.77567   0.78078   0.47319   0.00000  Uiso   1.00
C622   C     0.89099   0.88589   0.02681   0.00000  Uiso   1.00
H623   H     0.78429   0.78750   0.38683   0.00000  Uiso   1.00
H624   H     0.88238   0.87916   0.11317   0.00000  Uiso   1.00
H625   H     0.75374   0.76063   0.45369   0.00000  Uiso   1.00
H626   H     0.91292   0.90604   0.04631   0.00000  Uiso   1.00
H627   H     0.88501   0.70923   0.29424   0.00000  Uiso   1.00
H628   H     0.78165   0.95744   0.20576   0.00000  Uiso   1.00
H629   H     0.78158   0.70832   0.20588   0.00000  Uiso   1.00
H630   H     0.88509   0.95834   0.29412   0.00000  Uiso   1.00
N631   N     0.83333   0.95240   0.25000   0.00000  Uiso   1.00
N632   N     0.83333   0.71427   0.25000   0.00000  Uiso   1.00
O633   O     0.77226   0.87154   0.24999   0.00000  Uiso   1.00
O634   O     0.89441   0.79513   0.25001   0.00000  Uiso   1.00
O635   O     0.89441   0.87154   0.25000   0.00000  Uiso   1.00
O636   O     0.77226   0.79513   0.24999   0.00000  Uiso   1.00
O637   O     0.83333   0.87156   0.18392   0.00000  Uiso   1.00
O638   O     0.83334   0.79511   0.31607   0.00000  Uiso   1.00
O639   O     0.83334   0.87156   0.31607   0.00000  Uiso   1.00
O640   O     0.83333   0.79511   0.18392   0.00000  Uiso   1.00
Zn641  Zn    0.83333   0.88437   0.25000   0.00000  Uiso   1.00
Zn642  Zn    0.83333   0.78229   0.25000   0.00000  Uiso   1.00
N643   N     0.89613   0.88605   0.38372   0.00000  Uiso   1.00
H644   H     0.91145   0.86468   0.36100   0.00000  Uiso   1.00
H645   H     0.88139   0.91217   0.36649   0.00000  Uiso   1.00
N646   N     0.77054   0.78062   0.11628   0.00000  Uiso   1.00
H647   H     0.78528   0.75450   0.13350   0.00000  Uiso   1.00
H648   H     0.75522   0.80198   0.13900   0.00000  Uiso   1.00
N649   N     0.74222   0.75171   0.03956   0.00000  Uiso   1.00
H650   H     0.71285   0.76223   0.02819   0.00000  Uiso   1.00
H651   H     0.74693   0.71838   0.02860   0.00000  Uiso   1.00
N652   N     0.92444   0.91497   0.46044   0.00000  Uiso   1.00
H653   H     0.91972   0.94830   0.47140   0.00000  Uiso   1.00
H654   H     0.95381   0.90445   0.47181   0.00000  Uiso   1.00
N655   N     0.71184   0.78578   0.31697   0.00000  Uiso   1.00
H656   H     0.70388   0.75148   0.31589   0.00000  Uiso   1.00
H657   H     0.70378   0.79912   0.34825   0.00000  Uiso   1.00
N658   N     0.95483   0.88089   0.18303   0.00000  Uiso   1.00
H659   H     0.96278   0.91518   0.18411   0.00000  Uiso   1.00
H660   H     0.96289   0.86754   0.15175   0.00000  Uiso   1.00
N661   N     0.95529   0.78544   0.31685   0.00000  Uiso   1.00
H662   H     0.96368   0.79837   0.34822   0.00000  Uiso   1.00
H663   H     0.96320   0.75113   0.31535   0.00000  Uiso   1.00
N664   N     0.71138   0.88123   0.18316   0.00000  Uiso   1.00
H665   H     0.70299   0.86830   0.15178   0.00000  Uiso   1.00
H666   H     0.70346   0.91554   0.18465   0.00000  Uiso   1.00
C667   C     0.08679   0.16668   0.74994   0.00000  Uiso   1.00
C668   C     0.24654   0.16666   0.75006   0.00000  Uiso   1.00
C669   C     0.10679   0.11307   0.51952   0.00000  Uiso   1.00
C670   C     0.22654   0.22027   0.98048   0.00000  Uiso   1.00
C671   C     0.02183   0.14239   0.78313   0.00000  Uiso   1.00
C672   C     0.31150   0.19094   0.71687   0.00000  Uiso   1.00
C673   C     0.31173   0.14233   0.78314   0.00000  Uiso   1.00
C674   C     0.02161   0.19100   0.71686   0.00000  Uiso   1.00
C675   C     0.29068   0.16665   0.75004   0.00000  Uiso   1.00
C676   C     0.04265   0.16669   0.74996   0.00000  Uiso   1.00
C677   C     0.19539   0.02422   0.77457   0.00000  Uiso   1.00
C678   C     0.13795   0.30911   0.72543   0.00000  Uiso   1.00
C679   C     0.13793   0.02372   0.72546   0.00000  Uiso   1.00
C680   C     0.19540   0.30961   0.77454   0.00000  Uiso   1.00
C681   C     0.16559   0.16639   0.66352   0.00000  Uiso   1.00
C682   C     0.16774   0.16694   0.83648   0.00000  Uiso   1.00
C683   C     0.19851   0.19399   0.90758   0.00000  Uiso   1.00
C684   C     0.13482   0.13935   0.59242   0.00000  Uiso   1.00
C685   C     0.16893   0.16755   0.88420   0.00000  Uiso   1.00
C686   C     0.16441   0.16578   0.61580   0.00000  Uiso   1.00
C687   C     0.13993   0.14090   0.90600   0.00000  Uiso   1.00
C688   C     0.19340   0.19243   0.59400   0.00000  Uiso   1.00
C689   C     0.13885   0.14058   0.95196   0.00000  Uiso   1.00
C690   C     0.19448   0.19276   0.54804   0.00000  Uiso   1.00
C691   C     0.16758   0.16703   0.97664   0.00000  Uiso   1.00
C692   C     0.16575   0.16630   0.52335   0.00000  Uiso   1.00
C693   C     0.19803   0.19408   0.95461   0.00000  Uiso   1.00
C694   C     0.13530   0.13926   0.54539   0.00000  Uiso   1.00
C695   C     0.10900   0.11411   0.97319   0.00000  Uiso   1.00
C696   C     0.22433   0.21922   0.52681   0.00000  Uiso   1.00
H697   H     0.11762   0.12084   0.88683   0.00000  Uiso   1.00
H698   H     0.21571   0.21250   0.61317   0.00000  Uiso   1.00
H699   H     0.08707   0.09396   0.95369   0.00000  Uiso   1.00
H700   H     0.24626   0.23938   0.54631   0.00000  Uiso   1.00
H701   H     0.21835   0.04256   0.79424   0.00000  Uiso   1.00
H702   H     0.11499   0.29077   0.70576   0.00000  Uiso   1.00
H703   H     0.11491   0.04166   0.70588   0.00000  Uiso   1.00
H704   H     0.21842   0.29168   0.79412   0.00000  Uiso   1.00
N705   N     0.16667   0.28573   0.75000   0.00000  Uiso   1.00
N706   N     0.16667   0.04760   0.75000   0.00000  Uiso   1.00
O707   O     0.10559   0.20487   0.74999   0.00000  Uiso   1.00
O708   O     0.22774   0.12846   0.75001   0.00000  Uiso   1.00
O709   O     0.22774   0.20487   0.75000   0.00000  Uiso   1.00
O710   O     0.10559   0.12846   0.74999   0.00000  Uiso   1.00
O711   O     0.16666   0.20489   0.68392   0.00000  Uiso   1.00
O712   O     0.16667   0.12844   0.81607   0.00000  Uiso   1.00
O713   O     0.16667   0.20489   0.81607   0.00000  Uiso   1.00
O714   O     0.16666   0.12844   0.68392   0.00000  Uiso   1.00
Zn715  Zn    0.16667   0.21771   0.75000   0.00000  Uiso   1.00
Zn716  Zn    0.16667   0.11563   0.75000   0.00000  Uiso   1.00
N717   N     0.22946   0.21938   0.88372   0.00000  Uiso   1.00
H718   H     0.24478   0.19801   0.86100   0.00000  Uiso   1.00
H719   H     0.21472   0.24550   0.86649   0.00000  Uiso   1.00
N720   N     0.10387   0.11396   0.61628   0.00000  Uiso   1.00
H721   H     0.11861   0.08783   0.63350   0.00000  Uiso   1.00
H722   H     0.08855   0.13532   0.63900   0.00000  Uiso   1.00
N723   N     0.07555   0.08504   0.53956   0.00000  Uiso   1.00
H724   H     0.04618   0.09557   0.52819   0.00000  Uiso   1.00
H725   H     0.08026   0.05171   0.52860   0.00000  Uiso   1.00
N726   N     0.25777   0.24830   0.96044   0.00000  Uiso   1.00
H727   H     0.25306   0.28163   0.97140   0.00000  Uiso   1.00
H728   H     0.28715   0.23778   0.97181   0.00000  Uiso   1.00
N729   N     0.04517   0.11911   0.81697   0.00000  Uiso   1.00
H730   H     0.03722   0.08482   0.81589   0.00000  Uiso   1.00
H731   H     0.03711   0.13245   0.84825   0.00000  Uiso   1.00
N732   N     0.28816   0.21422   0.68303   0.00000  Uiso   1.00
H733   H     0.29612   0.24852   0.68411   0.00000  Uiso   1.00
H734   H     0.29622   0.20088   0.65175   0.00000  Uiso   1.00
N735   N     0.28862   0.11877   0.81685   0.00000  Uiso   1.00
H736   H     0.29701   0.13171   0.84822   0.00000  Uiso   1.00
H737   H     0.29654   0.08447   0.81535   0.00000  Uiso   1.00
N738   N     0.04471   0.21457   0.68316   0.00000  Uiso   1.00
H739   H     0.03632   0.20163   0.65178   0.00000  Uiso   1.00
H740   H     0.03680   0.24887   0.68465   0.00000  Uiso   1.00
C741   C     0.42012   0.16668   0.74994   0.00000  Uiso   1.00
C742   C     0.57988   0.16666   0.75006   0.00000  Uiso   1.00
C743   C     0.44012   0.11307   0.51952   0.00000  Uiso   1.00
C744   C     0.55987   0.22027   0.98048   0.00000  Uiso   1.00
C745   C     0.35516   0.14239   0.78313   0.00000  Uiso   1.00
C746   C     0.64484   0.19094   0.71687   0.00000  Uiso   1.00
C747   C     0.64506   0.14233   0.78314   0.00000  Uiso   1.00
C748   C     0.35494   0.19100   0.71686   0.00000  Uiso   1.00
C749   C     0.62401   0.16665   0.75004   0.00000  Uiso   1.00
C750   C     0.37599   0.16669   0.74996   0.00000  Uiso   1.00
C751   C     0.52872   0.02422   0.77457   0.00000  Uiso   1.00
C752   C     0.47128   0.30911   0.72543   0.00000  Uiso   1.00
C753   C     0.47126   0.02372   0.72546   0.00000  Uiso   1.00
C754   C     0.52874   0.30961   0.77454   0.00000  Uiso   1.00
C755   C     0.49892   0.16639   0.66352   0.00000  Uiso   1.00
C756   C     0.50108   0.16694   0.83648   0.00000  Uiso   1.00
C757   C     0.53184   0.19399   0.90758   0.00000  Uiso   1.00
C758   C     0.46816   0.13935   0.59242   0.00000  Uiso   1.00
C759   C     0.50226   0.16755   0.88420   0.00000  Uiso   1.00
C760   C     0.49774   0.16578   0.61580   0.00000  Uiso   1.00
C761   C     0.47326   0.14090   0.90600   0.00000  Uiso   1.00
C762   C     0.52673   0.19243   0.59400   0.00000  Uiso   1.00
C763   C     0.47218   0.14058   0.95196   0.00000  Uiso   1.00
C764   C     0.52782   0.19276   0.54804   0.00000  Uiso   1.00
C765   C     0.50091   0.16703   0.97664   0.00000  Uiso   1.00
C766   C     0.49908   0.16630   0.52335   0.00000  Uiso   1.00
C767   C     0.53137   0.19408   0.95461   0.00000  Uiso   1.00
C768   C     0.46863   0.13926   0.54539   0.00000  Uiso   1.00
C769   C     0.44233   0.11411   0.97319   0.00000  Uiso   1.00
C770   C     0.55766   0.21922   0.52681   0.00000  Uiso   1.00
H771   H     0.45095   0.12084   0.88683   0.00000  Uiso   1.00
H772   H     0.54904   0.21250   0.61317   0.00000  Uiso   1.00
H773   H     0.42041   0.09396   0.95369   0.00000  Uiso   1.00
H774   H     0.57959   0.23938   0.54631   0.00000  Uiso   1.00
H775   H     0.55168   0.04256   0.79424   0.00000  Uiso   1.00
H776   H     0.44832   0.29077   0.70576   0.00000  Uiso   1.00
H777   H     0.44824   0.04166   0.70588   0.00000  Uiso   1.00
H778   H     0.55176   0.29168   0.79412   0.00000  Uiso   1.00
N779   N     0.50000   0.28573   0.75000   0.00000  Uiso   1.00
N780   N     0.50000   0.04760   0.75000   0.00000  Uiso   1.00
O781   O     0.43892   0.20487   0.74999   0.00000  Uiso   1.00
O782   O     0.56108   0.12846   0.75001   0.00000  Uiso   1.00
O783   O     0.56108   0.20487   0.75000   0.00000  Uiso   1.00
O784   O     0.43892   0.12846   0.74999   0.00000  Uiso   1.00
O785   O     0.49999   0.20489   0.68392   0.00000  Uiso   1.00
O786   O     0.50001   0.12844   0.81607   0.00000  Uiso   1.00
O787   O     0.50001   0.20489   0.81607   0.00000  Uiso   1.00
O788   O     0.49999   0.12844   0.68392   0.00000  Uiso   1.00
Zn789  Zn    0.50000   0.21771   0.75000   0.00000  Uiso   1.00
Zn790  Zn    0.50000   0.11563   0.75000   0.00000  Uiso   1.00
N791   N     0.56280   0.21938   0.88372   0.00000  Uiso   1.00
H792   H     0.57811   0.19801   0.86100   0.00000  Uiso   1.00
H793   H     0.54805   0.24550   0.86649   0.00000  Uiso   1.00
N794   N     0.43720   0.11396   0.61628   0.00000  Uiso   1.00
H795   H     0.45195   0.08783   0.63350   0.00000  Uiso   1.00
H796   H     0.42189   0.13532   0.63900   0.00000  Uiso   1.00
N797   N     0.40889   0.08504   0.53956   0.00000  Uiso   1.00
H798   H     0.37951   0.09557   0.52819   0.00000  Uiso   1.00
H799   H     0.41360   0.05171   0.52860   0.00000  Uiso   1.00
N800   N     0.59110   0.24830   0.96044   0.00000  Uiso   1.00
H801   H     0.58639   0.28163   0.97140   0.00000  Uiso   1.00
H802   H     0.62048   0.23778   0.97181   0.00000  Uiso   1.00
N803   N     0.37851   0.11911   0.81697   0.00000  Uiso   1.00
H804   H     0.37055   0.08482   0.81589   0.00000  Uiso   1.00
H805   H     0.37045   0.13245   0.84825   0.00000  Uiso   1.00
N806   N     0.62149   0.21422   0.68303   0.00000  Uiso   1.00
H807   H     0.62945   0.24852   0.68411   0.00000  Uiso   1.00
H808   H     0.62955   0.20088   0.65175   0.00000  Uiso   1.00
N809   N     0.62196   0.11877   0.81685   0.00000  Uiso   1.00
H810   H     0.63034   0.13171   0.84822   0.00000  Uiso   1.00
H811   H     0.62987   0.08447   0.81535   0.00000  Uiso   1.00
N812   N     0.37804   0.21457   0.68316   0.00000  Uiso   1.00
H813   H     0.36966   0.20163   0.65178   0.00000  Uiso   1.00
H814   H     0.37013   0.24887   0.68465   0.00000  Uiso   1.00
C815   C     0.75346   0.16668   0.74994   0.00000  Uiso   1.00
C816   C     0.91321   0.16666   0.75006   0.00000  Uiso   1.00
C817   C     0.77346   0.11307   0.51952   0.00000  Uiso   1.00
C818   C     0.89321   0.22027   0.98048   0.00000  Uiso   1.00
C819   C     0.68850   0.14239   0.78313   0.00000  Uiso   1.00
C820   C     0.97817   0.19094   0.71687   0.00000  Uiso   1.00
C821   C     0.97839   0.14233   0.78314   0.00000  Uiso   1.00
C822   C     0.68827   0.19100   0.71686   0.00000  Uiso   1.00
C823   C     0.95735   0.16665   0.75004   0.00000  Uiso   1.00
C824   C     0.70932   0.16669   0.74996   0.00000  Uiso   1.00
C825   C     0.86205   0.02422   0.77457   0.00000  Uiso   1.00
C826   C     0.80461   0.30911   0.72543   0.00000  Uiso   1.00
C827   C     0.80460   0.02372   0.72546   0.00000  Uiso   1.00
C828   C     0.86207   0.30961   0.77454   0.00000  Uiso   1.00
C829   C     0.83226   0.16639   0.66352   0.00000  Uiso   1.00
C830   C     0.83441   0.16694   0.83648   0.00000  Uiso   1.00
C831   C     0.86518   0.19399   0.90758   0.00000  Uiso   1.00
C832   C     0.80149   0.13935   0.59242   0.00000  Uiso   1.00
C833   C     0.83559   0.16755   0.88420   0.00000  Uiso   1.00
C834   C     0.83107   0.16578   0.61580   0.00000  Uiso   1.00
C835   C     0.80660   0.14090   0.90600   0.00000  Uiso   1.00
C836   C     0.86007   0.19243   0.59400   0.00000  Uiso   1.00
C837   C     0.80551   0.14058   0.95196   0.00000  Uiso   1.00
C838   C     0.86115   0.19276   0.54804   0.00000  Uiso   1.00
C839   C     0.83425   0.16703   0.97664   0.00000  Uiso   1.00
C840   C     0.83242   0.16630   0.52335   0.00000  Uiso   1.00
C841   C     0.86470   0.19408   0.95461   0.00000  Uiso   1.00
C842   C     0.80196   0.13926   0.54539   0.00000  Uiso   1.00
C843   C     0.77567   0.11411   0.97319   0.00000  Uiso   1.00
C844   C     0.89099   0.21922   0.52681   0.00000  Uiso   1.00
H845   H     0.78429   0.12084   0.88683   0.00000  Uiso   1.00
H846   H     0.88238   0.21250   0.61317   0.00000  Uiso   1.00
H847   H     0.75374   0.09396   0.95369   0.00000  Uiso   1.00
H848   H     0.91292   0.23938   0.54631   0.00000  Uiso   1.00
H849   H     0.88501   0.04256   0.79424   0.00000  Uiso   1.00
H850   H     0.78165   0.29077   0.70576   0.00000  Uiso   1.00
H851   H     0.78158   0.04166   0.70588   0.00000  Uiso   1.00
H852   H     0.88509   0.29168   0.79412   0.00000  Uiso   1.00
N853   N     0.83333   0.28573   0.75000   0.00000  Uiso   1.00
N854   N     0.83333   0.04760   0.75000   0.00000  Uiso   1.00
O855   O     0.77226   0.20487   0.74999   0.00000  Uiso   1.00
O856   O     0.89441   0.12846   0.75001   0.00000  Uiso   1.00
O857   O     0.89441   0.20487   0.75000   0.00000  Uiso   1.00
O858   O     0.77226   0.12846   0.74999   0.00000  Uiso   1.00
O859   O     0.83333   0.20489   0.68392   0.00000  Uiso   1.00
O860   O     0.83334   0.12844   0.81607   0.00000  Uiso   1.00
O861   O     0.83334   0.20489   0.81607   0.00000  Uiso   1.00
O862   O     0.83333   0.12844   0.68392   0.00000  Uiso   1.00
Zn863  Zn    0.83333   0.21771   0.75000   0.00000  Uiso   1.00
Zn864  Zn    0.83333   0.11563   0.75000   0.00000  Uiso   1.00
N865   N     0.89613   0.21938   0.88372   0.00000  Uiso   1.00
H866   H     0.91145   0.19801   0.86100   0.00000  Uiso   1.00
H867   H     0.88139   0.24550   0.86649   0.00000  Uiso   1.00
N868   N     0.77054   0.11396   0.61628   0.00000  Uiso   1.00
H869   H     0.78528   0.08783   0.63350   0.00000  Uiso   1.00
H870   H     0.75522   0.13532   0.63900   0.00000  Uiso   1.00
N871   N     0.74222   0.08504   0.53956   0.00000  Uiso   1.00
H872   H     0.71285   0.09557   0.52819   0.00000  Uiso   1.00
H873   H     0.74693   0.05171   0.52860   0.00000  Uiso   1.00
N874   N     0.92444   0.24830   0.96044   0.00000  Uiso   1.00
H875   H     0.91972   0.28163   0.97140   0.00000  Uiso   1.00
H876   H     0.95381   0.23778   0.97181   0.00000  Uiso   1.00
N877   N     0.71184   0.11911   0.81697   0.00000  Uiso   1.00
H878   H     0.70388   0.08482   0.81589   0.00000  Uiso   1.00
H879   H     0.70378   0.13245   0.84825   0.00000  Uiso   1.00
N880   N     0.95483   0.21422   0.68303   0.00000  Uiso   1.00
H881   H     0.96278   0.24852   0.68411   0.00000  Uiso   1.00
H882   H     0.96289   0.20088   0.65175   0.00000  Uiso   1.00
N883   N     0.95529   0.11877   0.81685   0.00000  Uiso   1.00
H884   H     0.96368   0.13171   0.84822   0.00000  Uiso   1.00
H885   H     0.96320   0.08447   0.81535   0.00000  Uiso   1.00
N886   N     0.71138   0.21457   0.68316   0.00000  Uiso   1.00
H887   H     0.70299   0.20163   0.65178   0.00000  Uiso   1.00
H888   H     0.70346   0.24887   0.68465   0.00000  Uiso   1.00
C889   C     0.08679   0.50001   0.74994   0.00000  Uiso   1.00
C890   C     0.24654   0.49999   0.75006   0.00000  Uiso   1.00
C891   C     0.10679   0.44640   0.51952   0.00000  Uiso   1.00
C892   C     0.22654   0.55361   0.98048   0.00000  Uiso   1.00
C893   C     0.02183   0.47573   0.78313   0.00000  Uiso   1.00
C894   C     0.31150   0.52427   0.71687   0.00000  Uiso   1.00
C895   C     0.31173   0.47567   0.78314   0.00000  Uiso   1.00
C896   C     0.02161   0.52433   0.71686   0.00000  Uiso   1.00
C897   C     0.29068   0.49998   0.75004   0.00000  Uiso   1.00
C898   C     0.04265   0.50002   0.74996   0.00000  Uiso   1.00
C899   C     0.19539   0.35755   0.77457   0.00000  Uiso   1.00
C900   C     0.13795   0.64245   0.72543   0.00000  Uiso   1.00
C901   C     0.13793   0.35706   0.72546   0.00000  Uiso   1.00
C902   C     0.19540   0.64294   0.77454   0.00000  Uiso   1.00
C903   C     0.16559   0.49973   0.66352   0.00000  Uiso   1.00
C904   C     0.16774   0.50027   0.83648   0.00000  Uiso   1.00
C905   C     0.19851   0.52732   0.90758   0.00000  Uiso   1.00
C906   C     0.13482   0.47268   0.59242   0.00000  Uiso   1.00
C907   C     0.16893   0.50089   0.88420   0.00000  Uiso   1.00
C908   C     0.16441   0.49911   0.61580   0.00000  Uiso   1.00
C909   C     0.13993   0.47424   0.90600   0.00000  Uiso   1.00
C910   C     0.19340   0.52576   0.59400   0.00000  Uiso   1.00
C911   C     0.13885   0.47391   0.95196   0.00000  Uiso   1.00
C912   C     0.19448   0.52609   0.54804   0.00000  Uiso   1.00
C913   C     0.16758   0.50037   0.97664   0.00000  Uiso   1.00
C914   C     0.16575   0.49964   0.52335   0.00000  Uiso   1.00
C915   C     0.19803   0.52741   0.95461   0.00000  Uiso   1.00
C916   C     0.13530   0.47259   0.54539   0.00000  Uiso   1.00
C917   C     0.10900   0.44745   0.97319   0.00000  Uiso   1.00
C918   C     0.22433   0.55256   0.52681   0.00000  Uiso   1.00
H919   H     0.11762   0.45417   0.88683   0.00000  Uiso   1.00
H920   H     0.21571   0.54583   0.61317   0.00000  Uiso   1.00
H921   H     0.08707   0.42730   0.95369   0.00000  Uiso   1.00
H922   H     0.24626   0.57271   0.54631   0.00000  Uiso   1.00
H923   H     0.21835   0.37589   0.79424   0.00000  Uiso   1.00
H924   H     0.11499   0.62411   0.70576   0.00000  Uiso   1.00
H925   H     0.11491   0.37499   0.70588   0.00000  Uiso   1.00
H926   H     0.21842   0.62501   0.79412   0.00000  Uiso   1.00
N927   N     0.16667   0.61907   0.75000   0.00000  Uiso   1.00
N928   N     0.16667   0.38093   0.75000   0.00000  Uiso   1.00
O929   O     0.10559   0.53821   0.74999   0.00000  Uiso   1.00
O930   O     0.22774   0.46179   0.75001   0.00000  Uiso   1.00
O931   O     0.22774   0.53821   0.75000   0.00000  Uiso   1.00
O932   O     0.10559   0.46179   0.74999   0.00000  Uiso   1.00
O933   O     0.16666   0.53823   0.68392   0.00000  Uiso   1.00
O934   O     0.16667   0.46177   0.81607   0.00000  Uiso   1.00
O935   O     0.16667   0.53823   0.81607   0.00000  Uiso   1.00
O936   O     0.16666   0.46177   0.68392   0.00000  Uiso   1.00
Zn937  Zn    0.16667   0.55104   0.75000   0.00000  Uiso   1.00
Zn938  Zn    0.16667   0.44896   0.75000   0.00000  Uiso   1.00
N939   N     0.22946   0.55271   0.88372   0.00000  Uiso   1.00
H940   H     0.24478   0.53135   0.86100   0.00000  Uiso   1.00
H941   H     0.21472   0.57884   0.86649   0.00000  Uiso   1.00
N942   N     0.10387   0.44729   0.61628   0.00000  Uiso   1.00
H943   H     0.11861   0.42116   0.63350   0.00000  Uiso   1.00
H944   H     0.08855   0.46865   0.63900   0.00000  Uiso   1.00
N945   N     0.07555   0.41838   0.53956   0.00000  Uiso   1.00
H946   H     0.04618   0.42890   0.52819   0.00000  Uiso   1.00
H947   H     0.08026   0.38505   0.52860   0.00000  Uiso   1.00
N948   N     0.25777   0.58163   0.96044   0.00000  Uiso   1.00
H949   H     0.25306   0.61496   0.97140   0.00000  Uiso   1.00
H950   H     0.28715   0.57112   0.97181   0.00000  Uiso   1.00
N951   N     0.04517   0.45245   0.81697   0.00000  Uiso   1.00
H952   H     0.03722   0.41815   0.81589   0.00000  Uiso   1.00
H953   H     0.03711   0.46579   0.84825   0.00000  Uiso   1.00
N954   N     0.28816   0.54755   0.68303   0.00000  Uiso   1.00
H955   H     0.29612   0.58185   0.68411   0.00000  Uiso   1.00
H956   H     0.29622   0.53421   0.65175   0.00000  Uiso   1.00
N957   N     0.28862   0.45210   0.81685   0.00000  Uiso   1.00
H958   H     0.29701   0.46504   0.84822   0.00000  Uiso   1.00
H959   H     0.29654   0.41780   0.81535   0.00000  Uiso   1.00
N960   N     0.04471   0.54790   0.68316   0.00000  Uiso   1.00
H961   H     0.03632   0.53496   0.65178   0.00000  Uiso   1.00
H962   H     0.03680   0.58220   0.68465   0.00000  Uiso   1.00
C963   C     0.42012   0.50001   0.74994   0.00000  Uiso   1.00
C964   C     0.57988   0.49999   0.75006   0.00000  Uiso   1.00
C965   C     0.44012   0.44640   0.51952   0.00000  Uiso   1.00
C966   C     0.55987   0.55361   0.98048   0.00000  Uiso   1.00
C967   C     0.35516   0.47573   0.78313   0.00000  Uiso   1.00
C968   C     0.64484   0.52427   0.71687   0.00000  Uiso   1.00
C969   C     0.64506   0.47567   0.78314   0.00000  Uiso   1.00
C970   C     0.35494   0.52433   0.71686   0.00000  Uiso   1.00
C971   C     0.62401   0.49998   0.75004   0.00000  Uiso   1.00
C972   C     0.37599   0.50002   0.74996   0.00000  Uiso   1.00
C973   C     0.52872   0.35755   0.77457   0.00000  Uiso   1.00
C974   C     0.47128   0.64245   0.72543   0.00000  Uiso   1.00
C975   C     0.47126   0.35706   0.72546   0.00000  Uiso   1.00
C976   C     0.52874   0.64294   0.77454   0.00000  Uiso   1.00
C977   C     0.49892   0.49973   0.66352   0.00000  Uiso   1.00
C978   C     0.50108   0.50027   0.83648   0.00000  Uiso   1.00
C979   C     0.53184   0.52732   0.90758   0.00000  Uiso   1.00
C980   C     0.46816   0.47268   0.59242   0.00000  Uiso   1.00
C981   C     0.50226   0.50089   0.88420   0.00000  Uiso   1.00
C982   C     0.49774   0.49911   0.61580   0.00000  Uiso   1.00
C983   C     0.47326   0.47424   0.90600   0.00000  Uiso   1.00
C984   C     0.52673   0.52576   0.59400   0.00000  Uiso   1.00
C985   C     0.47218   0.47391   0.95196   0.00000  Uiso   1.00
C986   C     0.52782   0.52609   0.54804   0.00000  Uiso   1.00
C987   C     0.50091   0.50037   0.97664   0.00000  Uiso   1.00
C988   C     0.49908   0.49964   0.52335   0.00000  Uiso   1.00
C989   C     0.53137   0.52741   0.95461   0.00000  Uiso   1.00
C990   C     0.46863   0.47259   0.54539   0.00000  Uiso   1.00
C991   C     0.44233   0.44745   0.97319   0.00000  Uiso   1.00
C992   C     0.55766   0.55256   0.52681   0.00000  Uiso   1.00
H993   H     0.45095   0.45417   0.88683   0.00000  Uiso   1.00
H994   H     0.54904   0.54583   0.61317   0.00000  Uiso   1.00
H995   H     0.42041   0.42730   0.95369   0.00000  Uiso   1.00
H996   H     0.57959   0.57271   0.54631   0.00000  Uiso   1.00
H997   H     0.55168   0.37589   0.79424   0.00000  Uiso   1.00
H998   H     0.44832   0.62411   0.70576   0.00000  Uiso   1.00
H999   H     0.44824   0.37499   0.70588   0.00000  Uiso   1.00
H1000  H     0.55176   0.62501   0.79412   0.00000  Uiso   1.00
N1001  N     0.50000   0.61907   0.75000   0.00000  Uiso   1.00
N1002  N     0.50000   0.38093   0.75000   0.00000  Uiso   1.00
O1003  O     0.43892   0.53821   0.74999   0.00000  Uiso   1.00
O1004  O     0.56108   0.46179   0.75001   0.00000  Uiso   1.00
O1005  O     0.56108   0.53821   0.75000   0.00000  Uiso   1.00
O1006  O     0.43892   0.46179   0.74999   0.00000  Uiso   1.00
O1007  O     0.49999   0.53823   0.68392   0.00000  Uiso   1.00
O1008  O     0.50001   0.46177   0.81607   0.00000  Uiso   1.00
O1009  O     0.50001   0.53823   0.81607   0.00000  Uiso   1.00
O1010  O     0.49999   0.46177   0.68392   0.00000  Uiso   1.00
Zn1011 Zn    0.50000   0.55104   0.75000   0.00000  Uiso   1.00
Zn1012 Zn    0.50000   0.44896   0.75000   0.00000  Uiso   1.00
N1013  N     0.56280   0.55271   0.88372   0.00000  Uiso   1.00
H1014  H     0.57811   0.53135   0.86100   0.00000  Uiso   1.00
H1015  H     0.54805   0.57884   0.86649   0.00000  Uiso   1.00
N1016  N     0.43720   0.44729   0.61628   0.00000  Uiso   1.00
H1017  H     0.45195   0.42116   0.63350   0.00000  Uiso   1.00
H1018  H     0.42189   0.46865   0.63900   0.00000  Uiso   1.00
N1019  N     0.40889   0.41838   0.53956   0.00000  Uiso   1.00
H1020  H     0.37951   0.42890   0.52819   0.00000  Uiso   1.00
H1021  H     0.41360   0.38505   0.52860   0.00000  Uiso   1.00
N1022  N     0.59110   0.58163   0.96044   0.00000  Uiso   1.00
H1023  H     0.58639   0.61496   0.97140   0.00000  Uiso   1.00
H1024  H     0.62048   0.57112   0.97181   0.00000  Uiso   1.00
N1025  N     0.37851   0.45245   0.81697   0.00000  Uiso   1.00
H1026  H     0.37055   0.41815   0.81589   0.00000  Uiso   1.00
H1027  H     0.37045   0.46579   0.84825   0.00000  Uiso   1.00
N1028  N     0.62149   0.54755   0.68303   0.00000  Uiso   1.00
H1029  H     0.62945   0.58185   0.68411   0.00000  Uiso   1.00
H1030  H     0.62955   0.53421   0.65175   0.00000  Uiso   1.00
N1031  N     0.62196   0.45210   0.81685   0.00000  Uiso   1.00
H1032  H     0.63034   0.46504   0.84822   0.00000  Uiso   1.00
H1033  H     0.62987   0.41780   0.81535   0.00000  Uiso   1.00
N1034  N     0.37804   0.54790   0.68316   0.00000  Uiso   1.00
H1035  H     0.36966   0.53496   0.65178   0.00000  Uiso   1.00
H1036  H     0.37013   0.58220   0.68465   0.00000  Uiso   1.00
C1037  C     0.75346   0.50001   0.74994   0.00000  Uiso   1.00
C1038  C     0.91321   0.49999   0.75006   0.00000  Uiso   1.00
C1039  C     0.77346   0.44640   0.51952   0.00000  Uiso   1.00
C1040  C     0.89321   0.55361   0.98048   0.00000  Uiso   1.00
C1041  C     0.68850   0.47573   0.78313   0.00000  Uiso   1.00
C1042  C     0.97817   0.52427   0.71687   0.00000  Uiso   1.00
C1043  C     0.97839   0.47567   0.78314   0.00000  Uiso   1.00
C1044  C     0.68827   0.52433   0.71686   0.00000  Uiso   1.00
C1045  C     0.95735   0.49998   0.75004   0.00000  Uiso   1.00
C1046  C     0.70932   0.50002   0.74996   0.00000  Uiso   1.00
C1047  C     0.86205   0.35755   0.77457   0.00000  Uiso   1.00
C1048  C     0.80461   0.64245   0.72543   0.00000  Uiso   1.00
C1049  C     0.80460   0.35706   0.72546   0.00000  Uiso   1.00
C1050  C     0.86207   0.64294   0.77454   0.00000  Uiso   1.00
C1051  C     0.83226   0.49973   0.66352   0.00000  Uiso   1.00
C1052  C     0.83441   0.50027   0.83648   0.00000  Uiso   1.00
C1053  C     0.86518   0.52732   0.90758   0.00000  Uiso   1.00
C1054  C     0.80149   0.47268   0.59242   0.00000  Uiso   1.00
C1055  C     0.83559   0.50089   0.88420   0.00000  Uiso   1.00
C1056  C     0.83107   0.49911   0.61580   0.00000  Uiso   1.00
C1057  C     0.80660   0.47424   0.90600   0.00000  Uiso   1.00
C1058  C     0.86007   0.52576   0.59400   0.00000  Uiso   1.00
C1059  C     0.80551   0.47391   0.95196   0.00000  Uiso   1.00
C1060  C     0.86115   0.52609   0.54804   0.00000  Uiso   1.00
C1061  C     0.83425   0.50037   0.97664   0.00000  Uiso   1.00
C1062  C     0.83242   0.49964   0.52335   0.00000  Uiso   1.00
C1063  C     0.86470   0.52741   0.95461   0.00000  Uiso   1.00
C1064  C     0.80196   0.47259   0.54539   0.00000  Uiso   1.00
C1065  C     0.77567   0.44745   0.97319   0.00000  Uiso   1.00
C1066  C     0.89099   0.55256   0.52681   0.00000  Uiso   1.00
H1067  H     0.78429   0.45417   0.88683   0.00000  Uiso   1.00
H1068  H     0.88238   0.54583   0.61317   0.00000  Uiso   1.00
H1069  H     0.75374   0.42730   0.95369   0.00000  Uiso   1.00
H1070  H     0.91292   0.57271   0.54631   0.00000  Uiso   1.00
H1071  H     0.88501   0.37589   0.79424   0.00000  Uiso   1.00
H1072  H     0.78165   0.62411   0.70576   0.00000  Uiso   1.00
H1073  H     0.78158   0.37499   0.70588   0.00000  Uiso   1.00
H1074  H     0.88509   0.62501   0.79412   0.00000  Uiso   1.00
N1075  N     0.83333   0.61907   0.75000   0.00000  Uiso   1.00
N1076  N     0.83333   0.38093   0.75000   0.00000  Uiso   1.00
O1077  O     0.77226   0.53821   0.74999   0.00000  Uiso   1.00
O1078  O     0.89441   0.46179   0.75001   0.00000  Uiso   1.00
O1079  O     0.89441   0.53821   0.75000   0.00000  Uiso   1.00
O1080  O     0.77226   0.46179   0.74999   0.00000  Uiso   1.00
O1081  O     0.83333   0.53823   0.68392   0.00000  Uiso   1.00
O1082  O     0.83334   0.46177   0.81607   0.00000  Uiso   1.00
O1083  O     0.83334   0.53823   0.81607   0.00000  Uiso   1.00
O1084  O     0.83333   0.46177   0.68392   0.00000  Uiso   1.00
Zn1085 Zn    0.83333   0.55104   0.75000   0.00000  Uiso   1.00
Zn1086 Zn    0.83333   0.44896   0.75000   0.00000  Uiso   1.00
N1087  N     0.89613   0.55271   0.88372   0.00000  Uiso   1.00
H1088  H     0.91145   0.53135   0.86100   0.00000  Uiso   1.00
H1089  H     0.88139   0.57884   0.86649   0.00000  Uiso   1.00
N1090  N     0.77054   0.44729   0.61628   0.00000  Uiso   1.00
H1091  H     0.78528   0.42116   0.63350   0.00000  Uiso   1.00
H1092  H     0.75522   0.46865   0.63900   0.00000  Uiso   1.00
N1093  N     0.74222   0.41838   0.53956   0.00000  Uiso   1.00
H1094  H     0.71285   0.42890   0.52819   0.00000  Uiso   1.00
H1095  H     0.74693   0.38505   0.52860   0.00000  Uiso   1.00
N1096  N     0.92444   0.58163   0.96044   0.00000  Uiso   1.00
H1097  H     0.91972   0.61496   0.97140   0.00000  Uiso   1.00
H1098  H     0.95381   0.57112   0.97181   0.00000  Uiso   1.00
N1099  N     0.71184   0.45245   0.81697   0.00000  Uiso   1.00
H1100  H     0.70388   0.41815   0.81589   0.00000  Uiso   1.00
H1101  H     0.70378   0.46579   0.84825   0.00000  Uiso   1.00
N1102  N     0.95483   0.54755   0.68303   0.00000  Uiso   1.00
H1103  H     0.96278   0.58185   0.68411   0.00000  Uiso   1.00
H1104  H     0.96289   0.53421   0.65175   0.00000  Uiso   1.00
N1105  N     0.95529   0.45210   0.81685   0.00000  Uiso   1.00
H1106  H     0.96368   0.46504   0.84822   0.00000  Uiso   1.00
H1107  H     0.96320   0.41780   0.81535   0.00000  Uiso   1.00
N1108  N     0.71138   0.54790   0.68316   0.00000  Uiso   1.00
H1109  H     0.70299   0.53496   0.65178   0.00000  Uiso   1.00
H1110  H     0.70346   0.58220   0.68465   0.00000  Uiso   1.00
C1111  C     0.08679   0.83334   0.74994   0.00000  Uiso   1.00
C1112  C     0.24654   0.83333   0.75006   0.00000  Uiso   1.00
C1113  C     0.10679   0.77973   0.51952   0.00000  Uiso   1.00
C1114  C     0.22654   0.88694   0.98048   0.00000  Uiso   1.00
C1115  C     0.02183   0.80906   0.78313   0.00000  Uiso   1.00
C1116  C     0.31150   0.85761   0.71687   0.00000  Uiso   1.00
C1117  C     0.31173   0.80900   0.78314   0.00000  Uiso   1.00
C1118  C     0.02161   0.85767   0.71686   0.00000  Uiso   1.00
C1119  C     0.29068   0.83331   0.75004   0.00000  Uiso   1.00
C1120  C     0.04265   0.83335   0.74996   0.00000  Uiso   1.00
C1121  C     0.19539   0.69089   0.77457   0.00000  Uiso   1.00
C1122  C     0.13795   0.97578   0.72543   0.00000  Uiso   1.00
C1123  C     0.13793   0.69039   0.72546   0.00000  Uiso   1.00
C1124  C     0.19540   0.97628   0.77454   0.00000  Uiso   1.00
C1125  C     0.16559   0.83306   0.66352   0.00000  Uiso   1.00
C1126  C     0.16774   0.83361   0.83648   0.00000  Uiso   1.00
C1127  C     0.19851   0.86065   0.90758   0.00000  Uiso   1.00
C1128  C     0.13482   0.80601   0.59242   0.00000  Uiso   1.00
C1129  C     0.16893   0.83422   0.88420   0.00000  Uiso   1.00
C1130  C     0.16441   0.83245   0.61580   0.00000  Uiso   1.00
C1131  C     0.13993   0.80757   0.90600   0.00000  Uiso   1.00
C1132  C     0.19340   0.85910   0.59400   0.00000  Uiso   1.00
C1133  C     0.13885   0.80724   0.95196   0.00000  Uiso   1.00
C1134  C     0.19448   0.85942   0.54804   0.00000  Uiso   1.00
C1135  C     0.16758   0.83370   0.97664   0.00000  Uiso   1.00
C1136  C     0.16575   0.83297   0.52335   0.00000  Uiso   1.00
C1137  C     0.19803   0.86074   0.95461   0.00000  Uiso   1.00
C1138  C     0.13530   0.80592   0.54539   0.00000  Uiso   1.00
C1139  C     0.10900   0.78078   0.97319   0.00000  Uiso   1.00
C1140  C     0.22433   0.88589   0.52681   0.00000  Uiso   1.00
H1141  H     0.11762   0.78750   0.88683   0.00000  Uiso   1.00
H1142  H     0.21571   0.87916   0.61317   0.00000  Uiso   1.00
H1143  H     0.08707   0.76063   0.95369   0.00000  Uiso   1.00
H1144  H     0.24626   0.90604   0.54631   0.00000  Uiso   1.00
H1145  H     0.21835   0.70923   0.79424   0.00000  Uiso   1.00
H1146  H     0.11499   0.95744   0.70576   0.00000  Uiso   1.00
H1147  H     0.11491   0.70832   0.70588   0.00000  Uiso   1.00
H1148  H     0.21842   0.95834   0.79412   0.00000  Uiso   1.00
N1149  N     0.16667   0.95240   0.75000   0.00000  Uiso   1.00
N1150  N     0.16667   0.71427   0.75000   0.00000  Uiso   1.00
O1151  O     0.10559   0.87154   0.74999   0.00000  Uiso   1.00
O1152  O     0.22774   0.79513   0.75001   0.00000  Uiso   1.00
O1153  O     0.22774   0.87154   0.75000   0.00000  Uiso   1.00
O1154  O     0.10559   0.79513   0.74999   0.00000  Uiso   1.00
O1155  O     0.16666   0.87156   0.68392   0.00000  Uiso   1.00
O1156  O     0.16667   0.79511   0.81607   0.00000  Uiso   1.00
O1157  O     0.16667   0.87156   0.81607   0.00000  Uiso   1.00
O1158  O     0.16666   0.79511   0.68392   0.00000  Uiso   1.00
Zn1159 Zn    0.16667   0.88437   0.75000   0.00000  Uiso   1.00
Zn1160 Zn    0.16667   0.78229   0.75000   0.00000  Uiso   1.00
N1161  N     0.22946   0.88605   0.88372   0.00000  Uiso   1.00
H1162  H     0.24478   0.86468   0.86100   0.00000  Uiso   1.00
H1163  H     0.21472   0.91217   0.86649   0.00000  Uiso   1.00
N1164  N     0.10387   0.78062   0.61628   0.00000  Uiso   1.00
H1165  H     0.11861   0.75450   0.63350   0.00000  Uiso   1.00
H1166  H     0.08855   0.80198   0.63900   0.00000  Uiso   1.00
N1167  N     0.07555   0.75171   0.53956   0.00000  Uiso   1.00
H1168  H     0.04618   0.76223   0.52819   0.00000  Uiso   1.00
H1169  H     0.08026   0.71838   0.52860   0.00000  Uiso   1.00
N1170  N     0.25777   0.91497   0.96044   0.00000  Uiso   1.00
H1171  H     0.25306   0.94830   0.97140   0.00000  Uiso   1.00
H1172  H     0.28715   0.90445   0.97181   0.00000  Uiso   1.00
N1173  N     0.04517   0.78578   0.81697   0.00000  Uiso   1.00
H1174  H     0.03722   0.75148   0.81589   0.00000  Uiso   1.00
H1175  H     0.03711   0.79912   0.84825   0.00000  Uiso   1.00
N1176  N     0.28816   0.88089   0.68303   0.00000  Uiso   1.00
H1177  H     0.29612   0.91518   0.68411   0.00000  Uiso   1.00
H1178  H     0.29622   0.86754   0.65175   0.00000  Uiso   1.00
N1179  N     0.28862   0.78544   0.81685   0.00000  Uiso   1.00
H1180  H     0.29701   0.79837   0.84822   0.00000  Uiso   1.00
H1181  H     0.29654   0.75113   0.81535   0.00000  Uiso   1.00
N1182  N     0.04471   0.88123   0.68316   0.00000  Uiso   1.00
H1183  H     0.03632   0.86830   0.65178   0.00000  Uiso   1.00
H1184  H     0.03680   0.91554   0.68465   0.00000  Uiso   1.00
C1185  C     0.42012   0.83334   0.74994   0.00000  Uiso   1.00
C1186  C     0.57988   0.83333   0.75006   0.00000  Uiso   1.00
C1187  C     0.44012   0.77973   0.51952   0.00000  Uiso   1.00
C1188  C     0.55987   0.88694   0.98048   0.00000  Uiso   1.00
C1189  C     0.35516   0.80906   0.78313   0.00000  Uiso   1.00
C1190  C     0.64484   0.85761   0.71687   0.00000  Uiso   1.00
C1191  C     0.64506   0.80900   0.78314   0.00000  Uiso   1.00
C1192  C     0.35494   0.85767   0.71686   0.00000  Uiso   1.00
C1193  C     0.62401   0.83331   0.75004   0.00000  Uiso   1.00
C1194  C     0.37599   0.83335   0.74996   0.00000  Uiso   1.00
C1195  C     0.52872   0.69089   0.77457   0.00000  Uiso   1.00
C1196  C     0.47128   0.97578   0.72543   0.00000  Uiso   1.00
C1197  C     0.47126   0.69039   0.72546   0.00000  Uiso   1.00
C1198  C     0.52874   0.97628   0.77454   0.00000  Uiso   1.00
C1199  C     0.49892   0.83306   0.66352   0.00000  Uiso   1.00
C1200  C     0.50108   0.83361   0.83648   0.00000  Uiso   1.00
C1201  C     0.53184   0.86065   0.90758   0.00000  Uiso   1.00
C1202  C     0.46816   0.80601   0.59242   0.00000  Uiso   1.00
C1203  C     0.50226   0.83422   0.88420   0.00000  Uiso   1.00
C1204  C     0.49774   0.83245   0.61580   0.00000  Uiso   1.00
C1205  C     0.47326   0.80757   0.90600   0.00000  Uiso   1.00
C1206  C     0.52673   0.85910   0.59400   0.00000  Uiso   1.00
C1207  C     0.47218   0.80724   0.95196   0.00000  Uiso   1.00
C1208  C     0.52782   0.85942   0.54804   0.00000  Uiso   1.00
C1209  C     0.50091   0.83370   0.97664   0.00000  Uiso   1.00
C1210  C     0.49908   0.83297   0.52335   0.00000  Uiso   1.00
C1211  C     0.53137   0.86074   0.95461   0.00000  Uiso   1.00
C1212  C     0.46863   0.80592   0.54539   0.00000  Uiso   1.00
C1213  C     0.44233   0.78078   0.97319   0.00000  Uiso   1.00
C1214  C     0.55766   0.88589   0.52681   0.00000  Uiso   1.00
H1215  H     0.45095   0.78750   0.88683   0.00000  Uiso   1.00
H1216  H     0.54904   0.87916   0.61317   0.00000  Uiso   1.00
H1217  H     0.42041   0.76063   0.95369   0.00000  Uiso   1.00
H1218  H     0.57959   0.90604   0.54631   0.00000  Uiso   1.00
H1219  H     0.55168   0.70923   0.79424   0.00000  Uiso   1.00
H1220  H     0.44832   0.95744   0.70576   0.00000  Uiso   1.00
H1221  H     0.44824   0.70832   0.70588   0.00000  Uiso   1.00
H1222  H     0.55176   0.95834   0.79412   0.00000  Uiso   1.00
N1223  N     0.50000   0.95240   0.75000   0.00000  Uiso   1.00
N1224  N     0.50000   0.71427   0.75000   0.00000  Uiso   1.00
O1225  O     0.43892   0.87154   0.74999   0.00000  Uiso   1.00
O1226  O     0.56108   0.79513   0.75001   0.00000  Uiso   1.00
O1227  O     0.56108   0.87154   0.75000   0.00000  Uiso   1.00
O1228  O     0.43892   0.79513   0.74999   0.00000  Uiso   1.00
O1229  O     0.49999   0.87156   0.68392   0.00000  Uiso   1.00
O1230  O     0.50001   0.79511   0.81607   0.00000  Uiso   1.00
O1231  O     0.50001   0.87156   0.81607   0.00000  Uiso   1.00
O1232  O     0.49999   0.79511   0.68392   0.00000  Uiso   1.00
Zn1233 Zn    0.50000   0.88437   0.75000   0.00000  Uiso   1.00
Zn1234 Zn    0.50000   0.78229   0.75000   0.00000  Uiso   1.00
N1235  N     0.56280   0.88605   0.88372   0.00000  Uiso   1.00
H1236  H     0.57811   0.86468   0.86100   0.00000  Uiso   1.00
H1237  H     0.54805   0.91217   0.86649   0.00000  Uiso   1.00
N1238  N     0.43720   0.78062   0.61628   0.00000  Uiso   1.00
H1239  H     0.45195   0.75450   0.63350   0.00000  Uiso   1.00
H1240  H     0.42189   0.80198   0.63900   0.00000  Uiso   1.00
N1241  N     0.40889   0.75171   0.53956   0.00000  Uiso   1.00
H1242  H     0.37951   0.76223   0.52819   0.00000  Uiso   1.00
H1243  H     0.41360   0.71838   0.52860   0.00000  Uiso   1.00
N1244  N     0.59110   0.91497   0.96044   0.00000  Uiso   1.00
H1245  H     0.58639   0.94830   0.97140   0.00000  Uiso   1.00
H1246  H     0.62048   0.90445   0.97181   0.00000  Uiso   1.00
N1247  N     0.37851   0.78578   0.81697   0.00000  Uiso   1.00
H1248  H     0.37055   0.75148   0.81589   0.00000  Uiso   1.00
H1249  H     0.37045   0.79912   0.84825   0.00000  Uiso   1.00
N1250  N     0.62149   0.88089   0.68303   0.00000  Uiso   1.00
H1251  H     0.62945   0.91518   0.68411   0.00000  Uiso   1.00
H1252  H     0.62955   0.86754   0.65175   0.00000  Uiso   1.00
N1253  N     0.62196   0.78544   0.81685   0.00000  Uiso   1.00
H1254  H     0.63034   0.79837   0.84822   0.00000  Uiso   1.00
H1255  H     0.62987   0.75113   0.81535   0.00000  Uiso   1.00
N1256  N     0.37804   0.88123   0.68316   0.00000  Uiso   1.00
H1257  H     0.36966   0.86830   0.65178   0.00000  Uiso   1.00
H1258  H     0.37013   0.91554   0.68465   0.00000  Uiso   1.00
C1259  C     0.75346   0.83334   0.74994   0.00000  Uiso   1.00
C1260  C     0.91321   0.83333   0.75006   0.00000  Uiso   1.00
C1261  C     0.77346   0.77973   0.51952   0.00000  Uiso   1.00
C1262  C     0.89321   0.88694   0.98048   0.00000  Uiso   1.00
C1263  C     0.68850   0.80906   0.78313   0.00000  Uiso   1.00
C1264  C     0.97817   0.85761   0.71687   0.00000  Uiso   1.00
C1265  C     0.97839   0.80900   0.78314   0.00000  Uiso   1.00
C1266  C     0.68827   0.85767   0.71686   0.00000  Uiso   1.00
C1267  C     0.95735   0.83331   0.75004   0.00000  Uiso   1.00
C1268  C     0.70932   0.83335   0.74996   0.00000  Uiso   1.00
C1269  C     0.86205   0.69089   0.77457   0.00000  Uiso   1.00
C1270  C     0.80461   0.97578   0.72543   0.00000  Uiso   1.00
C1271  C     0.80460   0.69039   0.72546   0.00000  Uiso   1.00
C1272  C     0.86207   0.97628   0.77454   0.00000  Uiso   1.00
C1273  C     0.83226   0.83306   0.66352   0.00000  Uiso   1.00
C1274  C     0.83441   0.83361   0.83648   0.00000  Uiso   1.00
C1275  C     0.86518   0.86065   0.90758   0.00000  Uiso   1.00
C1276  C     0.80149   0.80601   0.59242   0.00000  Uiso   1.00
C1277  C     0.83559   0.83422   0.88420   0.00000  Uiso   1.00
C1278  C     0.83107   0.83245   0.61580   0.00000  Uiso   1.00
C1279  C     0.80660   0.80757   0.90600   0.00000  Uiso   1.00
C1280  C     0.86007   0.85910   0.59400   0.00000  Uiso   1.00
C1281  C     0.80551   0.80724   0.95196   0.00000  Uiso   1.00
C1282  C     0.86115   0.85942   0.54804   0.00000  Uiso   1.00
C1283  C     0.83425   0.83370   0.97664   0.00000  Uiso   1.00
C1284  C     0.83242   0.83297   0.52335   0.00000  Uiso   1.00
C1285  C     0.86470   0.86074   0.95461   0.00000  Uiso   1.00
C1286  C     0.80196   0.80592   0.54539   0.00000  Uiso   1.00
C1287  C     0.77567   0.78078   0.97319   0.00000  Uiso   1.00
C1288  C     0.89099   0.88589   0.52681   0.00000  Uiso   1.00
H1289  H     0.78429   0.78750   0.88683   0.00000  Uiso   1.00
H1290  H     0.88238   0.87916   0.61317   0.00000  Uiso   1.00
H1291  H     0.75374   0.76063   0.95369   0.00000  Uiso   1.00
H1292  H     0.91292   0.90604   0.54631   0.00000  Uiso   1.00
H1293  H     0.88501   0.70923   0.79424   0.00000  Uiso   1.00
H1294  H     0.78165   0.95744   0.70576   0.00000  Uiso   1.00
H1295  H     0.78158   0.70832   0.70588   0.00000  Uiso   1.00
H1296  H     0.88509   0.95834   0.79412   0.00000  Uiso   1.00
N1297  N     0.83333   0.95240   0.75000   0.00000  Uiso   1.00
N1298  N     0.83333   0.71427   0.75000   0.00000  Uiso   1.00
O1299  O     0.77226   0.87154   0.74999   0.00000  Uiso   1.00
O1300  O     0.89441   0.79513   0.75001   0.00000  Uiso   1.00
O1301  O     0.89441   0.87154   0.75000   0.00000  Uiso   1.00
O1302  O     0.77226   0.79513   0.74999   0.00000  Uiso   1.00
O1303  O     0.83333   0.87156   0.68392   0.00000  Uiso   1.00
O1304  O     0.83334   0.79511   0.81607   0.00000  Uiso   1.00
O1305  O     0.83334   0.87156   0.81607   0.00000  Uiso   1.00
O1306  O     0.83333   0.79511   0.68392   0.00000  Uiso   1.00
Zn1307 Zn    0.83333   0.88437   0.75000   0.00000  Uiso   1.00
Zn1308 Zn    0.83333   0.78229   0.75000   0.00000  Uiso   1.00
N1309  N     0.89613   0.88605   0.88372   0.00000  Uiso   1.00
H1310  H     0.91145   0.86468   0.86100   0.00000  Uiso   1.00
H1311  H     0.88139   0.91217   0.86649   0.00000  Uiso   1.00
N1312  N     0.77054   0.78062   0.61628   0.00000  Uiso   1.00
H1313  H     0.78528   0.75450   0.63350   0.00000  Uiso   1.00
H1314  H     0.75522   0.80198   0.63900   0.00000  Uiso   1.00
N1315  N     0.74222   0.75171   0.53956   0.00000  Uiso   1.00
H1316  H     0.71285   0.76223   0.52819   0.00000  Uiso   1.00
H1317  H     0.74693   0.71838   0.52860   0.00000  Uiso   1.00
N1318  N     0.92444   0.91497   0.96044   0.00000  Uiso   1.00
H1319  H     0.91972   0.94830   0.97140   0.00000  Uiso   1.00
H1320  H     0.95381   0.90445   0.97181   0.00000  Uiso   1.00
N1321  N     0.71184   0.78578   0.81697   0.00000  Uiso   1.00
H1322  H     0.70388   0.75148   0.81589   0.00000  Uiso   1.00
H1323  H     0.70378   0.79912   0.84825   0.00000  Uiso   1.00
N1324  N     0.95483   0.88089   0.68303   0.00000  Uiso   1.00
H1325  H     0.96278   0.91518   0.68411   0.00000  Uiso   1.00
H1326  H     0.96289   0.86754   0.65175   0.00000  Uiso   1.00
N1327  N     0.95529   0.78544   0.81685   0.00000  Uiso   1.00
H1328  H     0.96368   0.79837   0.84822   0.00000  Uiso   1.00
H1329  H     0.96320   0.75113   0.81535   0.00000  Uiso   1.00
N1330  N     0.71138   0.88123   0.68316   0.00000  Uiso   1.00
H1331  H     0.70299   0.86830   0.65178   0.00000  Uiso   1.00
H1332  H     0.70346   0.91554   0.68465   0.00000  Uiso   1.00
loop_
_geom_bond_atom_site_label_1
_geom_bond_atom_site_label_2
_geom_bond_distance
_geom_bond_site_symmetry_2
_ccdc_geom_bond_type
C1     O44     1.279   .     A
C1     O41     1.279   .     A
C1     C10     1.410   .     S
C2     O43     1.279   .     A
C2     O42     1.279   .     A
C2     C9      1.410   .     S
C3     C28     1.419   .     A
C3     N57     1.434   .     S
C3     C695    1.390   1_554 S
C4     N60     1.434   .     S
C4     C27     1.419   .     A
C4     C696    1.390   .     S
C5     C10     1.401   .     A
C5     N63     1.438   .     S
C5     C155    1.388   1_455 S
C6     N66     1.438   .     S
C6     C9      1.401   .     A
C6     C82     1.388   .     S
C7     N69     1.437   .     S
C7     C9      1.401   .     A
C7     C79     1.388   .     S
C8     N72     1.437   .     S
C8     C10     1.401   .     A
C8     C154    1.388   1_455 S
C11    N40     1.366   .     A
C11    H35     1.082   .     S
C11    C458    1.417   1_545 S
C12    H36     1.082   .     S
C12    N39     1.366   .     A
C12    C235    1.417   .     S
C13    H37     1.081   .     S
C13    N40     1.367   .     A
C13    C456    1.417   1_545 S
C14    H38     1.081   .     S
C14    N39     1.367   .     A
C14    C233    1.417   .     S
C15    O48     1.283   .     A
C15    C20     1.429   .     S
C15    O45     1.286   .     A
C16    C19     1.429   .     S
C16    O47     1.283   .     A
C16    O46     1.286   .     A
C17    N51     1.438   .     S
C17    C27     1.408   .     A
C17    C19     1.407   .     A
C18    C20     1.407   .     A
C18    N54     1.438   .     S
C18    C28     1.408   .     A
C19    C21     1.385   .     A
C20    C22     1.385   .     A
C21    H31     1.086   .     S
C21    C23     1.377   .     A
C22    H32     1.086   .     S
C22    C24     1.377   .     A
C23    C29     1.392   .     A
C23    C25     1.409   .     A
C24    C30     1.392   .     A
C24    C26     1.409   .     A
C25    C27     1.427   .     A
C25    C692    1.400   .     S
C26    C28     1.427   .     A
C26    C691    1.400   1_554 S
C29    H33     1.085   .     S
C29    C669    1.390   .     S
C30    H34     1.085   .     S
C30    C670    1.390   1_554 S
N39    Zn49    2.010   .     S
N40    Zn50    2.010   .     S
O41    Zn49    1.988   .     S
O42    Zn50    1.988   .     S
O43    Zn49    1.988   .     S
O44    Zn50    1.988   .     S
O45    Zn49    2.010   .     S
O46    Zn50    2.010   .     S
O47    Zn49    2.018   .     S
O48    Zn50    2.018   .     S
N51    H53     1.044   .     S
N51    H52     1.045   .     S
N54    H56     1.045   .     S
N54    H55     1.044   .     S
N57    H58     1.046   .     S
N57    H59     1.046   .     S
N60    H62     1.046   .     S
N60    H61     1.046   .     S
N63    H65     1.045   .     S
N63    H64     1.045   .     S
N66    H68     1.045   .     S
N66    H67     1.045   .     S
N69    H71     1.045   .     S
N69    H70     1.045   .     S
N72    H74     1.045   .     S
N72    H73     1.045   .     S
C75    O118    1.279   .     A
C75    O115    1.279   .     A
C75    C84     1.410   .     S
C76    O117    1.279   .     A
C76    O116    1.279   .     A
C76    C83     1.410   .     S
C77    C102    1.419   .     A
C77    N131    1.434   .     S
C77    C769    1.390   1_554 S
C78    N134    1.434   .     S
C78    C101    1.419   .     A
C78    C770    1.390   .     S
C79    C84     1.401   .     A
C79    N137    1.438   .     S
C80    N140    1.438   .     S
C80    C83     1.401   .     A
C80    C156    1.388   .     S
C81    N143    1.437   .     S
C81    C83     1.401   .     A
C81    C153    1.388   .     S
C82    N146    1.437   .     S
C82    C84     1.401   .     A
C85    N114    1.366   .     A
C85    H109    1.082   .     S
C85    C532    1.417   1_545 S
C86    H110    1.082   .     S
C86    N113    1.366   .     A
C86    C309    1.417   .     S
C87    H111    1.081   .     S
C87    N114    1.367   .     A
C87    C530    1.417   1_545 S
C88    H112    1.081   .     S
C88    N113    1.367   .     A
C88    C307    1.417   .     S
C89    O122    1.283   .     A
C89    C94     1.429   .     S
C89    O119    1.286   .     A
C90    C93     1.429   .     S
C90    O121    1.283   .     A
C90    O120    1.286   .     A
C91    N125    1.438   .     S
C91    C101    1.408   .     A
C91    C93     1.407   .     A
C92    C94     1.407   .     A
C92    N128    1.438   .     S
C92    C102    1.408   .     A
C93    C95     1.385   .     A
C94    C96     1.385   .     A
C95    H105    1.086   .     S
C95    C97     1.377   .     A
C96    H106    1.086   .     S
C96    C98     1.377   .     A
C97    C103    1.392   .     A
C97    C99     1.409   .     A
C98    C104    1.392   .     A
C98    C100    1.409   .     A
C99    C101    1.427   .     A
C99    C766    1.400   .     S
C100   C102    1.427   .     A
C100   C765    1.400   1_554 S
C103   H107    1.085   .     S
C103   C743    1.390   .     S
C104   H108    1.085   .     S
C104   C744    1.390   1_554 S
N113   Zn123   2.010   .     S
N114   Zn124   2.010   .     S
O115   Zn123   1.988   .     S
O116   Zn124   1.988   .     S
O117   Zn123   1.988   .     S
O118   Zn124   1.988   .     S
O119   Zn123   2.010   .     S
O120   Zn124   2.010   .     S
O121   Zn123   2.018   .     S
O122   Zn124   2.018   .     S
N125   H127    1.044   .     S
N125   H126    1.045   .     S
N128   H130    1.045   .     S
N128   H129    1.044   .     S
N131   H132    1.046   .     S
N131   H133    1.046   .     S
N134   H136    1.046   .     S
N134   H135    1.046   .     S
N137   H139    1.045   .     S
N137   H138    1.045   .     S
N140   H142    1.045   .     S
N140   H141    1.045   .     S
N143   H145    1.045   .     S
N143   H144    1.045   .     S
N146   H148    1.045   .     S
N146   H147    1.045   .     S
C149   O192    1.279   .     A
C149   O189    1.279   .     A
C149   C158    1.410   .     S
C150   O191    1.279   .     A
C150   O190    1.279   .     A
C150   C157    1.410   .     S
C151   C176    1.419   .     A
C151   N205    1.434   .     S
C151   C843    1.390   1_554 S
C152   N208    1.434   .     S
C152   C175    1.419   .     A
C152   C844    1.390   .     S
C153   C158    1.401   .     A
C153   N211    1.438   .     S
C154   N214    1.438   .     S
C154   C157    1.401   .     A
C154   C8      1.388   1_655 S
C155   N217    1.437   .     S
C155   C157    1.401   .     A
C155   C5      1.388   1_655 S
C156   N220    1.437   .     S
C156   C158    1.401   .     A
C159   N188    1.366   .     A
C159   H183    1.082   .     S
C159   C606    1.417   1_545 S
C160   H184    1.082   .     S
C160   N187    1.366   .     A
C160   C383    1.417   .     S
C161   H185    1.081   .     S
C161   N188    1.367   .     A
C161   C604    1.417   1_545 S
C162   H186    1.081   .     S
C162   N187    1.367   .     A
C162   C381    1.417   .     S
C163   O196    1.283   .     A
C163   C168    1.429   .     S
C163   O193    1.286   .     A
C164   C167    1.429   .     S
C164   O195    1.283   .     A
C164   O194    1.286   .     A
C165   N199    1.438   .     S
C165   C175    1.408   .     A
C165   C167    1.407   .     A
C166   C168    1.407   .     A
C166   N202    1.438   .     S
C166   C176    1.408   .     A
C167   C169    1.385   .     A
C168   C170    1.385   .     A
C169   H179    1.086   .     S
C169   C171    1.377   .     A
C170   H180    1.086   .     S
C170   C172    1.377   .     A
C171   C177    1.392   .     A
C171   C173    1.409   .     A
C172   C178    1.392   .     A
C172   C174    1.409   .     A
C173   C175    1.427   .     A
C173   C840    1.400   .     S
C174   C176    1.427   .     A
C174   C839    1.400   1_554 S
C177   H181    1.085   .     S
C177   C817    1.390   .     S
C178   H182    1.085   .     S
C178   C818    1.390   1_554 S
N187   Zn197   2.010   .     S
N188   Zn198   2.010   .     S
O189   Zn197   1.988   .     S
O190   Zn198   1.988   .     S
O191   Zn197   1.988   .     S
O192   Zn198   1.988   .     S
O193   Zn197   2.010   .     S
O194   Zn198   2.010   .     S
O195   Zn197   2.018   .     S
O196   Zn198   2.018   .     S
N199   H201    1.044   .     S
N199   H200    1.045   .     S
N202   H204    1.045   .     S
N202   H203    1.044   .     S
N205   H206    1.046   .     S
N205   H207    1.046   .     S
N208   H210    1.046   .     S
N208   H209    1.046   .     S
N211   H213    1.045   .     S
N211   H212    1.045   .     S
N214   H216    1.045   .     S
N214   H215    1.045   .     S
N217   H219    1.045   .     S
N217   H218    1.045   .     S
N220   H222    1.045   .     S
N220   H221    1.045   .     S
C223   O266    1.279   .     A
C223   O263    1.279   .     A
C223   C232    1.410   .     S
C224   O265    1.279   .     A
C224   O264    1.279   .     A
C224   C231    1.410   .     S
C225   C250    1.419   .     A
C225   N279    1.434   .     S
C225   C917    1.390   1_554 S
C226   N282    1.434   .     S
C226   C249    1.419   .     A
C226   C918    1.390   .     S
C227   C232    1.401   .     A
C227   N285    1.438   .     S
C227   C377    1.388   1_455 S
C228   N288    1.438   .     S
C228   C231    1.401   .     A
C228   C304    1.388   .     S
C229   N291    1.437   .     S
C229   C231    1.401   .     A
C229   C301    1.388   .     S
C230   N294    1.437   .     S
C230   C232    1.401   .     A
C230   C376    1.388   1_455 S
C233   N262    1.366   .     A
C233   H257    1.082   .     S
C234   H258    1.082   .     S
C234   N261    1.366   .     A
C234   C457    1.417   .     S
C235   H259    1.081   .     S
C235   N262    1.367   .     A
C236   H260    1.081   .     S
C236   N261    1.367   .     A
C236   C455    1.417   .     S
C237   O270    1.283   .     A
C237   C242    1.429   .     S
C237   O267    1.286   .     A
C238   C241    1.429   .     S
C238   O269    1.283   .     A
C238   O268    1.286   .     A
C239   N273    1.438   .     S
C239   C249    1.408   .     A
C239   C241    1.407   .     A
C240   C242    1.407   .     A
C240   N276    1.438   .     S
C240   C250    1.408   .     A
C241   C243    1.385   .     A
C242   C244    1.385   .     A
C243   H253    1.086   .     S
C243   C245    1.377   .     A
C244   H254    1.086   .     S
C244   C246    1.377   .     A
C245   C251    1.392   .     A
C245   C247    1.409   .     A
C246   C252    1.392   .     A
C246   C248    1.409   .     A
C247   C249    1.427   .     A
C247   C914    1.400   .     S
C248   C250    1.427   .     A
C248   C913    1.400   1_554 S
C251   H255    1.085   .     S
C251   C891    1.390   .     S
C252   H256    1.085   .     S
C252   C892    1.390   1_554 S
N261   Zn271   2.010   .     S
N262   Zn272   2.010   .     S
O263   Zn271   1.988   .     S
O264   Zn272   1.988   .     S
O265   Zn271   1.988   .     S
O266   Zn272   1.988   .     S
O267   Zn271   2.010   .     S
O268   Zn272   2.010   .     S
O269   Zn271   2.018   .     S
O270   Zn272   2.018   .     S
N273   H275    1.044   .     S
N273   H274    1.045   .     S
N276   H278    1.045   .     S
N276   H277    1.044   .     S
N279   H280    1.046   .     S
N279   H281    1.046   .     S
N282   H284    1.046   .     S
N282   H283    1.046   .     S
N285   H287    1.045   .     S
N285   H286    1.045   .     S
N288   H290    1.045   .     S
N288   H289    1.045   .     S
N291   H293    1.045   .     S
N291   H292    1.045   .     S
N294   H296    1.045   .     S
N294   H295    1.045   .     S
C297   O340    1.279   .     A
C297   O337    1.279   .     A
C297   C306    1.410   .     S
C298   O339    1.279   .     A
C298   O338    1.279   .     A
C298   C305    1.410   .     S
C299   C324    1.419   .     A
C299   N353    1.434   .     S
C299   C991    1.390   1_554 S
C300   N356    1.434   .     S
C300   C323    1.419   .     A
C300   C992    1.390   .     S
C301   C306    1.401   .     A
C301   N359    1.438   .     S
C302   N362    1.438   .     S
C302   C305    1.401   .     A
C302   C378    1.388   .     S
C303   N365    1.437   .     S
C303   C305    1.401   .     A
C303   C375    1.388   .     S
C304   N368    1.437   .     S
C304   C306    1.401   .     A
C307   N336    1.366   .     A
C307   H331    1.082   .     S
C308   H332    1.082   .     S
C308   N335    1.366   .     A
C308   C531    1.417   .     S
C309   H333    1.081   .     S
C309   N336    1.367   .     A
C310   H334    1.081   .     S
C310   N335    1.367   .     A
C310   C529    1.417   .     S
C311   O344    1.283   .     A
C311   C316    1.429   .     S
C311   O341    1.286   .     A
C312   C315    1.429   .     S
C312   O343    1.283   .     A
C312   O342    1.286   .     A
C313   N347    1.438   .     S
C313   C323    1.408   .     A
C313   C315    1.407   .     A
C314   C316    1.407   .     A
C314   N350    1.438   .     S
C314   C324    1.408   .     A
C315   C317    1.385   .     A
C316   C318    1.385   .     A
C317   H327    1.086   .     S
C317   C319    1.377   .     A
C318   H328    1.086   .     S
C318   C320    1.377   .     A
C319   C325    1.392   .     A
C319   C321    1.409   .     A
C320   C326    1.392   .     A
C320   C322    1.409   .     A
C321   C323    1.427   .     A
C321   C988    1.400   .     S
C322   C324    1.427   .     A
C322   C987    1.400   1_554 S
C325   H329    1.085   .     S
C325   C965    1.390   .     S
C326   H330    1.085   .     S
C326   C966    1.390   1_554 S
N335   Zn345   2.010   .     S
N336   Zn346   2.010   .     S
O337   Zn345   1.988   .     S
O338   Zn346   1.988   .     S
O339   Zn345   1.988   .     S
O340   Zn346   1.988   .     S
O341   Zn345   2.010   .     S
O342   Zn346   2.010   .     S
O343   Zn345   2.018   .     S
O344   Zn346   2.018   .     S
N347   H349    1.044   .     S
N347   H348    1.045   .     S
N350   H352    1.045   .     S
N350   H351    1.044   .     S
N353   H354    1.046   .     S
N353   H355    1.046   .     S
N356   H358    1.046   .     S
N356   H357    1.046   .     S
N359   H361    1.045   .     S
N359   H360    1.045   .     S
N362   H364    1.045   .     S
N362   H363    1.045   .     S
N365   H367    1.045   .     S
N365   H366    1.045   .     S
N368   H370    1.045   .     S
N368   H369    1.045   .     S
C371   O414    1.279   .     A
C371   O411    1.279   .     A
C371   C380    1.410   .     S
C372   O413    1.279   .     A
C372   O412    1.279   .     A
C372   C379    1.410   .     S
C373   C398    1.419   .     A
C373   N427    1.434   .     S
C373   C1065   1.390   1_554 S
C374   N430    1.434   .     S
C374   C397    1.419   .     A
C374   C1066   1.390   .     S
C375   C380    1.401   .     A
C375   N433    1.438   .     S
C376   N436    1.438   .     S
C376   C379    1.401   .     A
C376   C230    1.388   1_655 S
C377   N439    1.437   .     S
C377   C379    1.401   .     A
C377   C227    1.388   1_655 S
C378   N442    1.437   .     S
C378   C380    1.401   .     A
C381   N410    1.366   .     A
C381   H405    1.082   .     S
C382   H406    1.082   .     S
C382   N409    1.366   .     A
C382   C605    1.417   .     S
C383   H407    1.081   .     S
C383   N410    1.367   .     A
C384   H408    1.081   .     S
C384   N409    1.367   .     A
C384   C603    1.417   .     S
C385   O418    1.283   .     A
C385   C390    1.429   .     S
C385   O415    1.286   .     A
C386   C389    1.429   .     S
C386   O417    1.283   .     A
C386   O416    1.286   .     A
C387   N421    1.438   .     S
C387   C397    1.408   .     A
C387   C389    1.407   .     A
C388   C390    1.407   .     A
C388   N424    1.438   .     S
C388   C398    1.408   .     A
C389   C391    1.385   .     A
C390   C392    1.385   .     A
C391   H401    1.086   .     S
C391   C393    1.377   .     A
C392   H402    1.086   .     S
C392   C394    1.377   .     A
C393   C399    1.392   .     A
C393   C395    1.409   .     A
C394   C400    1.392   .     A
C394   C396    1.409   .     A
C395   C397    1.427   .     A
C395   C1062   1.400   .     S
C396   C398    1.427   .     A
C396   C1061   1.400   1_554 S
C399   H403    1.085   .     S
C399   C1039   1.390   .     S
C400   H404    1.085   .     S
C400   C1040   1.390   1_554 S
N409   Zn419   2.010   .     S
N410   Zn420   2.010   .     S
O411   Zn419   1.988   .     S
O412   Zn420   1.988   .     S
O413   Zn419   1.988   .     S
O414   Zn420   1.988   .     S
O415   Zn419   2.010   .     S
O416   Zn420   2.010   .     S
O417   Zn419   2.018   .     S
O418   Zn420   2.018   .     S
N421   H423    1.044   .     S
N421   H422    1.045   .     S
N424   H426    1.045   .     S
N424   H425    1.044   .     S
N427   H428    1.046   .     S
N427   H429    1.046   .     S
N430   H432    1.046   .     S
N430   H431    1.046   .     S
N433   H435    1.045   .     S
N433   H434    1.045   .     S
N436   H438    1.045   .     S
N436   H437    1.045   .     S
N439   H441    1.045   .     S
N439   H440    1.045   .     S
N442   H444    1.045   .     S
N442   H443    1.045   .     S
C445   O488    1.279   .     A
C445   O485    1.279   .     A
C445   C454    1.410   .     S
C446   O487    1.279   .     A
C446   O486    1.279   .     A
C446   C453    1.410   .     S
C447   C472    1.419   .     A
C447   N501    1.434   .     S
C447   C1139   1.390   1_554 S
C448   N504    1.434   .     S
C448   C471    1.419   .     A
C448   C1140   1.390   .     S
C449   C454    1.401   .     A
C449   N507    1.438   .     S
C449   C599    1.388   1_455 S
C450   N510    1.438   .     S
C450   C453    1.401   .     A
C450   C526    1.388   .     S
C451   N513    1.437   .     S
C451   C453    1.401   .     A
C451   C523    1.388   .     S
C452   N516    1.437   .     S
C452   C454    1.401   .     A
C452   C598    1.388   1_455 S
C455   N484    1.366   .     A
C455   H479    1.082   .     S
C456   H480    1.082   .     S
C456   N483    1.366   .     A
C456   C13     1.417   1_565 S
C457   H481    1.081   .     S
C457   N484    1.367   .     A
C458   H482    1.081   .     S
C458   N483    1.367   .     A
C458   C11     1.417   1_565 S
C459   O492    1.283   .     A
C459   C464    1.429   .     S
C459   O489    1.286   .     A
C460   C463    1.429   .     S
C460   O491    1.283   .     A
C460   O490    1.286   .     A
C461   N495    1.438   .     S
C461   C471    1.408   .     A
C461   C463    1.407   .     A
C462   C464    1.407   .     A
C462   N498    1.438   .     S
C462   C472    1.408   .     A
C463   C465    1.385   .     A
C464   C466    1.385   .     A
C465   H475    1.086   .     S
C465   C467    1.377   .     A
C466   H476    1.086   .     S
C466   C468    1.377   .     A
C467   C473    1.392   .     A
C467   C469    1.409   .     A
C468   C474    1.392   .     A
C468   C470    1.409   .     A
C469   C471    1.427   .     A
C469   C1136   1.400   .     S
C470   C472    1.427   .     A
C470   C1135   1.400   1_554 S
C473   H477    1.085   .     S
C473   C1113   1.390   .     S
C474   H478    1.085   .     S
C474   C1114   1.390   1_554 S
N483   Zn493   2.010   .     S
N484   Zn494   2.010   .     S
O485   Zn493   1.988   .     S
O486   Zn494   1.988   .     S
O487   Zn493   1.988   .     S
O488   Zn494   1.988   .     S
O489   Zn493   2.010   .     S
O490   Zn494   2.010   .     S
O491   Zn493   2.018   .     S
O492   Zn494   2.018   .     S
N495   H497    1.044   .     S
N495   H496    1.045   .     S
N498   H500    1.045   .     S
N498   H499    1.044   .     S
N501   H502    1.046   .     S
N501   H503    1.046   .     S
N504   H506    1.046   .     S
N504   H505    1.046   .     S
N507   H509    1.045   .     S
N507   H508    1.045   .     S
N510   H512    1.045   .     S
N510   H511    1.045   .     S
N513   H515    1.045   .     S
N513   H514    1.045   .     S
N516   H518    1.045   .     S
N516   H517    1.045   .     S
C519   O562    1.279   .     A
C519   O559    1.279   .     A
C519   C528    1.410   .     S
C520   O561    1.279   .     A
C520   O560    1.279   .     A
C520   C527    1.410   .     S
C521   C546    1.419   .     A
C521   N575    1.434   .     S
C521   C1213   1.390   1_554 S
C522   N578    1.434   .     S
C522   C545    1.419   .     A
C522   C1214   1.390   .     S
C523   C528    1.401   .     A
C523   N581    1.438   .     S
C524   N584    1.438   .     S
C524   C527    1.401   .     A
C524   C600    1.388   .     S
C525   N587    1.437   .     S
C525   C527    1.401   .     A
C525   C597    1.388   .     S
C526   N590    1.437   .     S
C526   C528    1.401   .     A
C529   N558    1.366   .     A
C529   H553    1.082   .     S
C530   H554    1.082   .     S
C530   N557    1.366   .     A
C530   C87     1.417   1_565 S
C531   H555    1.081   .     S
C531   N558    1.367   .     A
C532   H556    1.081   .     S
C532   N557    1.367   .     A
C532   C85     1.417   1_565 S
C533   O566    1.283   .     A
C533   C538    1.429   .     S
C533   O563    1.286   .     A
C534   C537    1.429   .     S
C534   O565    1.283   .     A
C534   O564    1.286   .     A
C535   N569    1.438   .     S
C535   C545    1.408   .     A
C535   C537    1.407   .     A
C536   C538    1.407   .     A
C536   N572    1.438   .     S
C536   C546    1.408   .     A
C537   C539    1.385   .     A
C538   C540    1.385   .     A
C539   H549    1.086   .     S
C539   C541    1.377   .     A
C540   H550    1.086   .     S
C540   C542    1.377   .     A
C541   C547    1.392   .     A
C541   C543    1.409   .     A
C542   C548    1.392   .     A
C542   C544    1.409   .     A
C543   C545    1.427   .     A
C543   C1210   1.400   .     S
C544   C546    1.427   .     A
C544   C1209   1.400   1_554 S
C547   H551    1.085   .     S
C547   C1187   1.390   .     S
C548   H552    1.085   .     S
C548   C1188   1.390   1_554 S
N557   Zn567   2.010   .     S
N558   Zn568   2.010   .     S
O559   Zn567   1.988   .     S
O560   Zn568   1.988   .     S
O561   Zn567   1.988   .     S
O562   Zn568   1.988   .     S
O563   Zn567   2.010   .     S
O564   Zn568   2.010   .     S
O565   Zn567   2.018   .     S
O566   Zn568   2.018   .     S
N569   H571    1.044   .     S
N569   H570    1.045   .     S
N572   H574    1.045   .     S
N572   H573    1.044   .     S
N575   H576    1.046   .     S
N575   H577    1.046   .     S
N578   H580    1.046   .     S
N578   H579    1.046   .     S
N581   H583    1.045   .     S
N581   H582    1.045   .     S
N584   H586    1.045   .     S
N584   H585    1.045   .     S
N587   H589    1.045   .     S
N587   H588    1.045   .     S
N590   H592    1.045   .     S
N590   H591    1.045   .     S
C593   O636    1.279   .     A
C593   O633    1.279   .     A
C593   C602    1.410   .     S
C594   O635    1.279   .     A
C594   O634    1.279   .     A
C594   C601    1.410   .     S
C595   C620    1.419   .     A
C595   N649    1.434   .     S
C595   C1287   1.390   1_554 S
C596   N652    1.434   .     S
C596   C619    1.419   .     A
C596   C1288   1.390   .     S
C597   C602    1.401   .     A
C597   N655    1.438   .     S
C598   N658    1.438   .     S
C598   C601    1.401   .     A
C598   C452    1.388   1_655 S
C599   N661    1.437   .     S
C599   C601    1.401   .     A
C599   C449    1.388   1_655 S
C600   N664    1.437   .     S
C600   C602    1.401   .     A
C603   N632    1.366   .     A
C603   H627    1.082   .     S
C604   H628    1.082   .     S
C604   N631    1.366   .     A
C604   C161    1.417   1_565 S
C605   H629    1.081   .     S
C605   N632    1.367   .     A
C606   H630    1.081   .     S
C606   N631    1.367   .     A
C606   C159    1.417   1_565 S
C607   O640    1.283   .     A
C607   C612    1.429   .     S
C607   O637    1.286   .     A
C608   C611    1.429   .     S
C608   O639    1.283   .     A
C608   O638    1.286   .     A
C609   N643    1.438   .     S
C609   C619    1.408   .     A
C609   C611    1.407   .     A
C610   C612    1.407   .     A
C610   N646    1.438   .     S
C610   C620    1.408   .     A
C611   C613    1.385   .     A
C612   C614    1.385   .     A
C613   H623    1.086   .     S
C613   C615    1.377   .     A
C614   H624    1.086   .     S
C614   C616    1.377   .     A
C615   C621    1.392   .     A
C615   C617    1.409   .     A
C616   C622    1.392   .     A
C616   C618    1.409   .     A
C617   C619    1.427   .     A
C617   C1284   1.400   .     S
C618   C620    1.427   .     A
C618   C1283   1.400   1_554 S
C621   H625    1.085   .     S
C621   C1261   1.390   .     S
C622   H626    1.085   .     S
C622   C1262   1.390   1_554 S
N631   Zn641   2.010   .     S
N632   Zn642   2.010   .     S
O633   Zn641   1.988   .     S
O634   Zn642   1.988   .     S
O635   Zn641   1.988   .     S
O636   Zn642   1.988   .     S
O637   Zn641   2.010   .     S
O638   Zn642   2.010   .     S
O639   Zn641   2.018   .     S
O640   Zn642   2.018   .     S
N643   H645    1.044   .     S
N643   H644    1.045   .     S
N646   H648    1.045   .     S
N646   H647    1.044   .     S
N649   H650    1.046   .     S
N649   H651    1.046   .     S
N652   H654    1.046   .     S
N652   H653    1.046   .     S
N655   H657    1.045   .     S
N655   H656    1.045   .     S
N658   H660    1.045   .     S
N658   H659    1.045   .     S
N661   H663    1.045   .     S
N661   H662    1.045   .     S
N664   H666    1.045   .     S
N664   H665    1.045   .     S
C667   O710    1.279   .     A
C667   O707    1.279   .     A
C667   C676    1.410   .     S
C668   O709    1.279   .     A
C668   O708    1.279   .     A
C668   C675    1.410   .     S
C669   C694    1.419   .     A
C669   N723    1.434   .     S
C670   N726    1.434   .     S
C670   C693    1.419   .     A
C670   C30     1.390   1_556 S
C671   C676    1.401   .     A
C671   N729    1.438   .     S
C671   C821    1.388   1_455 S
C672   N732    1.438   .     S
C672   C675    1.401   .     A
C672   C748    1.388   .     S
C673   N735    1.437   .     S
C673   C675    1.401   .     A
C673   C745    1.388   .     S
C674   N738    1.437   .     S
C674   C676    1.401   .     A
C674   C820    1.388   1_455 S
C677   N706    1.366   .     A
C677   H701    1.082   .     S
C677   C1124   1.417   1_545 S
C678   H702    1.082   .     S
C678   N705    1.366   .     A
C678   C901    1.417   .     S
C679   H703    1.081   .     S
C679   N706    1.367   .     A
C679   C1122   1.417   1_545 S
C680   H704    1.081   .     S
C680   N705    1.367   .     A
C680   C899    1.417   .     S
C681   O714    1.283   .     A
C681   C686    1.429   .     S
C681   O711    1.286   .     A
C682   C685    1.429   .     S
C682   O713    1.283   .     A
C682   O712    1.286   .     A
C683   N717    1.438   .     S
C683   C693    1.408   .     A
C683   C685    1.407   .     A
C684   C686    1.407   .     A
C684   N720    1.438   .     S
C684   C694    1.408   .     A
C685   C687    1.385   .     A
C686   C688    1.385   .     A
C687   H697    1.086   .     S
C687   C689    1.377   .     A
C688   H698    1.086   .     S
C688   C690    1.377   .     A
C689   C695    1.392   .     A
C689   C691    1.409   .     A
C690   C696    1.392   .     A
C690   C692    1.409   .     A
C691   C693    1.427   .     A
C691   C26     1.400   1_556 S
C692   C694    1.427   .     A
C695   H699    1.085   .     S
C695   C3      1.390   1_556 S
C696   H700    1.085   .     S
N705   Zn715   2.010   .     S
N706   Zn716   2.010   .     S
O707   Zn715   1.988   .     S
O708   Zn716   1.988   .     S
O709   Zn715   1.988   .     S
O710   Zn716   1.988   .     S
O711   Zn715   2.010   .     S
O712   Zn716   2.010   .     S
O713   Zn715   2.018   .     S
O714   Zn716   2.018   .     S
N717   H719    1.044   .     S
N717   H718    1.045   .     S
N720   H722    1.045   .     S
N720   H721    1.044   .     S
N723   H724    1.046   .     S
N723   H725    1.046   .     S
N726   H728    1.046   .     S
N726   H727    1.046   .     S
N729   H731    1.045   .     S
N729   H730    1.045   .     S
N732   H734    1.045   .     S
N732   H733    1.045   .     S
N735   H737    1.045   .     S
N735   H736    1.045   .     S
N738   H740    1.045   .     S
N738   H739    1.045   .     S
C741   O784    1.279   .     A
C741   O781    1.279   .     A
C741   C750    1.410   .     S
C742   O783    1.279   .     A
C742   O782    1.279   .     A
C742   C749    1.410   .     S
C743   C768    1.419   .     A
C743   N797    1.434   .     S
C744   N800    1.434   .     S
C744   C767    1.419   .     A
C744   C104    1.390   1_556 S
C745   C750    1.401   .     A
C745   N803    1.438   .     S
C746   N806    1.438   .     S
C746   C749    1.401   .     A
C746   C822    1.388   .     S
C747   N809    1.437   .     S
C747   C749    1.401   .     A
C747   C819    1.388   .     S
C748   N812    1.437   .     S
C748   C750    1.401   .     A
C751   N780    1.366   .     A
C751   H775    1.082   .     S
C751   C1198   1.417   1_545 S
C752   H776    1.082   .     S
C752   N779    1.366   .     A
C752   C975    1.417   .     S
C753   H777    1.081   .     S
C753   N780    1.367   .     A
C753   C1196   1.417   1_545 S
C754   H778    1.081   .     S
C754   N779    1.367   .     A
C754   C973    1.417   .     S
C755   O788    1.283   .     A
C755   C760    1.429   .     S
C755   O785    1.286   .     A
C756   C759    1.429   .     S
C756   O787    1.283   .     A
C756   O786    1.286   .     A
C757   N791    1.438   .     S
C757   C767    1.408   .     A
C757   C759    1.407   .     A
C758   C760    1.407   .     A
C758   N794    1.438   .     S
C758   C768    1.408   .     A
C759   C761    1.385   .     A
C760   C762    1.385   .     A
C761   H771    1.086   .     S
C761   C763    1.377   .     A
C762   H772    1.086   .     S
C762   C764    1.377   .     A
C763   C769    1.392   .     A
C763   C765    1.409   .     A
C764   C770    1.392   .     A
C764   C766    1.409   .     A
C765   C767    1.427   .     A
C765   C100    1.400   1_556 S
C766   C768    1.427   .     A
C769   H773    1.085   .     S
C769   C77     1.390   1_556 S
C770   H774    1.085   .     S
N779   Zn789   2.010   .     S
N780   Zn790   2.010   .     S
O781   Zn789   1.988   .     S
O782   Zn790   1.988   .     S
O783   Zn789   1.988   .     S
O784   Zn790   1.988   .     S
O785   Zn789   2.010   .     S
O786   Zn790   2.010   .     S
O787   Zn789   2.018   .     S
O788   Zn790   2.018   .     S
N791   H793    1.044   .     S
N791   H792    1.045   .     S
N794   H796    1.045   .     S
N794   H795    1.044   .     S
N797   H798    1.046   .     S
N797   H799    1.046   .     S
N800   H802    1.046   .     S
N800   H801    1.046   .     S
N803   H805    1.045   .     S
N803   H804    1.045   .     S
N806   H808    1.045   .     S
N806   H807    1.045   .     S
N809   H811    1.045   .     S
N809   H810    1.045   .     S
N812   H814    1.045   .     S
N812   H813    1.045   .     S
C815   O858    1.279   .     A
C815   O855    1.279   .     A
C815   C824    1.410   .     S
C816   O857    1.279   .     A
C816   O856    1.279   .     A
C816   C823    1.410   .     S
C817   C842    1.419   .     A
C817   N871    1.434   .     S
C818   N874    1.434   .     S
C818   C841    1.419   .     A
C818   C178    1.390   1_556 S
C819   C824    1.401   .     A
C819   N877    1.438   .     S
C820   N880    1.438   .     S
C820   C823    1.401   .     A
C820   C674    1.388   1_655 S
C821   N883    1.437   .     S
C821   C823    1.401   .     A
C821   C671    1.388   1_655 S
C822   N886    1.437   .     S
C822   C824    1.401   .     A
C825   N854    1.366   .     A
C825   H849    1.082   .     S
C825   C1272   1.417   1_545 S
C826   H850    1.082   .     S
C826   N853    1.366   .     A
C826   C1049   1.417   .     S
C827   H851    1.081   .     S
C827   N854    1.367   .     A
C827   C1270   1.417   1_545 S
C828   H852    1.081   .     S
C828   N853    1.367   .     A
C828   C1047   1.417   .     S
C829   O862    1.283   .     A
C829   C834    1.429   .     S
C829   O859    1.286   .     A
C830   C833    1.429   .     S
C830   O861    1.283   .     A
C830   O860    1.286   .     A
C831   N865    1.438   .     S
C831   C841    1.408   .     A
C831   C833    1.407   .     A
C832   C834    1.407   .     A
C832   N868    1.438   .     S
C832   C842    1.408   .     A
C833   C835    1.385   .     A
C834   C836    1.385   .     A
C835   H845    1.086   .     S
C835   C837    1.377   .     A
C836   H846    1.086   .     S
C836   C838    1.377   .     A
C837   C843    1.392   .     A
C837   C839    1.409   .     A
C838   C844    1.392   .     A
C838   C840    1.409   .     A
C839   C841    1.427   .     A
C839   C174    1.400   1_556 S
C840   C842    1.427   .     A
C843   H847    1.085   .     S
C843   C151    1.390   1_556 S
C844   H848    1.085   .     S
N853   Zn863   2.010   .     S
N854   Zn864   2.010   .     S
O855   Zn863   1.988   .     S
O856   Zn864   1.988   .     S
O857   Zn863   1.988   .     S
O858   Zn864   1.988   .     S
O859   Zn863   2.010   .     S
O860   Zn864   2.010   .     S
O861   Zn863   2.018   .     S
O862   Zn864   2.018   .     S
N865   H867    1.044   .     S
N865   H866    1.045   .     S
N868   H870    1.045   .     S
N868   H869    1.044   .     S
N871   H872    1.046   .     S
N871   H873    1.046   .     S
N874   H876    1.046   .     S
N874   H875    1.046   .     S
N877   H879    1.045   .     S
N877   H878    1.045   .     S
N880   H882    1.045   .     S
N880   H881    1.045   .     S
N883   H885    1.045   .     S
N883   H884    1.045   .     S
N886   H888    1.045   .     S
N886   H887    1.045   .     S
C889   O932    1.279   .     A
C889   O929    1.279   .     A
C889   C898    1.410   .     S
C890   O931    1.279   .     A
C890   O930    1.279   .     A
C890   C897    1.410   .     S
C891   C916    1.419   .     A
C891   N945    1.434   .     S
C892   N948    1.434   .     S
C892   C915    1.419   .     A
C892   C252    1.390   1_556 S
C893   C898    1.401   .     A
C893   N951    1.438   .     S
C893   C1043   1.388   1_455 S
C894   N954    1.438   .     S
C894   C897    1.401   .     A
C894   C970    1.388   .     S
C895   N957    1.437   .     S
C895   C897    1.401   .     A
C895   C967    1.388   .     S
C896   N960    1.437   .     S
C896   C898    1.401   .     A
C896   C1042   1.388   1_455 S
C899   N928    1.366   .     A
C899   H923    1.082   .     S
C900   H924    1.082   .     S
C900   N927    1.366   .     A
C900   C1123   1.417   .     S
C901   H925    1.081   .     S
C901   N928    1.367   .     A
C902   H926    1.081   .     S
C902   N927    1.367   .     A
C902   C1121   1.417   .     S
C903   O936    1.283   .     A
C903   C908    1.429   .     S
C903   O933    1.286   .     A
C904   C907    1.429   .     S
C904   O935    1.283   .     A
C904   O934    1.286   .     A
C905   N939    1.438   .     S
C905   C915    1.408   .     A
C905   C907    1.407   .     A
C906   C908    1.407   .     A
C906   N942    1.438   .     S
C906   C916    1.408   .     A
C907   C909    1.385   .     A
C908   C910    1.385   .     A
C909   H919    1.086   .     S
C909   C911    1.377   .     A
C910   H920    1.086   .     S
C910   C912    1.377   .     A
C911   C917    1.392   .     A
C911   C913    1.409   .     A
C912   C918    1.392   .     A
C912   C914    1.409   .     A
C913   C915    1.427   .     A
C913   C248    1.400   1_556 S
C914   C916    1.427   .     A
C917   H921    1.085   .     S
C917   C225    1.390   1_556 S
C918   H922    1.085   .     S
N927   Zn937   2.010   .     S
N928   Zn938   2.010   .     S
O929   Zn937   1.988   .     S
O930   Zn938   1.988   .     S
O931   Zn937   1.988   .     S
O932   Zn938   1.988   .     S
O933   Zn937   2.010   .     S
O934   Zn938   2.010   .     S
O935   Zn937   2.018   .     S
O936   Zn938   2.018   .     S
N939   H941    1.044   .     S
N939   H940    1.045   .     S
N942   H944    1.045   .     S
N942   H943    1.044   .     S
N945   H946    1.046   .     S
N945   H947    1.046   .     S
N948   H950    1.046   .     S
N948   H949    1.046   .     S
N951   H953    1.045   .     S
N951   H952    1.045   .     S
N954   H956    1.045   .     S
N954   H955    1.045   .     S
N957   H959    1.045   .     S
N957   H958    1.045   .     S
N960   H962    1.045   .     S
N960   H961    1.045   .     S
C963   O1006   1.279   .     A
C963   O1003   1.279   .     A
C963   C972    1.410   .     S
C964   O1005   1.279   .     A
C964   O1004   1.279   .     A
C964   C971    1.410   .     S
C965   C990    1.419   .     A
C965   N1019   1.434   .     S
C966   N1022   1.434   .     S
C966   C989    1.419   .     A
C966   C326    1.390   1_556 S
C967   C972    1.401   .     A
C967   N1025   1.438   .     S
C968   N1028   1.438   .     S
C968   C971    1.401   .     A
C968   C1044   1.388   .     S
C969   N1031   1.437   .     S
C969   C971    1.401   .     A
C969   C1041   1.388   .     S
C970   N1034   1.437   .     S
C970   C972    1.401   .     A
C973   N1002   1.366   .     A
C973   H997    1.082   .     S
C974   H998    1.082   .     S
C974   N1001   1.366   .     A
C974   C1197   1.417   .     S
C975   H999    1.081   .     S
C975   N1002   1.367   .     A
C976   H1000   1.081   .     S
C976   N1001   1.367   .     A
C976   C1195   1.417   .     S
C977   O1010   1.283   .     A
C977   C982    1.429   .     S
C977   O1007   1.286   .     A
C978   C981    1.429   .     S
C978   O1009   1.283   .     A
C978   O1008   1.286   .     A
C979   N1013   1.438   .     S
C979   C989    1.408   .     A
C979   C981    1.407   .     A
C980   C982    1.407   .     A
C980   N1016   1.438   .     S
C980   C990    1.408   .     A
C981   C983    1.385   .     A
C982   C984    1.385   .     A
C983   H993    1.086   .     S
C983   C985    1.377   .     A
C984   H994    1.086   .     S
C984   C986    1.377   .     A
C985   C991    1.392   .     A
C985   C987    1.409   .     A
C986   C992    1.392   .     A
C986   C988    1.409   .     A
C987   C989    1.427   .     A
C987   C322    1.400   1_556 S
C988   C990    1.427   .     A
C991   H995    1.085   .     S
C991   C299    1.390   1_556 S
C992   H996    1.085   .     S
N1001  Zn1011  2.010   .     S
N1002  Zn1012  2.010   .     S
O1003  Zn1011  1.988   .     S
O1004  Zn1012  1.988   .     S
O1005  Zn1011  1.988   .     S
O1006  Zn1012  1.988   .     S
O1007  Zn1011  2.010   .     S
O1008  Zn1012  2.010   .     S
O1009  Zn1011  2.018   .     S
O1010  Zn1012  2.018   .     S
N1013  H1015   1.044   .     S
N1013  H1014   1.045   .     S
N1016  H1018   1.045   .     S
N1016  H1017   1.044   .     S
N1019  H1020   1.046   .     S
N1019  H1021   1.046   .     S
N1022  H1024   1.046   .     S
N1022  H1023   1.046   .     S
N1025  H1027   1.045   .     S
N1025  H1026   1.045   .     S
N1028  H1030   1.045   .     S
N1028  H1029   1.045   .     S
N1031  H1033   1.045   .     S
N1031  H1032   1.045   .     S
N1034  H1036   1.045   .     S
N1034  H1035   1.045   .     S
C1037  O1080   1.279   .     A
C1037  O1077   1.279   .     A
C1037  C1046   1.410   .     S
C1038  O1079   1.279   .     A
C1038  O1078   1.279   .     A
C1038  C1045   1.410   .     S
C1039  C1064   1.419   .     A
C1039  N1093   1.434   .     S
C1040  N1096   1.434   .     S
C1040  C1063   1.419   .     A
C1040  C400    1.390   1_556 S
C1041  C1046   1.401   .     A
C1041  N1099   1.438   .     S
C1042  N1102   1.438   .     S
C1042  C1045   1.401   .     A
C1042  C896    1.388   1_655 S
C1043  N1105   1.437   .     S
C1043  C1045   1.401   .     A
C1043  C893    1.388   1_655 S
C1044  N1108   1.437   .     S
C1044  C1046   1.401   .     A
C1047  N1076   1.366   .     A
C1047  H1071   1.082   .     S
C1048  H1072   1.082   .     S
C1048  N1075   1.366   .     A
C1048  C1271   1.417   .     S
C1049  H1073   1.081   .     S
C1049  N1076   1.367   .     A
C1050  H1074   1.081   .     S
C1050  N1075   1.367   .     A
C1050  C1269   1.417   .     S
C1051  O1084   1.283   .     A
C1051  C1056   1.429   .     S
C1051  O1081   1.286   .     A
C1052  C1055   1.429   .     S
C1052  O1083   1.283   .     A
C1052  O1082   1.286   .     A
C1053  N1087   1.438   .     S
C1053  C1063   1.408   .     A
C1053  C1055   1.407   .     A
C1054  C1056   1.407   .     A
C1054  N1090   1.438   .     S
C1054  C1064   1.408   .     A
C1055  C1057   1.385   .     A
C1056  C1058   1.385   .     A
C1057  H1067   1.086   .     S
C1057  C1059   1.377   .     A
C1058  H1068   1.086   .     S
C1058  C1060   1.377   .     A
C1059  C1065   1.392   .     A
C1059  C1061   1.409   .     A
C1060  C1066   1.392   .     A
C1060  C1062   1.409   .     A
C1061  C1063   1.427   .     A
C1061  C396    1.400   1_556 S
C1062  C1064   1.427   .     A
C1065  H1069   1.085   .     S
C1065  C373    1.390   1_556 S
C1066  H1070   1.085   .     S
N1075  Zn1085  2.010   .     S
N1076  Zn1086  2.010   .     S
O1077  Zn1085  1.988   .     S
O1078  Zn1086  1.988   .     S
O1079  Zn1085  1.988   .     S
O1080  Zn1086  1.988   .     S
O1081  Zn1085  2.010   .     S
O1082  Zn1086  2.010   .     S
O1083  Zn1085  2.018   .     S
O1084  Zn1086  2.018   .     S
N1087  H1089   1.044   .     S
N1087  H1088   1.045   .     S
N1090  H1092   1.045   .     S
N1090  H1091   1.044   .     S
N1093  H1094   1.046   .     S
N1093  H1095   1.046   .     S
N1096  H1098   1.046   .     S
N1096  H1097   1.046   .     S
N1099  H1101   1.045   .     S
N1099  H1100   1.045   .     S
N1102  H1104   1.045   .     S
N1102  H1103   1.045   .     S
N1105  H1107   1.045   .     S
N1105  H1106   1.045   .     S
N1108  H1110   1.045   .     S
N1108  H1109   1.045   .     S
C1111  O1154   1.279   .     A
C1111  O1151   1.279   .     A
C1111  C1120   1.410   .     S
C1112  O1153   1.279   .     A
C1112  O1152   1.279   .     A
C1112  C1119   1.410   .     S
C1113  C1138   1.419   .     A
C1113  N1167   1.434   .     S
C1114  N1170   1.434   .     S
C1114  C1137   1.419   .     A
C1114  C474    1.390   1_556 S
C1115  C1120   1.401   .     A
C1115  N1173   1.438   .     S
C1115  C1265   1.388   1_455 S
C1116  N1176   1.438   .     S
C1116  C1119   1.401   .     A
C1116  C1192   1.388   .     S
C1117  N1179   1.437   .     S
C1117  C1119   1.401   .     A
C1117  C1189   1.388   .     S
C1118  N1182   1.437   .     S
C1118  C1120   1.401   .     A
C1118  C1264   1.388   1_455 S
C1121  N1150   1.366   .     A
C1121  H1145   1.082   .     S
C1122  H1146   1.082   .     S
C1122  N1149   1.366   .     A
C1122  C679    1.417   1_565 S
C1123  H1147   1.081   .     S
C1123  N1150   1.367   .     A
C1124  H1148   1.081   .     S
C1124  N1149   1.367   .     A
C1124  C677    1.417   1_565 S
C1125  O1158   1.283   .     A
C1125  C1130   1.429   .     S
C1125  O1155   1.286   .     A
C1126  C1129   1.429   .     S
C1126  O1157   1.283   .     A
C1126  O1156   1.286   .     A
C1127  N1161   1.438   .     S
C1127  C1137   1.408   .     A
C1127  C1129   1.407   .     A
C1128  C1130   1.407   .     A
C1128  N1164   1.438   .     S
C1128  C1138   1.408   .     A
C1129  C1131   1.385   .     A
C1130  C1132   1.385   .     A
C1131  H1141   1.086   .     S
C1131  C1133   1.377   .     A
C1132  H1142   1.086   .     S
C1132  C1134   1.377   .     A
C1133  C1139   1.392   .     A
C1133  C1135   1.409   .     A
C1134  C1140   1.392   .     A
C1134  C1136   1.409   .     A
C1135  C1137   1.427   .     A
C1135  C470    1.400   1_556 S
C1136  C1138   1.427   .     A
C1139  H1143   1.085   .     S
C1139  C447    1.390   1_556 S
C1140  H1144   1.085   .     S
N1149  Zn1159  2.010   .     S
N1150  Zn1160  2.010   .     S
O1151  Zn1159  1.988   .     S
O1152  Zn1160  1.988   .     S
O1153  Zn1159  1.988   .     S
O1154  Zn1160  1.988   .     S
O1155  Zn1159  2.010   .     S
O1156  Zn1160  2.010   .     S
O1157  Zn1159  2.018   .     S
O1158  Zn1160  2.018   .     S
N1161  H1163   1.044   .     S
N1161  H1162   1.045   .     S
N1164  H1166   1.045   .     S
N1164  H1165   1.044   .     S
N1167  H1168   1.046   .     S
N1167  H1169   1.046   .     S
N1170  H1172   1.046   .     S
N1170  H1171   1.046   .     S
N1173  H1175   1.045   .     S
N1173  H1174   1.045   .     S
N1176  H1178   1.045   .     S
N1176  H1177   1.045   .     S
N1179  H1181   1.045   .     S
N1179  H1180   1.045   .     S
N1182  H1184   1.045   .     S
N1182  H1183   1.045   .     S
C1185  O1228   1.279   .     A
C1185  O1225   1.279   .     A
C1185  C1194   1.410   .     S
C1186  O1227   1.279   .     A
C1186  O1226   1.279   .     A
C1186  C1193   1.410   .     S
C1187  C1212   1.419   .     A
C1187  N1241   1.434   .     S
C1188  N1244   1.434   .     S
C1188  C1211   1.419   .     A
C1188  C548    1.390   1_556 S
C1189  C1194   1.401   .     A
C1189  N1247   1.438   .     S
C1190  N1250   1.438   .     S
C1190  C1193   1.401   .     A
C1190  C1266   1.388   .     S
C1191  N1253   1.437   .     S
C1191  C1193   1.401   .     A
C1191  C1263   1.388   .     S
C1192  N1256   1.437   .     S
C1192  C1194   1.401   .     A
C1195  N1224   1.366   .     A
C1195  H1219   1.082   .     S
C1196  H1220   1.082   .     S
C1196  N1223   1.366   .     A
C1196  C753    1.417   1_565 S
C1197  H1221   1.081   .     S
C1197  N1224   1.367   .     A
C1198  H1222   1.081   .     S
C1198  N1223   1.367   .     A
C1198  C751    1.417   1_565 S
C1199  O1232   1.283   .     A
C1199  C1204   1.429   .     S
C1199  O1229   1.286   .     A
C1200  C1203   1.429   .     S
C1200  O1231   1.283   .     A
C1200  O1230   1.286   .     A
C1201  N1235   1.438   .     S
C1201  C1211   1.408   .     A
C1201  C1203   1.407   .     A
C1202  C1204   1.407   .     A
C1202  N1238   1.438   .     S
C1202  C1212   1.408   .     A
C1203  C1205   1.385   .     A
C1204  C1206   1.385   .     A
C1205  H1215   1.086   .     S
C1205  C1207   1.377   .     A
C1206  H1216   1.086   .     S
C1206  C1208   1.377   .     A
C1207  C1213   1.392   .     A
C1207  C1209   1.409   .     A
C1208  C1214   1.392   .     A
C1208  C1210   1.409   .     A
C1209  C1211   1.427   .     A
C1209  C544    1.400   1_556 S
C1210  C1212   1.427   .     A
C1213  H1217   1.085   .     S
C1213  C521    1.390   1_556 S
C1214  H1218   1.085   .     S
N1223  Zn1233  2.010   .     S
N1224  Zn1234  2.010   .     S
O1225  Zn1233  1.988   .     S
O1226  Zn1234  1.988   .     S
O1227  Zn1233  1.988   .     S
O1228  Zn1234  1.988   .     S
O1229  Zn1233  2.010   .     S
O1230  Zn1234  2.010   .     S
O1231  Zn1233  2.018   .     S
O1232  Zn1234  2.018   .     S
N1235  H1237   1.044   .     S
N1235  H1236   1.045   .     S
N1238  H1240   1.045   .     S
N1238  H1239   1.044   .     S
N1241  H1242   1.046   .     S
N1241  H1243   1.046   .     S
N1244  H1246   1.046   .     S
N1244  H1245   1.046   .     S
N1247  H1249   1.045   .     S
N1247  H1248   1.045   .     S
N1250  H1252   1.045   .     S
N1250  H1251   1.045   .     S
N1253  H1255   1.045   .     S
N1253  H1254   1.045   .     S
N1256  H1258   1.045   .     S
N1256  H1257   1.045   .     S
C1259  O1302   1.279   .     A
C1259  O1299   1.279   .     A
C1259  C1268   1.410   .     S
C1260  O1301   1.279   .     A
C1260  O1300   1.279   .     A
C1260  C1267   1.410   .     S
C1261  C1286   1.419   .     A
C1261  N1315   1.434   .     S
C1262  N1318   1.434   .     S
C1262  C1285   1.419   .     A
C1262  C622    1.390   1_556 S
C1263  C1268   1.401   .     A
C1263  N1321   1.438   .     S
C1264  N1324   1.438   .     S
C1264  C1267   1.401   .     A
C1264  C1118   1.388   1_655 S
C1265  N1327   1.437   .     S
C1265  C1267   1.401   .     A
C1265  C1115   1.388   1_655 S
C1266  N1330   1.437   .     S
C1266  C1268   1.401   .     A
C1269  N1298   1.366   .     A
C1269  H1293   1.082   .     S
C1270  H1294   1.082   .     S
C1270  N1297   1.366   .     A
C1270  C827    1.417   1_565 S
C1271  H1295   1.081   .     S
C1271  N1298   1.367   .     A
C1272  H1296   1.081   .     S
C1272  N1297   1.367   .     A
C1272  C825    1.417   1_565 S
C1273  O1306   1.283   .     A
C1273  C1278   1.429   .     S
C1273  O1303   1.286   .     A
C1274  C1277   1.429   .     S
C1274  O1305   1.283   .     A
C1274  O1304   1.286   .     A
C1275  N1309   1.438   .     S
C1275  C1285   1.408   .     A
C1275  C1277   1.407   .     A
C1276  C1278   1.407   .     A
C1276  N1312   1.438   .     S
C1276  C1286   1.408   .     A
C1277  C1279   1.385   .     A
C1278  C1280   1.385   .     A
C1279  H1289   1.086   .     S
C1279  C1281   1.377   .     A
C1280  H1290   1.086   .     S
C1280  C1282   1.377   .     A
C1281  C1287   1.392   .     A
C1281  C1283   1.409   .     A
C1282  C1288   1.392   .     A
C1282  C1284   1.409   .     A
C1283  C1285   1.427   .     A
C1283  C618    1.400   1_556 S
C1284  C1286   1.427   .     A
C1287  H1291   1.085   .     S
C1287  C595    1.390   1_556 S
C1288  H1292   1.085   .     S
N1297  Zn1307  2.010   .     S
N1298  Zn1308  2.010   .     S
O1299  Zn1307  1.988   .     S
O1300  Zn1308  1.988   .     S
O1301  Zn1307  1.988   .     S
O1302  Zn1308  1.988   .     S
O1303  Zn1307  2.010   .     S
O1304  Zn1308  2.010   .     S
O1305  Zn1307  2.018   .     S
O1306  Zn1308  2.018   .     S
N1309  H1311   1.044   .     S
N1309  H1310   1.045   .     S
N1312  H1314   1.045   .     S
N1312  H1313   1.044   .     S
N1315  H1316   1.046   .     S
N1315  H1317   1.046   .     S
N1318  H1320   1.046   .     S
N1318  H1319   1.046   .     S
N1321  H1323   1.045   .     S
N1321  H1322   1.045   .     S
N1324  H1326   1.045   .     S
N1324  H1325   1.045   .     S
N1327  H1329   1.045   .     S
N1327  H1328   1.045   .     S
N1330  H1332   1.045   .     S
N1330  H1331   1.045   .     S
