data_str_m2_o10_o18_pcu_sym.110
_audit_creation_date              2020-01-03
_audit_creation_method            'Materials Studio'
_symmetry_space_group_name_H-M    'P1'
_symmetry_Int_Tables_number       1
_symmetry_cell_setting            triclinic
loop_
_symmetry_equiv_pos_as_xyz
  x,y,z
_cell_length_a                    22.3000
_cell_length_b                    26.2020
_cell_length_c                    31.6047
_cell_angle_alpha                 94.6097
_cell_angle_beta                  74.6492
_cell_angle_gamma                 102.9929
loop_
_atom_site_label
_atom_site_type_symbol
_atom_site_fract_x
_atom_site_fract_y
_atom_site_fract_z
_atom_site_U_iso_or_equiv
_atom_site_adp_type
_atom_site_occupancy
C1     C     0.18085   0.26647   0.25216   0.00000  Uiso   1.00
C2     C     0.15249   0.06686   0.24784   0.00000  Uiso   1.00
C3     C     0.09326   0.13534   0.04102   0.00000  Uiso   1.00
C4     C     0.24004   0.19824   0.45902   0.00000  Uiso   1.00
C5     C     0.05008   0.12086   0.01552   0.00000  Uiso   1.00
C6     C     0.28321   0.21274   0.48453   0.00000  Uiso   1.00
C7     C     0.18245   0.32118   0.26040   0.00000  Uiso   1.00
C8     C     0.15088   0.01215   0.23960   0.00000  Uiso   1.00
C9     C     0.12735   0.16066   0.33313   0.00000  Uiso   1.00
C10    C     0.20599   0.17269   0.16687   0.00000  Uiso   1.00
C11    C     0.10257   0.15206   0.38088   0.00000  Uiso   1.00
C12    C     0.23076   0.18134   0.11913   0.00000  Uiso   1.00
C13    C     0.02365   0.11551   0.44599   0.00000  Uiso   1.00
C14    C     0.30964   0.21803   0.05405   0.00000  Uiso   1.00
C15    C     0.04046   0.12378   0.40071   0.00000  Uiso   1.00
C16    C     0.29284   0.20970   0.09933   0.00000  Uiso   1.00
C17    C     0.14547   0.17054   0.40687   0.00000  Uiso   1.00
C18    C     0.18788   0.16286   0.09313   0.00000  Uiso   1.00
C19    C     0.13060   0.15895   0.45159   0.00000  Uiso   1.00
C20    C     0.20272   0.17455   0.04844   0.00000  Uiso   1.00
C21    C     0.06804   0.13191   0.47109   0.00000  Uiso   1.00
C22    C     0.26526   0.20163   0.02895   0.00000  Uiso   1.00
C23    C     0.17610   0.17296   0.47730   0.00000  Uiso   1.00
C24    C     0.15721   0.16056   0.02273   0.00000  Uiso   1.00
Cu25   Cu    0.10737   0.16108   0.24517   0.00000  Uiso   1.00
Cu26   Cu    0.22596   0.17225   0.25484   0.00000  Uiso   1.00
H27    H     0.00184   0.10101   0.03092   0.00000  Uiso   1.00
H28    H     0.33144   0.23263   0.46914   0.00000  Uiso   1.00
H29    H     0.14250   0.13947   0.10905   0.00000  Uiso   1.00
H30    H     0.19089   0.19383   0.39092   0.00000  Uiso   1.00
H31    H     0.30956   0.09417   0.46163   0.00000  Uiso   1.00
H32    H     0.02372   0.23942   0.03843   0.00000  Uiso   1.00
H33    H     0.07422   0.12622   0.07518   0.00000  Uiso   1.00
H34    H     0.25907   0.20743   0.42488   0.00000  Uiso   1.00
N35    N     0.31506   0.18068   0.26212   0.00000  Uiso   1.00
N36    N     0.01827   0.15265   0.23788   0.00000  Uiso   1.00
O37    O     0.12815   0.23809   0.24686   0.00000  Uiso   1.00
O38    O     0.20518   0.09524   0.25314   0.00000  Uiso   1.00
O39    O     0.22829   0.24753   0.25503   0.00000  Uiso   1.00
O40    O     0.10504   0.08580   0.24498   0.00000  Uiso   1.00
O41    O     0.08851   0.15930   0.30855   0.00000  Uiso   1.00
O42    O     0.24482   0.17403   0.19146   0.00000  Uiso   1.00
O43    O     0.18866   0.16874   0.31671   0.00000  Uiso   1.00
O44    O     0.14468   0.16460   0.18329   0.00000  Uiso   1.00
C45    C     0.00652   0.23386   0.12470   0.00000  Uiso   1.00
H46    H     0.32472   0.24517   0.15892   0.00000  Uiso   1.00
O47    O     0.06351   0.24281   0.10709   0.00000  Uiso   1.00
C48    C     0.32675   0.09962   0.37535   0.00000  Uiso   1.00
H49    H     0.00854   0.08824   0.34115   0.00000  Uiso   1.00
O50    O     0.26977   0.09077   0.39296   0.00000  Uiso   1.00
C51    C     0.20886   0.01087   0.29820   0.00000  Uiso   1.00
H52    H     0.24988   0.33234   0.30348   0.00000  Uiso   1.00
O53    O     0.18283   0.04030   0.32518   0.00000  Uiso   1.00
C54    C     0.12448   0.32247   0.20180   0.00000  Uiso   1.00
H55    H     0.08345   0.00099   0.19652   0.00000  Uiso   1.00
O56    O     0.15050   0.29303   0.17482   0.00000  Uiso   1.00
F57    F     0.00241   0.20715   0.29520   0.00000  Uiso   1.00
F58    F     0.33092   0.12618   0.20480   0.00000  Uiso   1.00
C59    C     0.51418   0.26647   0.25216   0.00000  Uiso   1.00
C60    C     0.48582   0.06686   0.24784   0.00000  Uiso   1.00
C61    C     0.42660   0.13534   0.04102   0.00000  Uiso   1.00
C62    C     0.57337   0.19824   0.45902   0.00000  Uiso   1.00
C63    C     0.38341   0.12086   0.01552   0.00000  Uiso   1.00
C64    C     0.61655   0.21274   0.48453   0.00000  Uiso   1.00
C65    C     0.51579   0.32118   0.26040   0.00000  Uiso   1.00
C66    C     0.48421   0.01215   0.23960   0.00000  Uiso   1.00
C67    C     0.46068   0.16066   0.33313   0.00000  Uiso   1.00
C68    C     0.53932   0.17269   0.16687   0.00000  Uiso   1.00
C69    C     0.43591   0.15206   0.38088   0.00000  Uiso   1.00
C70    C     0.56410   0.18134   0.11913   0.00000  Uiso   1.00
C71    C     0.35699   0.11551   0.44599   0.00000  Uiso   1.00
C72    C     0.64297   0.21803   0.05405   0.00000  Uiso   1.00
C73    C     0.37379   0.12378   0.40071   0.00000  Uiso   1.00
C74    C     0.62618   0.20970   0.09933   0.00000  Uiso   1.00
C75    C     0.47880   0.17054   0.40687   0.00000  Uiso   1.00
C76    C     0.52122   0.16286   0.09313   0.00000  Uiso   1.00
C77    C     0.46393   0.15895   0.45159   0.00000  Uiso   1.00
C78    C     0.53606   0.17455   0.04844   0.00000  Uiso   1.00
C79    C     0.40137   0.13191   0.47109   0.00000  Uiso   1.00
C80    C     0.59860   0.20163   0.02895   0.00000  Uiso   1.00
C81    C     0.50943   0.17296   0.47730   0.00000  Uiso   1.00
C82    C     0.49055   0.16056   0.02273   0.00000  Uiso   1.00
Cu83   Cu    0.44071   0.16108   0.24517   0.00000  Uiso   1.00
Cu84   Cu    0.55929   0.17225   0.25484   0.00000  Uiso   1.00
H85    H     0.33517   0.10101   0.03092   0.00000  Uiso   1.00
H86    H     0.66477   0.23263   0.46914   0.00000  Uiso   1.00
H87    H     0.47584   0.13947   0.10905   0.00000  Uiso   1.00
H88    H     0.52422   0.19383   0.39092   0.00000  Uiso   1.00
H89    H     0.64289   0.09417   0.46163   0.00000  Uiso   1.00
H90    H     0.35705   0.23942   0.03843   0.00000  Uiso   1.00
H91    H     0.40755   0.12622   0.07518   0.00000  Uiso   1.00
H92    H     0.59240   0.20743   0.42488   0.00000  Uiso   1.00
N93    N     0.64839   0.18068   0.26212   0.00000  Uiso   1.00
N94    N     0.35161   0.15265   0.23788   0.00000  Uiso   1.00
O95    O     0.46148   0.23809   0.24686   0.00000  Uiso   1.00
O96    O     0.53852   0.09524   0.25314   0.00000  Uiso   1.00
O97    O     0.56163   0.24753   0.25503   0.00000  Uiso   1.00
O98    O     0.43837   0.08580   0.24498   0.00000  Uiso   1.00
O99    O     0.42185   0.15930   0.30855   0.00000  Uiso   1.00
O100   O     0.57815   0.17403   0.19146   0.00000  Uiso   1.00
O101   O     0.52199   0.16874   0.31671   0.00000  Uiso   1.00
O102   O     0.47801   0.16460   0.18329   0.00000  Uiso   1.00
C103   C     0.33986   0.23386   0.12470   0.00000  Uiso   1.00
H104   H     0.65805   0.24517   0.15892   0.00000  Uiso   1.00
O105   O     0.39684   0.24281   0.10709   0.00000  Uiso   1.00
C106   C     0.66009   0.09962   0.37535   0.00000  Uiso   1.00
H107   H     0.34187   0.08824   0.34115   0.00000  Uiso   1.00
O108   O     0.60311   0.09077   0.39296   0.00000  Uiso   1.00
C109   C     0.54219   0.01087   0.29820   0.00000  Uiso   1.00
H110   H     0.58322   0.33234   0.30348   0.00000  Uiso   1.00
O111   O     0.51617   0.04030   0.32518   0.00000  Uiso   1.00
C112   C     0.45781   0.32247   0.20180   0.00000  Uiso   1.00
H113   H     0.41678   0.00099   0.19652   0.00000  Uiso   1.00
O114   O     0.48384   0.29303   0.17482   0.00000  Uiso   1.00
F115   F     0.33574   0.20715   0.29520   0.00000  Uiso   1.00
F116   F     0.66426   0.12618   0.20480   0.00000  Uiso   1.00
C117   C     0.84751   0.26647   0.25216   0.00000  Uiso   1.00
C118   C     0.81915   0.06686   0.24784   0.00000  Uiso   1.00
C119   C     0.75993   0.13534   0.04102   0.00000  Uiso   1.00
C120   C     0.90670   0.19824   0.45902   0.00000  Uiso   1.00
C121   C     0.71674   0.12086   0.01552   0.00000  Uiso   1.00
C122   C     0.94988   0.21274   0.48453   0.00000  Uiso   1.00
C123   C     0.84912   0.32118   0.26040   0.00000  Uiso   1.00
C124   C     0.81755   0.01215   0.23960   0.00000  Uiso   1.00
C125   C     0.79401   0.16066   0.33313   0.00000  Uiso   1.00
C126   C     0.87265   0.17269   0.16687   0.00000  Uiso   1.00
C127   C     0.76924   0.15206   0.38088   0.00000  Uiso   1.00
C128   C     0.89743   0.18134   0.11913   0.00000  Uiso   1.00
C129   C     0.69032   0.11551   0.44599   0.00000  Uiso   1.00
C130   C     0.97631   0.21803   0.05405   0.00000  Uiso   1.00
C131   C     0.70713   0.12378   0.40071   0.00000  Uiso   1.00
C132   C     0.95951   0.20970   0.09933   0.00000  Uiso   1.00
C133   C     0.81213   0.17054   0.40687   0.00000  Uiso   1.00
C134   C     0.85455   0.16286   0.09313   0.00000  Uiso   1.00
C135   C     0.79727   0.15895   0.45159   0.00000  Uiso   1.00
C136   C     0.86939   0.17455   0.04844   0.00000  Uiso   1.00
C137   C     0.73471   0.13191   0.47109   0.00000  Uiso   1.00
C138   C     0.93193   0.20163   0.02895   0.00000  Uiso   1.00
C139   C     0.84277   0.17296   0.47730   0.00000  Uiso   1.00
C140   C     0.82388   0.16056   0.02273   0.00000  Uiso   1.00
Cu141  Cu    0.77404   0.16108   0.24517   0.00000  Uiso   1.00
Cu142  Cu    0.89263   0.17225   0.25484   0.00000  Uiso   1.00
H143   H     0.66850   0.10101   0.03092   0.00000  Uiso   1.00
H144   H     0.99810   0.23263   0.46914   0.00000  Uiso   1.00
H145   H     0.80917   0.13947   0.10905   0.00000  Uiso   1.00
H146   H     0.85756   0.19383   0.39092   0.00000  Uiso   1.00
H147   H     0.97622   0.09417   0.46163   0.00000  Uiso   1.00
H148   H     0.69039   0.23942   0.03843   0.00000  Uiso   1.00
H149   H     0.74089   0.12622   0.07518   0.00000  Uiso   1.00
H150   H     0.92573   0.20743   0.42488   0.00000  Uiso   1.00
N151   N     0.98173   0.18068   0.26212   0.00000  Uiso   1.00
N152   N     0.68494   0.15265   0.23788   0.00000  Uiso   1.00
O153   O     0.79482   0.23809   0.24686   0.00000  Uiso   1.00
O154   O     0.87185   0.09524   0.25314   0.00000  Uiso   1.00
O155   O     0.89496   0.24753   0.25503   0.00000  Uiso   1.00
O156   O     0.77171   0.08580   0.24498   0.00000  Uiso   1.00
O157   O     0.75518   0.15930   0.30855   0.00000  Uiso   1.00
O158   O     0.91149   0.17403   0.19146   0.00000  Uiso   1.00
O159   O     0.85532   0.16874   0.31671   0.00000  Uiso   1.00
O160   O     0.81134   0.16460   0.18329   0.00000  Uiso   1.00
C161   C     0.67319   0.23386   0.12470   0.00000  Uiso   1.00
H162   H     0.99139   0.24517   0.15892   0.00000  Uiso   1.00
O163   O     0.73017   0.24281   0.10709   0.00000  Uiso   1.00
C164   C     0.99342   0.09962   0.37535   0.00000  Uiso   1.00
H165   H     0.67521   0.08824   0.34115   0.00000  Uiso   1.00
O166   O     0.93644   0.09077   0.39296   0.00000  Uiso   1.00
C167   C     0.87553   0.01087   0.29820   0.00000  Uiso   1.00
H168   H     0.91655   0.33234   0.30348   0.00000  Uiso   1.00
O169   O     0.84950   0.04030   0.32518   0.00000  Uiso   1.00
C170   C     0.79114   0.32247   0.20180   0.00000  Uiso   1.00
H171   H     0.75011   0.00099   0.19652   0.00000  Uiso   1.00
O172   O     0.81717   0.29303   0.17482   0.00000  Uiso   1.00
F173   F     0.66908   0.20715   0.29520   0.00000  Uiso   1.00
F174   F     0.99759   0.12618   0.20480   0.00000  Uiso   1.00
C175   C     0.18085   0.59980   0.25216   0.00000  Uiso   1.00
C176   C     0.15249   0.40020   0.24784   0.00000  Uiso   1.00
C177   C     0.09326   0.46868   0.04102   0.00000  Uiso   1.00
C178   C     0.24004   0.53157   0.45902   0.00000  Uiso   1.00
C179   C     0.05008   0.45419   0.01552   0.00000  Uiso   1.00
C180   C     0.28321   0.54607   0.48453   0.00000  Uiso   1.00
C181   C     0.18245   0.65452   0.26040   0.00000  Uiso   1.00
C182   C     0.15088   0.34548   0.23960   0.00000  Uiso   1.00
C183   C     0.12735   0.49399   0.33313   0.00000  Uiso   1.00
C184   C     0.20599   0.50602   0.16687   0.00000  Uiso   1.00
C185   C     0.10257   0.48539   0.38088   0.00000  Uiso   1.00
C186   C     0.23076   0.51468   0.11913   0.00000  Uiso   1.00
C187   C     0.02365   0.44884   0.44599   0.00000  Uiso   1.00
C188   C     0.30964   0.55137   0.05405   0.00000  Uiso   1.00
C189   C     0.04046   0.45711   0.40071   0.00000  Uiso   1.00
C190   C     0.29284   0.54303   0.09933   0.00000  Uiso   1.00
C191   C     0.14547   0.50387   0.40687   0.00000  Uiso   1.00
C192   C     0.18788   0.49619   0.09313   0.00000  Uiso   1.00
C193   C     0.13060   0.49228   0.45159   0.00000  Uiso   1.00
C194   C     0.20272   0.50788   0.04844   0.00000  Uiso   1.00
C195   C     0.06804   0.46525   0.47109   0.00000  Uiso   1.00
C196   C     0.26526   0.53496   0.02895   0.00000  Uiso   1.00
C197   C     0.17610   0.50630   0.47730   0.00000  Uiso   1.00
C198   C     0.15721   0.49390   0.02273   0.00000  Uiso   1.00
Cu199  Cu    0.10737   0.49441   0.24517   0.00000  Uiso   1.00
Cu200  Cu    0.22596   0.50559   0.25484   0.00000  Uiso   1.00
H201   H     0.00184   0.43434   0.03092   0.00000  Uiso   1.00
H202   H     0.33144   0.56597   0.46914   0.00000  Uiso   1.00
H203   H     0.14250   0.47281   0.10905   0.00000  Uiso   1.00
H204   H     0.19089   0.52716   0.39092   0.00000  Uiso   1.00
H205   H     0.30956   0.42750   0.46163   0.00000  Uiso   1.00
H206   H     0.02372   0.57276   0.03843   0.00000  Uiso   1.00
H207   H     0.07422   0.45955   0.07518   0.00000  Uiso   1.00
H208   H     0.25907   0.54077   0.42488   0.00000  Uiso   1.00
N209   N     0.31506   0.51401   0.26212   0.00000  Uiso   1.00
N210   N     0.01827   0.48599   0.23788   0.00000  Uiso   1.00
O211   O     0.12815   0.57142   0.24686   0.00000  Uiso   1.00
O212   O     0.20518   0.42858   0.25314   0.00000  Uiso   1.00
O213   O     0.22829   0.58086   0.25503   0.00000  Uiso   1.00
O214   O     0.10504   0.41914   0.24498   0.00000  Uiso   1.00
O215   O     0.08851   0.49263   0.30855   0.00000  Uiso   1.00
O216   O     0.24482   0.50737   0.19146   0.00000  Uiso   1.00
O217   O     0.18866   0.50207   0.31671   0.00000  Uiso   1.00
O218   O     0.14468   0.49793   0.18329   0.00000  Uiso   1.00
C219   C     0.00652   0.56720   0.12470   0.00000  Uiso   1.00
H220   H     0.32472   0.57850   0.15892   0.00000  Uiso   1.00
O221   O     0.06351   0.57614   0.10709   0.00000  Uiso   1.00
C222   C     0.32675   0.43296   0.37535   0.00000  Uiso   1.00
H223   H     0.00854   0.42158   0.34115   0.00000  Uiso   1.00
O224   O     0.26977   0.42411   0.39296   0.00000  Uiso   1.00
C225   C     0.20886   0.34420   0.29820   0.00000  Uiso   1.00
H226   H     0.24988   0.66567   0.30348   0.00000  Uiso   1.00
O227   O     0.18283   0.37364   0.32518   0.00000  Uiso   1.00
C228   C     0.12448   0.65580   0.20180   0.00000  Uiso   1.00
H229   H     0.08345   0.33433   0.19652   0.00000  Uiso   1.00
O230   O     0.15050   0.62637   0.17482   0.00000  Uiso   1.00
F231   F     0.00241   0.54048   0.29520   0.00000  Uiso   1.00
F232   F     0.33092   0.45952   0.20480   0.00000  Uiso   1.00
C233   C     0.51418   0.59980   0.25216   0.00000  Uiso   1.00
C234   C     0.48582   0.40020   0.24784   0.00000  Uiso   1.00
C235   C     0.42660   0.46868   0.04102   0.00000  Uiso   1.00
C236   C     0.57337   0.53157   0.45902   0.00000  Uiso   1.00
C237   C     0.38341   0.45419   0.01552   0.00000  Uiso   1.00
C238   C     0.61655   0.54607   0.48453   0.00000  Uiso   1.00
C239   C     0.51579   0.65452   0.26040   0.00000  Uiso   1.00
C240   C     0.48421   0.34548   0.23960   0.00000  Uiso   1.00
C241   C     0.46068   0.49399   0.33313   0.00000  Uiso   1.00
C242   C     0.53932   0.50602   0.16687   0.00000  Uiso   1.00
C243   C     0.43591   0.48539   0.38088   0.00000  Uiso   1.00
C244   C     0.56410   0.51468   0.11913   0.00000  Uiso   1.00
C245   C     0.35699   0.44884   0.44599   0.00000  Uiso   1.00
C246   C     0.64297   0.55137   0.05405   0.00000  Uiso   1.00
C247   C     0.37379   0.45711   0.40071   0.00000  Uiso   1.00
C248   C     0.62618   0.54303   0.09933   0.00000  Uiso   1.00
C249   C     0.47880   0.50387   0.40687   0.00000  Uiso   1.00
C250   C     0.52122   0.49619   0.09313   0.00000  Uiso   1.00
C251   C     0.46393   0.49228   0.45159   0.00000  Uiso   1.00
C252   C     0.53606   0.50788   0.04844   0.00000  Uiso   1.00
C253   C     0.40137   0.46525   0.47109   0.00000  Uiso   1.00
C254   C     0.59860   0.53496   0.02895   0.00000  Uiso   1.00
C255   C     0.50943   0.50630   0.47730   0.00000  Uiso   1.00
C256   C     0.49055   0.49390   0.02273   0.00000  Uiso   1.00
Cu257  Cu    0.44071   0.49441   0.24517   0.00000  Uiso   1.00
Cu258  Cu    0.55929   0.50559   0.25484   0.00000  Uiso   1.00
H259   H     0.33517   0.43434   0.03092   0.00000  Uiso   1.00
H260   H     0.66477   0.56597   0.46914   0.00000  Uiso   1.00
H261   H     0.47584   0.47281   0.10905   0.00000  Uiso   1.00
H262   H     0.52422   0.52716   0.39092   0.00000  Uiso   1.00
H263   H     0.64289   0.42750   0.46163   0.00000  Uiso   1.00
H264   H     0.35705   0.57276   0.03843   0.00000  Uiso   1.00
H265   H     0.40755   0.45955   0.07518   0.00000  Uiso   1.00
H266   H     0.59240   0.54077   0.42488   0.00000  Uiso   1.00
N267   N     0.64839   0.51401   0.26212   0.00000  Uiso   1.00
N268   N     0.35161   0.48599   0.23788   0.00000  Uiso   1.00
O269   O     0.46148   0.57142   0.24686   0.00000  Uiso   1.00
O270   O     0.53852   0.42858   0.25314   0.00000  Uiso   1.00
O271   O     0.56163   0.58086   0.25503   0.00000  Uiso   1.00
O272   O     0.43837   0.41914   0.24498   0.00000  Uiso   1.00
O273   O     0.42185   0.49263   0.30855   0.00000  Uiso   1.00
O274   O     0.57815   0.50737   0.19146   0.00000  Uiso   1.00
O275   O     0.52199   0.50207   0.31671   0.00000  Uiso   1.00
O276   O     0.47801   0.49793   0.18329   0.00000  Uiso   1.00
C277   C     0.33986   0.56720   0.12470   0.00000  Uiso   1.00
H278   H     0.65805   0.57850   0.15892   0.00000  Uiso   1.00
O279   O     0.39684   0.57614   0.10709   0.00000  Uiso   1.00
C280   C     0.66009   0.43296   0.37535   0.00000  Uiso   1.00
H281   H     0.34187   0.42158   0.34115   0.00000  Uiso   1.00
O282   O     0.60311   0.42411   0.39296   0.00000  Uiso   1.00
C283   C     0.54219   0.34420   0.29820   0.00000  Uiso   1.00
H284   H     0.58322   0.66567   0.30348   0.00000  Uiso   1.00
O285   O     0.51617   0.37364   0.32518   0.00000  Uiso   1.00
C286   C     0.45781   0.65580   0.20180   0.00000  Uiso   1.00
H287   H     0.41678   0.33433   0.19652   0.00000  Uiso   1.00
O288   O     0.48384   0.62637   0.17482   0.00000  Uiso   1.00
F289   F     0.33574   0.54048   0.29520   0.00000  Uiso   1.00
F290   F     0.66426   0.45952   0.20480   0.00000  Uiso   1.00
C291   C     0.84751   0.59980   0.25216   0.00000  Uiso   1.00
C292   C     0.81915   0.40020   0.24784   0.00000  Uiso   1.00
C293   C     0.75993   0.46868   0.04102   0.00000  Uiso   1.00
C294   C     0.90670   0.53157   0.45902   0.00000  Uiso   1.00
C295   C     0.71674   0.45419   0.01552   0.00000  Uiso   1.00
C296   C     0.94988   0.54607   0.48453   0.00000  Uiso   1.00
C297   C     0.84912   0.65452   0.26040   0.00000  Uiso   1.00
C298   C     0.81755   0.34548   0.23960   0.00000  Uiso   1.00
C299   C     0.79401   0.49399   0.33313   0.00000  Uiso   1.00
C300   C     0.87265   0.50602   0.16687   0.00000  Uiso   1.00
C301   C     0.76924   0.48539   0.38088   0.00000  Uiso   1.00
C302   C     0.89743   0.51468   0.11913   0.00000  Uiso   1.00
C303   C     0.69032   0.44884   0.44599   0.00000  Uiso   1.00
C304   C     0.97631   0.55137   0.05405   0.00000  Uiso   1.00
C305   C     0.70713   0.45711   0.40071   0.00000  Uiso   1.00
C306   C     0.95951   0.54303   0.09933   0.00000  Uiso   1.00
C307   C     0.81213   0.50387   0.40687   0.00000  Uiso   1.00
C308   C     0.85455   0.49619   0.09313   0.00000  Uiso   1.00
C309   C     0.79727   0.49228   0.45159   0.00000  Uiso   1.00
C310   C     0.86939   0.50788   0.04844   0.00000  Uiso   1.00
C311   C     0.73471   0.46525   0.47109   0.00000  Uiso   1.00
C312   C     0.93193   0.53496   0.02895   0.00000  Uiso   1.00
C313   C     0.84277   0.50630   0.47730   0.00000  Uiso   1.00
C314   C     0.82388   0.49390   0.02273   0.00000  Uiso   1.00
Cu315  Cu    0.77404   0.49441   0.24517   0.00000  Uiso   1.00
Cu316  Cu    0.89263   0.50559   0.25484   0.00000  Uiso   1.00
H317   H     0.66850   0.43434   0.03092   0.00000  Uiso   1.00
H318   H     0.99810   0.56597   0.46914   0.00000  Uiso   1.00
H319   H     0.80917   0.47281   0.10905   0.00000  Uiso   1.00
H320   H     0.85756   0.52716   0.39092   0.00000  Uiso   1.00
H321   H     0.97622   0.42750   0.46163   0.00000  Uiso   1.00
H322   H     0.69039   0.57276   0.03843   0.00000  Uiso   1.00
H323   H     0.74089   0.45955   0.07518   0.00000  Uiso   1.00
H324   H     0.92573   0.54077   0.42488   0.00000  Uiso   1.00
N325   N     0.98173   0.51401   0.26212   0.00000  Uiso   1.00
N326   N     0.68494   0.48599   0.23788   0.00000  Uiso   1.00
O327   O     0.79482   0.57142   0.24686   0.00000  Uiso   1.00
O328   O     0.87185   0.42858   0.25314   0.00000  Uiso   1.00
O329   O     0.89496   0.58086   0.25503   0.00000  Uiso   1.00
O330   O     0.77171   0.41914   0.24498   0.00000  Uiso   1.00
O331   O     0.75518   0.49263   0.30855   0.00000  Uiso   1.00
O332   O     0.91149   0.50737   0.19146   0.00000  Uiso   1.00
O333   O     0.85532   0.50207   0.31671   0.00000  Uiso   1.00
O334   O     0.81134   0.49793   0.18329   0.00000  Uiso   1.00
C335   C     0.67319   0.56720   0.12470   0.00000  Uiso   1.00
H336   H     0.99139   0.57850   0.15892   0.00000  Uiso   1.00
O337   O     0.73017   0.57614   0.10709   0.00000  Uiso   1.00
C338   C     0.99342   0.43296   0.37535   0.00000  Uiso   1.00
H339   H     0.67521   0.42158   0.34115   0.00000  Uiso   1.00
O340   O     0.93644   0.42411   0.39296   0.00000  Uiso   1.00
C341   C     0.87553   0.34420   0.29820   0.00000  Uiso   1.00
H342   H     0.91655   0.66567   0.30348   0.00000  Uiso   1.00
O343   O     0.84950   0.37364   0.32518   0.00000  Uiso   1.00
C344   C     0.79114   0.65580   0.20180   0.00000  Uiso   1.00
H345   H     0.75011   0.33433   0.19652   0.00000  Uiso   1.00
O346   O     0.81717   0.62637   0.17482   0.00000  Uiso   1.00
F347   F     0.66908   0.54048   0.29520   0.00000  Uiso   1.00
F348   F     0.99759   0.45952   0.20480   0.00000  Uiso   1.00
C349   C     0.18085   0.93314   0.25216   0.00000  Uiso   1.00
C350   C     0.15249   0.73353   0.24784   0.00000  Uiso   1.00
C351   C     0.09326   0.80201   0.04102   0.00000  Uiso   1.00
C352   C     0.24004   0.86491   0.45902   0.00000  Uiso   1.00
C353   C     0.05008   0.78753   0.01552   0.00000  Uiso   1.00
C354   C     0.28321   0.87940   0.48453   0.00000  Uiso   1.00
C355   C     0.18245   0.98785   0.26040   0.00000  Uiso   1.00
C356   C     0.15088   0.67882   0.23960   0.00000  Uiso   1.00
C357   C     0.12735   0.82732   0.33313   0.00000  Uiso   1.00
C358   C     0.20599   0.83935   0.16687   0.00000  Uiso   1.00
C359   C     0.10257   0.81872   0.38088   0.00000  Uiso   1.00
C360   C     0.23076   0.84801   0.11913   0.00000  Uiso   1.00
C361   C     0.02365   0.78217   0.44599   0.00000  Uiso   1.00
C362   C     0.30964   0.88470   0.05405   0.00000  Uiso   1.00
C363   C     0.04046   0.79045   0.40071   0.00000  Uiso   1.00
C364   C     0.29284   0.87636   0.09933   0.00000  Uiso   1.00
C365   C     0.14547   0.83720   0.40687   0.00000  Uiso   1.00
C366   C     0.18788   0.82953   0.09313   0.00000  Uiso   1.00
C367   C     0.13060   0.82561   0.45159   0.00000  Uiso   1.00
C368   C     0.20272   0.84121   0.04844   0.00000  Uiso   1.00
C369   C     0.06804   0.79858   0.47109   0.00000  Uiso   1.00
C370   C     0.26526   0.86830   0.02895   0.00000  Uiso   1.00
C371   C     0.17610   0.83963   0.47730   0.00000  Uiso   1.00
C372   C     0.15721   0.82723   0.02273   0.00000  Uiso   1.00
Cu373  Cu    0.10737   0.82775   0.24517   0.00000  Uiso   1.00
Cu374  Cu    0.22596   0.83892   0.25484   0.00000  Uiso   1.00
H375   H     0.00184   0.76768   0.03092   0.00000  Uiso   1.00
H376   H     0.33144   0.89930   0.46914   0.00000  Uiso   1.00
H377   H     0.14250   0.80614   0.10905   0.00000  Uiso   1.00
H378   H     0.19089   0.86049   0.39092   0.00000  Uiso   1.00
H379   H     0.30956   0.76083   0.46163   0.00000  Uiso   1.00
H380   H     0.02372   0.90609   0.03843   0.00000  Uiso   1.00
H381   H     0.07422   0.79289   0.07518   0.00000  Uiso   1.00
H382   H     0.25907   0.87410   0.42488   0.00000  Uiso   1.00
N383   N     0.31506   0.84735   0.26212   0.00000  Uiso   1.00
N384   N     0.01827   0.81932   0.23788   0.00000  Uiso   1.00
O385   O     0.12815   0.90476   0.24686   0.00000  Uiso   1.00
O386   O     0.20518   0.76191   0.25314   0.00000  Uiso   1.00
O387   O     0.22829   0.91420   0.25503   0.00000  Uiso   1.00
O388   O     0.10504   0.75247   0.24498   0.00000  Uiso   1.00
O389   O     0.08851   0.82597   0.30855   0.00000  Uiso   1.00
O390   O     0.24482   0.84070   0.19146   0.00000  Uiso   1.00
O391   O     0.18866   0.83540   0.31671   0.00000  Uiso   1.00
O392   O     0.14468   0.83126   0.18329   0.00000  Uiso   1.00
C393   C     0.00652   0.90053   0.12470   0.00000  Uiso   1.00
H394   H     0.32472   0.91184   0.15892   0.00000  Uiso   1.00
O395   O     0.06351   0.90947   0.10709   0.00000  Uiso   1.00
C396   C     0.32675   0.76629   0.37535   0.00000  Uiso   1.00
H397   H     0.00854   0.75491   0.34115   0.00000  Uiso   1.00
O398   O     0.26977   0.75744   0.39296   0.00000  Uiso   1.00
C399   C     0.20886   0.67753   0.29820   0.00000  Uiso   1.00
H400   H     0.24988   0.99900   0.30348   0.00000  Uiso   1.00
O401   O     0.18283   0.70697   0.32518   0.00000  Uiso   1.00
C402   C     0.12448   0.98913   0.20180   0.00000  Uiso   1.00
H403   H     0.08345   0.66766   0.19652   0.00000  Uiso   1.00
O404   O     0.15050   0.95970   0.17482   0.00000  Uiso   1.00
F405   F     0.00241   0.87382   0.29520   0.00000  Uiso   1.00
F406   F     0.33092   0.79285   0.20480   0.00000  Uiso   1.00
C407   C     0.51418   0.93314   0.25216   0.00000  Uiso   1.00
C408   C     0.48582   0.73353   0.24784   0.00000  Uiso   1.00
C409   C     0.42660   0.80201   0.04102   0.00000  Uiso   1.00
C410   C     0.57337   0.86491   0.45902   0.00000  Uiso   1.00
C411   C     0.38341   0.78753   0.01552   0.00000  Uiso   1.00
C412   C     0.61655   0.87940   0.48453   0.00000  Uiso   1.00
C413   C     0.51579   0.98785   0.26040   0.00000  Uiso   1.00
C414   C     0.48421   0.67882   0.23960   0.00000  Uiso   1.00
C415   C     0.46068   0.82732   0.33313   0.00000  Uiso   1.00
C416   C     0.53932   0.83935   0.16687   0.00000  Uiso   1.00
C417   C     0.43591   0.81872   0.38088   0.00000  Uiso   1.00
C418   C     0.56410   0.84801   0.11913   0.00000  Uiso   1.00
C419   C     0.35699   0.78217   0.44599   0.00000  Uiso   1.00
C420   C     0.64297   0.88470   0.05405   0.00000  Uiso   1.00
C421   C     0.37379   0.79045   0.40071   0.00000  Uiso   1.00
C422   C     0.62618   0.87636   0.09933   0.00000  Uiso   1.00
C423   C     0.47880   0.83720   0.40687   0.00000  Uiso   1.00
C424   C     0.52122   0.82953   0.09313   0.00000  Uiso   1.00
C425   C     0.46393   0.82561   0.45159   0.00000  Uiso   1.00
C426   C     0.53606   0.84121   0.04844   0.00000  Uiso   1.00
C427   C     0.40137   0.79858   0.47109   0.00000  Uiso   1.00
C428   C     0.59860   0.86830   0.02895   0.00000  Uiso   1.00
C429   C     0.50943   0.83963   0.47730   0.00000  Uiso   1.00
C430   C     0.49055   0.82723   0.02273   0.00000  Uiso   1.00
Cu431  Cu    0.44071   0.82775   0.24517   0.00000  Uiso   1.00
Cu432  Cu    0.55929   0.83892   0.25484   0.00000  Uiso   1.00
H433   H     0.33517   0.76768   0.03092   0.00000  Uiso   1.00
H434   H     0.66477   0.89930   0.46914   0.00000  Uiso   1.00
H435   H     0.47584   0.80614   0.10905   0.00000  Uiso   1.00
H436   H     0.52422   0.86049   0.39092   0.00000  Uiso   1.00
H437   H     0.64289   0.76083   0.46163   0.00000  Uiso   1.00
H438   H     0.35705   0.90609   0.03843   0.00000  Uiso   1.00
H439   H     0.40755   0.79289   0.07518   0.00000  Uiso   1.00
H440   H     0.59240   0.87410   0.42488   0.00000  Uiso   1.00
N441   N     0.64839   0.84735   0.26212   0.00000  Uiso   1.00
N442   N     0.35161   0.81932   0.23788   0.00000  Uiso   1.00
O443   O     0.46148   0.90476   0.24686   0.00000  Uiso   1.00
O444   O     0.53852   0.76191   0.25314   0.00000  Uiso   1.00
O445   O     0.56163   0.91420   0.25503   0.00000  Uiso   1.00
O446   O     0.43837   0.75247   0.24498   0.00000  Uiso   1.00
O447   O     0.42185   0.82597   0.30855   0.00000  Uiso   1.00
O448   O     0.57815   0.84070   0.19146   0.00000  Uiso   1.00
O449   O     0.52199   0.83540   0.31671   0.00000  Uiso   1.00
O450   O     0.47801   0.83126   0.18329   0.00000  Uiso   1.00
C451   C     0.33986   0.90053   0.12470   0.00000  Uiso   1.00
H452   H     0.65805   0.91184   0.15892   0.00000  Uiso   1.00
O453   O     0.39684   0.90947   0.10709   0.00000  Uiso   1.00
C454   C     0.66009   0.76629   0.37535   0.00000  Uiso   1.00
H455   H     0.34187   0.75491   0.34115   0.00000  Uiso   1.00
O456   O     0.60311   0.75744   0.39296   0.00000  Uiso   1.00
C457   C     0.54219   0.67753   0.29820   0.00000  Uiso   1.00
H458   H     0.58322   0.99900   0.30348   0.00000  Uiso   1.00
O459   O     0.51617   0.70697   0.32518   0.00000  Uiso   1.00
C460   C     0.45781   0.98913   0.20180   0.00000  Uiso   1.00
H461   H     0.41678   0.66766   0.19652   0.00000  Uiso   1.00
O462   O     0.48384   0.95970   0.17482   0.00000  Uiso   1.00
F463   F     0.33574   0.87382   0.29520   0.00000  Uiso   1.00
F464   F     0.66426   0.79285   0.20480   0.00000  Uiso   1.00
C465   C     0.84751   0.93314   0.25216   0.00000  Uiso   1.00
C466   C     0.81915   0.73353   0.24784   0.00000  Uiso   1.00
C467   C     0.75993   0.80201   0.04102   0.00000  Uiso   1.00
C468   C     0.90670   0.86491   0.45902   0.00000  Uiso   1.00
C469   C     0.71674   0.78753   0.01552   0.00000  Uiso   1.00
C470   C     0.94988   0.87940   0.48453   0.00000  Uiso   1.00
C471   C     0.84912   0.98785   0.26040   0.00000  Uiso   1.00
C472   C     0.81755   0.67882   0.23960   0.00000  Uiso   1.00
C473   C     0.79401   0.82732   0.33313   0.00000  Uiso   1.00
C474   C     0.87265   0.83935   0.16687   0.00000  Uiso   1.00
C475   C     0.76924   0.81872   0.38088   0.00000  Uiso   1.00
C476   C     0.89743   0.84801   0.11913   0.00000  Uiso   1.00
C477   C     0.69032   0.78217   0.44599   0.00000  Uiso   1.00
C478   C     0.97631   0.88470   0.05405   0.00000  Uiso   1.00
C479   C     0.70713   0.79045   0.40071   0.00000  Uiso   1.00
C480   C     0.95951   0.87636   0.09933   0.00000  Uiso   1.00
C481   C     0.81213   0.83720   0.40687   0.00000  Uiso   1.00
C482   C     0.85455   0.82953   0.09313   0.00000  Uiso   1.00
C483   C     0.79727   0.82561   0.45159   0.00000  Uiso   1.00
C484   C     0.86939   0.84121   0.04844   0.00000  Uiso   1.00
C485   C     0.73471   0.79858   0.47109   0.00000  Uiso   1.00
C486   C     0.93193   0.86830   0.02895   0.00000  Uiso   1.00
C487   C     0.84277   0.83963   0.47730   0.00000  Uiso   1.00
C488   C     0.82388   0.82723   0.02273   0.00000  Uiso   1.00
Cu489  Cu    0.77404   0.82775   0.24517   0.00000  Uiso   1.00
Cu490  Cu    0.89263   0.83892   0.25484   0.00000  Uiso   1.00
H491   H     0.66850   0.76768   0.03092   0.00000  Uiso   1.00
H492   H     0.99810   0.89930   0.46914   0.00000  Uiso   1.00
H493   H     0.80917   0.80614   0.10905   0.00000  Uiso   1.00
H494   H     0.85756   0.86049   0.39092   0.00000  Uiso   1.00
H495   H     0.97622   0.76083   0.46163   0.00000  Uiso   1.00
H496   H     0.69039   0.90609   0.03843   0.00000  Uiso   1.00
H497   H     0.74089   0.79289   0.07518   0.00000  Uiso   1.00
H498   H     0.92573   0.87410   0.42488   0.00000  Uiso   1.00
N499   N     0.98173   0.84735   0.26212   0.00000  Uiso   1.00
N500   N     0.68494   0.81932   0.23788   0.00000  Uiso   1.00
O501   O     0.79482   0.90476   0.24686   0.00000  Uiso   1.00
O502   O     0.87185   0.76191   0.25314   0.00000  Uiso   1.00
O503   O     0.89496   0.91420   0.25503   0.00000  Uiso   1.00
O504   O     0.77171   0.75247   0.24498   0.00000  Uiso   1.00
O505   O     0.75518   0.82597   0.30855   0.00000  Uiso   1.00
O506   O     0.91149   0.84070   0.19146   0.00000  Uiso   1.00
O507   O     0.85532   0.83540   0.31671   0.00000  Uiso   1.00
O508   O     0.81134   0.83126   0.18329   0.00000  Uiso   1.00
C509   C     0.67319   0.90053   0.12470   0.00000  Uiso   1.00
H510   H     0.99139   0.91184   0.15892   0.00000  Uiso   1.00
O511   O     0.73017   0.90947   0.10709   0.00000  Uiso   1.00
C512   C     0.99342   0.76629   0.37535   0.00000  Uiso   1.00
H513   H     0.67521   0.75491   0.34115   0.00000  Uiso   1.00
O514   O     0.93644   0.75744   0.39296   0.00000  Uiso   1.00
C515   C     0.87553   0.67753   0.29820   0.00000  Uiso   1.00
H516   H     0.91655   0.99900   0.30348   0.00000  Uiso   1.00
O517   O     0.84950   0.70697   0.32518   0.00000  Uiso   1.00
C518   C     0.79114   0.98913   0.20180   0.00000  Uiso   1.00
H519   H     0.75011   0.66766   0.19652   0.00000  Uiso   1.00
O520   O     0.81717   0.95970   0.17482   0.00000  Uiso   1.00
F521   F     0.66908   0.87382   0.29520   0.00000  Uiso   1.00
F522   F     0.99759   0.79285   0.20480   0.00000  Uiso   1.00
C523   C     0.18085   0.26647   0.75216   0.00000  Uiso   1.00
C524   C     0.15249   0.06686   0.74784   0.00000  Uiso   1.00
C525   C     0.09326   0.13534   0.54102   0.00000  Uiso   1.00
C526   C     0.24004   0.19824   0.95902   0.00000  Uiso   1.00
C527   C     0.05008   0.12086   0.51552   0.00000  Uiso   1.00
C528   C     0.28321   0.21274   0.98453   0.00000  Uiso   1.00
C529   C     0.18245   0.32118   0.76040   0.00000  Uiso   1.00
C530   C     0.15088   0.01215   0.73960   0.00000  Uiso   1.00
C531   C     0.12735   0.16066   0.83313   0.00000  Uiso   1.00
C532   C     0.20599   0.17269   0.66687   0.00000  Uiso   1.00
C533   C     0.10257   0.15206   0.88088   0.00000  Uiso   1.00
C534   C     0.23076   0.18134   0.61913   0.00000  Uiso   1.00
C535   C     0.02365   0.11551   0.94599   0.00000  Uiso   1.00
C536   C     0.30964   0.21803   0.55405   0.00000  Uiso   1.00
C537   C     0.04046   0.12378   0.90071   0.00000  Uiso   1.00
C538   C     0.29284   0.20970   0.59933   0.00000  Uiso   1.00
C539   C     0.14547   0.17054   0.90687   0.00000  Uiso   1.00
C540   C     0.18788   0.16286   0.59313   0.00000  Uiso   1.00
C541   C     0.13060   0.15895   0.95159   0.00000  Uiso   1.00
C542   C     0.20272   0.17455   0.54844   0.00000  Uiso   1.00
C543   C     0.06804   0.13191   0.97109   0.00000  Uiso   1.00
C544   C     0.26526   0.20163   0.52895   0.00000  Uiso   1.00
C545   C     0.17610   0.17296   0.97730   0.00000  Uiso   1.00
C546   C     0.15721   0.16056   0.52273   0.00000  Uiso   1.00
Cu547  Cu    0.10737   0.16108   0.74517   0.00000  Uiso   1.00
Cu548  Cu    0.22596   0.17225   0.75484   0.00000  Uiso   1.00
H549   H     0.00184   0.10101   0.53092   0.00000  Uiso   1.00
H550   H     0.33144   0.23263   0.96914   0.00000  Uiso   1.00
H551   H     0.14250   0.13947   0.60905   0.00000  Uiso   1.00
H552   H     0.19089   0.19383   0.89092   0.00000  Uiso   1.00
H553   H     0.30956   0.09417   0.96163   0.00000  Uiso   1.00
H554   H     0.02372   0.23942   0.53843   0.00000  Uiso   1.00
H555   H     0.07422   0.12622   0.57518   0.00000  Uiso   1.00
H556   H     0.25907   0.20743   0.92488   0.00000  Uiso   1.00
N557   N     0.31506   0.18068   0.76212   0.00000  Uiso   1.00
N558   N     0.01827   0.15265   0.73788   0.00000  Uiso   1.00
O559   O     0.12815   0.23809   0.74686   0.00000  Uiso   1.00
O560   O     0.20518   0.09524   0.75314   0.00000  Uiso   1.00
O561   O     0.22829   0.24753   0.75503   0.00000  Uiso   1.00
O562   O     0.10504   0.08580   0.74498   0.00000  Uiso   1.00
O563   O     0.08851   0.15930   0.80855   0.00000  Uiso   1.00
O564   O     0.24482   0.17403   0.69146   0.00000  Uiso   1.00
O565   O     0.18866   0.16874   0.81671   0.00000  Uiso   1.00
O566   O     0.14468   0.16460   0.68329   0.00000  Uiso   1.00
C567   C     0.00652   0.23386   0.62470   0.00000  Uiso   1.00
H568   H     0.32472   0.24517   0.65892   0.00000  Uiso   1.00
O569   O     0.06351   0.24281   0.60709   0.00000  Uiso   1.00
C570   C     0.32675   0.09962   0.87535   0.00000  Uiso   1.00
H571   H     0.00854   0.08824   0.84115   0.00000  Uiso   1.00
O572   O     0.26977   0.09077   0.89296   0.00000  Uiso   1.00
C573   C     0.20886   0.01087   0.79820   0.00000  Uiso   1.00
H574   H     0.24988   0.33234   0.80348   0.00000  Uiso   1.00
O575   O     0.18283   0.04030   0.82518   0.00000  Uiso   1.00
C576   C     0.12448   0.32247   0.70180   0.00000  Uiso   1.00
H577   H     0.08345   0.00099   0.69652   0.00000  Uiso   1.00
O578   O     0.15050   0.29303   0.67482   0.00000  Uiso   1.00
F579   F     0.00241   0.20715   0.79520   0.00000  Uiso   1.00
F580   F     0.33092   0.12618   0.70480   0.00000  Uiso   1.00
C581   C     0.51418   0.26647   0.75216   0.00000  Uiso   1.00
C582   C     0.48582   0.06686   0.74784   0.00000  Uiso   1.00
C583   C     0.42660   0.13534   0.54102   0.00000  Uiso   1.00
C584   C     0.57337   0.19824   0.95902   0.00000  Uiso   1.00
C585   C     0.38341   0.12086   0.51552   0.00000  Uiso   1.00
C586   C     0.61655   0.21274   0.98453   0.00000  Uiso   1.00
C587   C     0.51579   0.32118   0.76040   0.00000  Uiso   1.00
C588   C     0.48421   0.01215   0.73960   0.00000  Uiso   1.00
C589   C     0.46068   0.16066   0.83313   0.00000  Uiso   1.00
C590   C     0.53932   0.17269   0.66687   0.00000  Uiso   1.00
C591   C     0.43591   0.15206   0.88088   0.00000  Uiso   1.00
C592   C     0.56410   0.18134   0.61913   0.00000  Uiso   1.00
C593   C     0.35699   0.11551   0.94599   0.00000  Uiso   1.00
C594   C     0.64297   0.21803   0.55405   0.00000  Uiso   1.00
C595   C     0.37379   0.12378   0.90071   0.00000  Uiso   1.00
C596   C     0.62618   0.20970   0.59933   0.00000  Uiso   1.00
C597   C     0.47880   0.17054   0.90687   0.00000  Uiso   1.00
C598   C     0.52122   0.16286   0.59313   0.00000  Uiso   1.00
C599   C     0.46393   0.15895   0.95159   0.00000  Uiso   1.00
C600   C     0.53606   0.17455   0.54844   0.00000  Uiso   1.00
C601   C     0.40137   0.13191   0.97109   0.00000  Uiso   1.00
C602   C     0.59860   0.20163   0.52895   0.00000  Uiso   1.00
C603   C     0.50943   0.17296   0.97730   0.00000  Uiso   1.00
C604   C     0.49055   0.16056   0.52273   0.00000  Uiso   1.00
Cu605  Cu    0.44071   0.16108   0.74517   0.00000  Uiso   1.00
Cu606  Cu    0.55929   0.17225   0.75484   0.00000  Uiso   1.00
H607   H     0.33517   0.10101   0.53092   0.00000  Uiso   1.00
H608   H     0.66477   0.23263   0.96914   0.00000  Uiso   1.00
H609   H     0.47584   0.13947   0.60905   0.00000  Uiso   1.00
H610   H     0.52422   0.19383   0.89092   0.00000  Uiso   1.00
H611   H     0.64289   0.09417   0.96163   0.00000  Uiso   1.00
H612   H     0.35705   0.23942   0.53843   0.00000  Uiso   1.00
H613   H     0.40755   0.12622   0.57518   0.00000  Uiso   1.00
H614   H     0.59240   0.20743   0.92488   0.00000  Uiso   1.00
N615   N     0.64839   0.18068   0.76212   0.00000  Uiso   1.00
N616   N     0.35161   0.15265   0.73788   0.00000  Uiso   1.00
O617   O     0.46148   0.23809   0.74686   0.00000  Uiso   1.00
O618   O     0.53852   0.09524   0.75314   0.00000  Uiso   1.00
O619   O     0.56163   0.24753   0.75503   0.00000  Uiso   1.00
O620   O     0.43837   0.08580   0.74498   0.00000  Uiso   1.00
O621   O     0.42185   0.15930   0.80855   0.00000  Uiso   1.00
O622   O     0.57815   0.17403   0.69146   0.00000  Uiso   1.00
O623   O     0.52199   0.16874   0.81671   0.00000  Uiso   1.00
O624   O     0.47801   0.16460   0.68329   0.00000  Uiso   1.00
C625   C     0.33986   0.23386   0.62470   0.00000  Uiso   1.00
H626   H     0.65805   0.24517   0.65892   0.00000  Uiso   1.00
O627   O     0.39684   0.24281   0.60709   0.00000  Uiso   1.00
C628   C     0.66009   0.09962   0.87535   0.00000  Uiso   1.00
H629   H     0.34187   0.08824   0.84115   0.00000  Uiso   1.00
O630   O     0.60311   0.09077   0.89296   0.00000  Uiso   1.00
C631   C     0.54219   0.01087   0.79820   0.00000  Uiso   1.00
H632   H     0.58322   0.33234   0.80348   0.00000  Uiso   1.00
O633   O     0.51617   0.04030   0.82518   0.00000  Uiso   1.00
C634   C     0.45781   0.32247   0.70180   0.00000  Uiso   1.00
H635   H     0.41678   0.00099   0.69652   0.00000  Uiso   1.00
O636   O     0.48384   0.29303   0.67482   0.00000  Uiso   1.00
F637   F     0.33574   0.20715   0.79520   0.00000  Uiso   1.00
F638   F     0.66426   0.12618   0.70480   0.00000  Uiso   1.00
C639   C     0.84751   0.26647   0.75216   0.00000  Uiso   1.00
C640   C     0.81915   0.06686   0.74784   0.00000  Uiso   1.00
C641   C     0.75993   0.13534   0.54102   0.00000  Uiso   1.00
C642   C     0.90670   0.19824   0.95902   0.00000  Uiso   1.00
C643   C     0.71674   0.12086   0.51552   0.00000  Uiso   1.00
C644   C     0.94988   0.21274   0.98453   0.00000  Uiso   1.00
C645   C     0.84912   0.32118   0.76040   0.00000  Uiso   1.00
C646   C     0.81755   0.01215   0.73960   0.00000  Uiso   1.00
C647   C     0.79401   0.16066   0.83313   0.00000  Uiso   1.00
C648   C     0.87265   0.17269   0.66687   0.00000  Uiso   1.00
C649   C     0.76924   0.15206   0.88088   0.00000  Uiso   1.00
C650   C     0.89743   0.18134   0.61913   0.00000  Uiso   1.00
C651   C     0.69032   0.11551   0.94599   0.00000  Uiso   1.00
C652   C     0.97631   0.21803   0.55405   0.00000  Uiso   1.00
C653   C     0.70713   0.12378   0.90071   0.00000  Uiso   1.00
C654   C     0.95951   0.20970   0.59933   0.00000  Uiso   1.00
C655   C     0.81213   0.17054   0.90687   0.00000  Uiso   1.00
C656   C     0.85455   0.16286   0.59313   0.00000  Uiso   1.00
C657   C     0.79727   0.15895   0.95159   0.00000  Uiso   1.00
C658   C     0.86939   0.17455   0.54844   0.00000  Uiso   1.00
C659   C     0.73471   0.13191   0.97109   0.00000  Uiso   1.00
C660   C     0.93193   0.20163   0.52895   0.00000  Uiso   1.00
C661   C     0.84277   0.17296   0.97730   0.00000  Uiso   1.00
C662   C     0.82388   0.16056   0.52273   0.00000  Uiso   1.00
Cu663  Cu    0.77404   0.16108   0.74517   0.00000  Uiso   1.00
Cu664  Cu    0.89263   0.17225   0.75484   0.00000  Uiso   1.00
H665   H     0.66850   0.10101   0.53092   0.00000  Uiso   1.00
H666   H     0.99810   0.23263   0.96914   0.00000  Uiso   1.00
H667   H     0.80917   0.13947   0.60905   0.00000  Uiso   1.00
H668   H     0.85756   0.19383   0.89092   0.00000  Uiso   1.00
H669   H     0.97622   0.09417   0.96163   0.00000  Uiso   1.00
H670   H     0.69039   0.23942   0.53843   0.00000  Uiso   1.00
H671   H     0.74089   0.12622   0.57518   0.00000  Uiso   1.00
H672   H     0.92573   0.20743   0.92488   0.00000  Uiso   1.00
N673   N     0.98173   0.18068   0.76212   0.00000  Uiso   1.00
N674   N     0.68494   0.15265   0.73788   0.00000  Uiso   1.00
O675   O     0.79482   0.23809   0.74686   0.00000  Uiso   1.00
O676   O     0.87185   0.09524   0.75314   0.00000  Uiso   1.00
O677   O     0.89496   0.24753   0.75503   0.00000  Uiso   1.00
O678   O     0.77171   0.08580   0.74498   0.00000  Uiso   1.00
O679   O     0.75518   0.15930   0.80855   0.00000  Uiso   1.00
O680   O     0.91149   0.17403   0.69146   0.00000  Uiso   1.00
O681   O     0.85532   0.16874   0.81671   0.00000  Uiso   1.00
O682   O     0.81134   0.16460   0.68329   0.00000  Uiso   1.00
C683   C     0.67319   0.23386   0.62470   0.00000  Uiso   1.00
H684   H     0.99139   0.24517   0.65892   0.00000  Uiso   1.00
O685   O     0.73017   0.24281   0.60709   0.00000  Uiso   1.00
C686   C     0.99342   0.09962   0.87535   0.00000  Uiso   1.00
H687   H     0.67521   0.08824   0.84115   0.00000  Uiso   1.00
O688   O     0.93644   0.09077   0.89296   0.00000  Uiso   1.00
C689   C     0.87553   0.01087   0.79820   0.00000  Uiso   1.00
H690   H     0.91655   0.33234   0.80348   0.00000  Uiso   1.00
O691   O     0.84950   0.04030   0.82518   0.00000  Uiso   1.00
C692   C     0.79114   0.32247   0.70180   0.00000  Uiso   1.00
H693   H     0.75011   0.00099   0.69652   0.00000  Uiso   1.00
O694   O     0.81717   0.29303   0.67482   0.00000  Uiso   1.00
F695   F     0.66908   0.20715   0.79520   0.00000  Uiso   1.00
F696   F     0.99759   0.12618   0.70480   0.00000  Uiso   1.00
C697   C     0.18085   0.59980   0.75216   0.00000  Uiso   1.00
C698   C     0.15249   0.40020   0.74784   0.00000  Uiso   1.00
C699   C     0.09326   0.46868   0.54102   0.00000  Uiso   1.00
C700   C     0.24004   0.53157   0.95902   0.00000  Uiso   1.00
C701   C     0.05008   0.45419   0.51552   0.00000  Uiso   1.00
C702   C     0.28321   0.54607   0.98453   0.00000  Uiso   1.00
C703   C     0.18245   0.65452   0.76040   0.00000  Uiso   1.00
C704   C     0.15088   0.34548   0.73960   0.00000  Uiso   1.00
C705   C     0.12735   0.49399   0.83313   0.00000  Uiso   1.00
C706   C     0.20599   0.50602   0.66687   0.00000  Uiso   1.00
C707   C     0.10257   0.48539   0.88088   0.00000  Uiso   1.00
C708   C     0.23076   0.51468   0.61913   0.00000  Uiso   1.00
C709   C     0.02365   0.44884   0.94599   0.00000  Uiso   1.00
C710   C     0.30964   0.55137   0.55405   0.00000  Uiso   1.00
C711   C     0.04046   0.45711   0.90071   0.00000  Uiso   1.00
C712   C     0.29284   0.54303   0.59933   0.00000  Uiso   1.00
C713   C     0.14547   0.50387   0.90687   0.00000  Uiso   1.00
C714   C     0.18788   0.49619   0.59313   0.00000  Uiso   1.00
C715   C     0.13060   0.49228   0.95159   0.00000  Uiso   1.00
C716   C     0.20272   0.50788   0.54844   0.00000  Uiso   1.00
C717   C     0.06804   0.46525   0.97109   0.00000  Uiso   1.00
C718   C     0.26526   0.53496   0.52895   0.00000  Uiso   1.00
C719   C     0.17610   0.50630   0.97730   0.00000  Uiso   1.00
C720   C     0.15721   0.49390   0.52273   0.00000  Uiso   1.00
Cu721  Cu    0.10737   0.49441   0.74517   0.00000  Uiso   1.00
Cu722  Cu    0.22596   0.50559   0.75484   0.00000  Uiso   1.00
H723   H     0.00184   0.43434   0.53092   0.00000  Uiso   1.00
H724   H     0.33144   0.56597   0.96914   0.00000  Uiso   1.00
H725   H     0.14250   0.47281   0.60905   0.00000  Uiso   1.00
H726   H     0.19089   0.52716   0.89092   0.00000  Uiso   1.00
H727   H     0.30956   0.42750   0.96163   0.00000  Uiso   1.00
H728   H     0.02372   0.57276   0.53843   0.00000  Uiso   1.00
H729   H     0.07422   0.45955   0.57518   0.00000  Uiso   1.00
H730   H     0.25907   0.54077   0.92488   0.00000  Uiso   1.00
N731   N     0.31506   0.51401   0.76212   0.00000  Uiso   1.00
N732   N     0.01827   0.48599   0.73788   0.00000  Uiso   1.00
O733   O     0.12815   0.57142   0.74686   0.00000  Uiso   1.00
O734   O     0.20518   0.42858   0.75314   0.00000  Uiso   1.00
O735   O     0.22829   0.58086   0.75503   0.00000  Uiso   1.00
O736   O     0.10504   0.41914   0.74498   0.00000  Uiso   1.00
O737   O     0.08851   0.49263   0.80855   0.00000  Uiso   1.00
O738   O     0.24482   0.50737   0.69146   0.00000  Uiso   1.00
O739   O     0.18866   0.50207   0.81671   0.00000  Uiso   1.00
O740   O     0.14468   0.49793   0.68329   0.00000  Uiso   1.00
C741   C     0.00652   0.56720   0.62470   0.00000  Uiso   1.00
H742   H     0.32472   0.57850   0.65892   0.00000  Uiso   1.00
O743   O     0.06351   0.57614   0.60709   0.00000  Uiso   1.00
C744   C     0.32675   0.43296   0.87535   0.00000  Uiso   1.00
H745   H     0.00854   0.42158   0.84115   0.00000  Uiso   1.00
O746   O     0.26977   0.42411   0.89296   0.00000  Uiso   1.00
C747   C     0.20886   0.34420   0.79820   0.00000  Uiso   1.00
H748   H     0.24988   0.66567   0.80348   0.00000  Uiso   1.00
O749   O     0.18283   0.37364   0.82518   0.00000  Uiso   1.00
C750   C     0.12448   0.65580   0.70180   0.00000  Uiso   1.00
H751   H     0.08345   0.33433   0.69652   0.00000  Uiso   1.00
O752   O     0.15050   0.62637   0.67482   0.00000  Uiso   1.00
F753   F     0.00241   0.54048   0.79520   0.00000  Uiso   1.00
F754   F     0.33092   0.45952   0.70480   0.00000  Uiso   1.00
C755   C     0.51418   0.59980   0.75216   0.00000  Uiso   1.00
C756   C     0.48582   0.40020   0.74784   0.00000  Uiso   1.00
C757   C     0.42660   0.46868   0.54102   0.00000  Uiso   1.00
C758   C     0.57337   0.53157   0.95902   0.00000  Uiso   1.00
C759   C     0.38341   0.45419   0.51552   0.00000  Uiso   1.00
C760   C     0.61655   0.54607   0.98453   0.00000  Uiso   1.00
C761   C     0.51579   0.65452   0.76040   0.00000  Uiso   1.00
C762   C     0.48421   0.34548   0.73960   0.00000  Uiso   1.00
C763   C     0.46068   0.49399   0.83313   0.00000  Uiso   1.00
C764   C     0.53932   0.50602   0.66687   0.00000  Uiso   1.00
C765   C     0.43591   0.48539   0.88088   0.00000  Uiso   1.00
C766   C     0.56410   0.51468   0.61913   0.00000  Uiso   1.00
C767   C     0.35699   0.44884   0.94599   0.00000  Uiso   1.00
C768   C     0.64297   0.55137   0.55405   0.00000  Uiso   1.00
C769   C     0.37379   0.45711   0.90071   0.00000  Uiso   1.00
C770   C     0.62618   0.54303   0.59933   0.00000  Uiso   1.00
C771   C     0.47880   0.50387   0.90687   0.00000  Uiso   1.00
C772   C     0.52122   0.49619   0.59313   0.00000  Uiso   1.00
C773   C     0.46393   0.49228   0.95159   0.00000  Uiso   1.00
C774   C     0.53606   0.50788   0.54844   0.00000  Uiso   1.00
C775   C     0.40137   0.46525   0.97109   0.00000  Uiso   1.00
C776   C     0.59860   0.53496   0.52895   0.00000  Uiso   1.00
C777   C     0.50943   0.50630   0.97730   0.00000  Uiso   1.00
C778   C     0.49055   0.49390   0.52273   0.00000  Uiso   1.00
Cu779  Cu    0.44071   0.49441   0.74517   0.00000  Uiso   1.00
Cu780  Cu    0.55929   0.50559   0.75484   0.00000  Uiso   1.00
H781   H     0.33517   0.43434   0.53092   0.00000  Uiso   1.00
H782   H     0.66477   0.56597   0.96914   0.00000  Uiso   1.00
H783   H     0.47584   0.47281   0.60905   0.00000  Uiso   1.00
H784   H     0.52422   0.52716   0.89092   0.00000  Uiso   1.00
H785   H     0.64289   0.42750   0.96163   0.00000  Uiso   1.00
H786   H     0.35705   0.57276   0.53843   0.00000  Uiso   1.00
H787   H     0.40755   0.45955   0.57518   0.00000  Uiso   1.00
H788   H     0.59240   0.54077   0.92488   0.00000  Uiso   1.00
N789   N     0.64839   0.51401   0.76212   0.00000  Uiso   1.00
N790   N     0.35161   0.48599   0.73788   0.00000  Uiso   1.00
O791   O     0.46148   0.57142   0.74686   0.00000  Uiso   1.00
O792   O     0.53852   0.42858   0.75314   0.00000  Uiso   1.00
O793   O     0.56163   0.58086   0.75503   0.00000  Uiso   1.00
O794   O     0.43837   0.41914   0.74498   0.00000  Uiso   1.00
O795   O     0.42185   0.49263   0.80855   0.00000  Uiso   1.00
O796   O     0.57815   0.50737   0.69146   0.00000  Uiso   1.00
O797   O     0.52199   0.50207   0.81671   0.00000  Uiso   1.00
O798   O     0.47801   0.49793   0.68329   0.00000  Uiso   1.00
C799   C     0.33986   0.56720   0.62470   0.00000  Uiso   1.00
H800   H     0.65805   0.57850   0.65892   0.00000  Uiso   1.00
O801   O     0.39684   0.57614   0.60709   0.00000  Uiso   1.00
C802   C     0.66009   0.43296   0.87535   0.00000  Uiso   1.00
H803   H     0.34187   0.42158   0.84115   0.00000  Uiso   1.00
O804   O     0.60311   0.42411   0.89296   0.00000  Uiso   1.00
C805   C     0.54219   0.34420   0.79820   0.00000  Uiso   1.00
H806   H     0.58322   0.66567   0.80348   0.00000  Uiso   1.00
O807   O     0.51617   0.37364   0.82518   0.00000  Uiso   1.00
C808   C     0.45781   0.65580   0.70180   0.00000  Uiso   1.00
H809   H     0.41678   0.33433   0.69652   0.00000  Uiso   1.00
O810   O     0.48384   0.62637   0.67482   0.00000  Uiso   1.00
F811   F     0.33574   0.54048   0.79520   0.00000  Uiso   1.00
F812   F     0.66426   0.45952   0.70480   0.00000  Uiso   1.00
C813   C     0.84751   0.59980   0.75216   0.00000  Uiso   1.00
C814   C     0.81915   0.40020   0.74784   0.00000  Uiso   1.00
C815   C     0.75993   0.46868   0.54102   0.00000  Uiso   1.00
C816   C     0.90670   0.53157   0.95902   0.00000  Uiso   1.00
C817   C     0.71674   0.45419   0.51552   0.00000  Uiso   1.00
C818   C     0.94988   0.54607   0.98453   0.00000  Uiso   1.00
C819   C     0.84912   0.65452   0.76040   0.00000  Uiso   1.00
C820   C     0.81755   0.34548   0.73960   0.00000  Uiso   1.00
C821   C     0.79401   0.49399   0.83313   0.00000  Uiso   1.00
C822   C     0.87265   0.50602   0.66687   0.00000  Uiso   1.00
C823   C     0.76924   0.48539   0.88088   0.00000  Uiso   1.00
C824   C     0.89743   0.51468   0.61913   0.00000  Uiso   1.00
C825   C     0.69032   0.44884   0.94599   0.00000  Uiso   1.00
C826   C     0.97631   0.55137   0.55405   0.00000  Uiso   1.00
C827   C     0.70713   0.45711   0.90071   0.00000  Uiso   1.00
C828   C     0.95951   0.54303   0.59933   0.00000  Uiso   1.00
C829   C     0.81213   0.50387   0.90687   0.00000  Uiso   1.00
C830   C     0.85455   0.49619   0.59313   0.00000  Uiso   1.00
C831   C     0.79727   0.49228   0.95159   0.00000  Uiso   1.00
C832   C     0.86939   0.50788   0.54844   0.00000  Uiso   1.00
C833   C     0.73471   0.46525   0.97109   0.00000  Uiso   1.00
C834   C     0.93193   0.53496   0.52895   0.00000  Uiso   1.00
C835   C     0.84277   0.50630   0.97730   0.00000  Uiso   1.00
C836   C     0.82388   0.49390   0.52273   0.00000  Uiso   1.00
Cu837  Cu    0.77404   0.49441   0.74517   0.00000  Uiso   1.00
Cu838  Cu    0.89263   0.50559   0.75484   0.00000  Uiso   1.00
H839   H     0.66850   0.43434   0.53092   0.00000  Uiso   1.00
H840   H     0.99810   0.56597   0.96914   0.00000  Uiso   1.00
H841   H     0.80917   0.47281   0.60905   0.00000  Uiso   1.00
H842   H     0.85756   0.52716   0.89092   0.00000  Uiso   1.00
H843   H     0.97622   0.42750   0.96163   0.00000  Uiso   1.00
H844   H     0.69039   0.57276   0.53843   0.00000  Uiso   1.00
H845   H     0.74089   0.45955   0.57518   0.00000  Uiso   1.00
H846   H     0.92573   0.54077   0.92488   0.00000  Uiso   1.00
N847   N     0.98173   0.51401   0.76212   0.00000  Uiso   1.00
N848   N     0.68494   0.48599   0.73788   0.00000  Uiso   1.00
O849   O     0.79482   0.57142   0.74686   0.00000  Uiso   1.00
O850   O     0.87185   0.42858   0.75314   0.00000  Uiso   1.00
O851   O     0.89496   0.58086   0.75503   0.00000  Uiso   1.00
O852   O     0.77171   0.41914   0.74498   0.00000  Uiso   1.00
O853   O     0.75518   0.49263   0.80855   0.00000  Uiso   1.00
O854   O     0.91149   0.50737   0.69146   0.00000  Uiso   1.00
O855   O     0.85532   0.50207   0.81671   0.00000  Uiso   1.00
O856   O     0.81134   0.49793   0.68329   0.00000  Uiso   1.00
C857   C     0.67319   0.56720   0.62470   0.00000  Uiso   1.00
H858   H     0.99139   0.57850   0.65892   0.00000  Uiso   1.00
O859   O     0.73017   0.57614   0.60709   0.00000  Uiso   1.00
C860   C     0.99342   0.43296   0.87535   0.00000  Uiso   1.00
H861   H     0.67521   0.42158   0.84115   0.00000  Uiso   1.00
O862   O     0.93644   0.42411   0.89296   0.00000  Uiso   1.00
C863   C     0.87553   0.34420   0.79820   0.00000  Uiso   1.00
H864   H     0.91655   0.66567   0.80348   0.00000  Uiso   1.00
O865   O     0.84950   0.37364   0.82518   0.00000  Uiso   1.00
C866   C     0.79114   0.65580   0.70180   0.00000  Uiso   1.00
H867   H     0.75011   0.33433   0.69652   0.00000  Uiso   1.00
O868   O     0.81717   0.62637   0.67482   0.00000  Uiso   1.00
F869   F     0.66908   0.54048   0.79520   0.00000  Uiso   1.00
F870   F     0.99759   0.45952   0.70480   0.00000  Uiso   1.00
C871   C     0.18085   0.93314   0.75216   0.00000  Uiso   1.00
C872   C     0.15249   0.73353   0.74784   0.00000  Uiso   1.00
C873   C     0.09326   0.80201   0.54102   0.00000  Uiso   1.00
C874   C     0.24004   0.86491   0.95902   0.00000  Uiso   1.00
C875   C     0.05008   0.78753   0.51552   0.00000  Uiso   1.00
C876   C     0.28321   0.87940   0.98453   0.00000  Uiso   1.00
C877   C     0.18245   0.98785   0.76040   0.00000  Uiso   1.00
C878   C     0.15088   0.67882   0.73960   0.00000  Uiso   1.00
C879   C     0.12735   0.82732   0.83313   0.00000  Uiso   1.00
C880   C     0.20599   0.83935   0.66687   0.00000  Uiso   1.00
C881   C     0.10257   0.81872   0.88088   0.00000  Uiso   1.00
C882   C     0.23076   0.84801   0.61913   0.00000  Uiso   1.00
C883   C     0.02365   0.78217   0.94599   0.00000  Uiso   1.00
C884   C     0.30964   0.88470   0.55405   0.00000  Uiso   1.00
C885   C     0.04046   0.79045   0.90071   0.00000  Uiso   1.00
C886   C     0.29284   0.87636   0.59933   0.00000  Uiso   1.00
C887   C     0.14547   0.83720   0.90687   0.00000  Uiso   1.00
C888   C     0.18788   0.82953   0.59313   0.00000  Uiso   1.00
C889   C     0.13060   0.82561   0.95159   0.00000  Uiso   1.00
C890   C     0.20272   0.84121   0.54844   0.00000  Uiso   1.00
C891   C     0.06804   0.79858   0.97109   0.00000  Uiso   1.00
C892   C     0.26526   0.86830   0.52895   0.00000  Uiso   1.00
C893   C     0.17610   0.83963   0.97730   0.00000  Uiso   1.00
C894   C     0.15721   0.82723   0.52273   0.00000  Uiso   1.00
Cu895  Cu    0.10737   0.82775   0.74517   0.00000  Uiso   1.00
Cu896  Cu    0.22596   0.83892   0.75484   0.00000  Uiso   1.00
H897   H     0.00184   0.76768   0.53092   0.00000  Uiso   1.00
H898   H     0.33144   0.89930   0.96914   0.00000  Uiso   1.00
H899   H     0.14250   0.80614   0.60905   0.00000  Uiso   1.00
H900   H     0.19089   0.86049   0.89092   0.00000  Uiso   1.00
H901   H     0.30956   0.76083   0.96163   0.00000  Uiso   1.00
H902   H     0.02372   0.90609   0.53843   0.00000  Uiso   1.00
H903   H     0.07422   0.79289   0.57518   0.00000  Uiso   1.00
H904   H     0.25907   0.87410   0.92488   0.00000  Uiso   1.00
N905   N     0.31506   0.84735   0.76212   0.00000  Uiso   1.00
N906   N     0.01827   0.81932   0.73788   0.00000  Uiso   1.00
O907   O     0.12815   0.90476   0.74686   0.00000  Uiso   1.00
O908   O     0.20518   0.76191   0.75314   0.00000  Uiso   1.00
O909   O     0.22829   0.91420   0.75503   0.00000  Uiso   1.00
O910   O     0.10504   0.75247   0.74498   0.00000  Uiso   1.00
O911   O     0.08851   0.82597   0.80855   0.00000  Uiso   1.00
O912   O     0.24482   0.84070   0.69146   0.00000  Uiso   1.00
O913   O     0.18866   0.83540   0.81671   0.00000  Uiso   1.00
O914   O     0.14468   0.83126   0.68329   0.00000  Uiso   1.00
C915   C     0.00652   0.90053   0.62470   0.00000  Uiso   1.00
H916   H     0.32472   0.91184   0.65892   0.00000  Uiso   1.00
O917   O     0.06351   0.90947   0.60709   0.00000  Uiso   1.00
C918   C     0.32675   0.76629   0.87535   0.00000  Uiso   1.00
H919   H     0.00854   0.75491   0.84115   0.00000  Uiso   1.00
O920   O     0.26977   0.75744   0.89296   0.00000  Uiso   1.00
C921   C     0.20886   0.67753   0.79820   0.00000  Uiso   1.00
H922   H     0.24988   0.99900   0.80348   0.00000  Uiso   1.00
O923   O     0.18283   0.70697   0.82518   0.00000  Uiso   1.00
C924   C     0.12448   0.98913   0.70180   0.00000  Uiso   1.00
H925   H     0.08345   0.66766   0.69652   0.00000  Uiso   1.00
O926   O     0.15050   0.95970   0.67482   0.00000  Uiso   1.00
F927   F     0.00241   0.87382   0.79520   0.00000  Uiso   1.00
F928   F     0.33092   0.79285   0.70480   0.00000  Uiso   1.00
C929   C     0.51418   0.93314   0.75216   0.00000  Uiso   1.00
C930   C     0.48582   0.73353   0.74784   0.00000  Uiso   1.00
C931   C     0.42660   0.80201   0.54102   0.00000  Uiso   1.00
C932   C     0.57337   0.86491   0.95902   0.00000  Uiso   1.00
C933   C     0.38341   0.78753   0.51552   0.00000  Uiso   1.00
C934   C     0.61655   0.87940   0.98453   0.00000  Uiso   1.00
C935   C     0.51579   0.98785   0.76040   0.00000  Uiso   1.00
C936   C     0.48421   0.67882   0.73960   0.00000  Uiso   1.00
C937   C     0.46068   0.82732   0.83313   0.00000  Uiso   1.00
C938   C     0.53932   0.83935   0.66687   0.00000  Uiso   1.00
C939   C     0.43591   0.81872   0.88088   0.00000  Uiso   1.00
C940   C     0.56410   0.84801   0.61913   0.00000  Uiso   1.00
C941   C     0.35699   0.78217   0.94599   0.00000  Uiso   1.00
C942   C     0.64297   0.88470   0.55405   0.00000  Uiso   1.00
C943   C     0.37379   0.79045   0.90071   0.00000  Uiso   1.00
C944   C     0.62618   0.87636   0.59933   0.00000  Uiso   1.00
C945   C     0.47880   0.83720   0.90687   0.00000  Uiso   1.00
C946   C     0.52122   0.82953   0.59313   0.00000  Uiso   1.00
C947   C     0.46393   0.82561   0.95159   0.00000  Uiso   1.00
C948   C     0.53606   0.84121   0.54844   0.00000  Uiso   1.00
C949   C     0.40137   0.79858   0.97109   0.00000  Uiso   1.00
C950   C     0.59860   0.86830   0.52895   0.00000  Uiso   1.00
C951   C     0.50943   0.83963   0.97730   0.00000  Uiso   1.00
C952   C     0.49055   0.82723   0.52273   0.00000  Uiso   1.00
Cu953  Cu    0.44071   0.82775   0.74517   0.00000  Uiso   1.00
Cu954  Cu    0.55929   0.83892   0.75484   0.00000  Uiso   1.00
H955   H     0.33517   0.76768   0.53092   0.00000  Uiso   1.00
H956   H     0.66477   0.89930   0.96914   0.00000  Uiso   1.00
H957   H     0.47584   0.80614   0.60905   0.00000  Uiso   1.00
H958   H     0.52422   0.86049   0.89092   0.00000  Uiso   1.00
H959   H     0.64289   0.76083   0.96163   0.00000  Uiso   1.00
H960   H     0.35705   0.90609   0.53843   0.00000  Uiso   1.00
H961   H     0.40755   0.79289   0.57518   0.00000  Uiso   1.00
H962   H     0.59240   0.87410   0.92488   0.00000  Uiso   1.00
N963   N     0.64839   0.84735   0.76212   0.00000  Uiso   1.00
N964   N     0.35161   0.81932   0.73788   0.00000  Uiso   1.00
O965   O     0.46148   0.90476   0.74686   0.00000  Uiso   1.00
O966   O     0.53852   0.76191   0.75314   0.00000  Uiso   1.00
O967   O     0.56163   0.91420   0.75503   0.00000  Uiso   1.00
O968   O     0.43837   0.75247   0.74498   0.00000  Uiso   1.00
O969   O     0.42185   0.82597   0.80855   0.00000  Uiso   1.00
O970   O     0.57815   0.84070   0.69146   0.00000  Uiso   1.00
O971   O     0.52199   0.83540   0.81671   0.00000  Uiso   1.00
O972   O     0.47801   0.83126   0.68329   0.00000  Uiso   1.00
C973   C     0.33986   0.90053   0.62470   0.00000  Uiso   1.00
H974   H     0.65805   0.91184   0.65892   0.00000  Uiso   1.00
O975   O     0.39684   0.90947   0.60709   0.00000  Uiso   1.00
C976   C     0.66009   0.76629   0.87535   0.00000  Uiso   1.00
H977   H     0.34187   0.75491   0.84115   0.00000  Uiso   1.00
O978   O     0.60311   0.75744   0.89296   0.00000  Uiso   1.00
C979   C     0.54219   0.67753   0.79820   0.00000  Uiso   1.00
H980   H     0.58322   0.99900   0.80348   0.00000  Uiso   1.00
O981   O     0.51617   0.70697   0.82518   0.00000  Uiso   1.00
C982   C     0.45781   0.98913   0.70180   0.00000  Uiso   1.00
H983   H     0.41678   0.66766   0.69652   0.00000  Uiso   1.00
O984   O     0.48384   0.95970   0.67482   0.00000  Uiso   1.00
F985   F     0.33574   0.87382   0.79520   0.00000  Uiso   1.00
F986   F     0.66426   0.79285   0.70480   0.00000  Uiso   1.00
C987   C     0.84751   0.93314   0.75216   0.00000  Uiso   1.00
C988   C     0.81915   0.73353   0.74784   0.00000  Uiso   1.00
C989   C     0.75993   0.80201   0.54102   0.00000  Uiso   1.00
C990   C     0.90670   0.86491   0.95902   0.00000  Uiso   1.00
C991   C     0.71674   0.78753   0.51552   0.00000  Uiso   1.00
C992   C     0.94988   0.87940   0.98453   0.00000  Uiso   1.00
C993   C     0.84912   0.98785   0.76040   0.00000  Uiso   1.00
C994   C     0.81755   0.67882   0.73960   0.00000  Uiso   1.00
C995   C     0.79401   0.82732   0.83313   0.00000  Uiso   1.00
C996   C     0.87265   0.83935   0.66687   0.00000  Uiso   1.00
C997   C     0.76924   0.81872   0.88088   0.00000  Uiso   1.00
C998   C     0.89743   0.84801   0.61913   0.00000  Uiso   1.00
C999   C     0.69032   0.78217   0.94599   0.00000  Uiso   1.00
C1000  C     0.97631   0.88470   0.55405   0.00000  Uiso   1.00
C1001  C     0.70713   0.79045   0.90071   0.00000  Uiso   1.00
C1002  C     0.95951   0.87636   0.59933   0.00000  Uiso   1.00
C1003  C     0.81213   0.83720   0.90687   0.00000  Uiso   1.00
C1004  C     0.85455   0.82953   0.59313   0.00000  Uiso   1.00
C1005  C     0.79727   0.82561   0.95159   0.00000  Uiso   1.00
C1006  C     0.86939   0.84121   0.54844   0.00000  Uiso   1.00
C1007  C     0.73471   0.79858   0.97109   0.00000  Uiso   1.00
C1008  C     0.93193   0.86830   0.52895   0.00000  Uiso   1.00
C1009  C     0.84277   0.83963   0.97730   0.00000  Uiso   1.00
C1010  C     0.82388   0.82723   0.52273   0.00000  Uiso   1.00
Cu1011 Cu    0.77404   0.82775   0.74517   0.00000  Uiso   1.00
Cu1012 Cu    0.89263   0.83892   0.75484   0.00000  Uiso   1.00
H1013  H     0.66850   0.76768   0.53092   0.00000  Uiso   1.00
H1014  H     0.99810   0.89930   0.96914   0.00000  Uiso   1.00
H1015  H     0.80917   0.80614   0.60905   0.00000  Uiso   1.00
H1016  H     0.85756   0.86049   0.89092   0.00000  Uiso   1.00
H1017  H     0.97622   0.76083   0.96163   0.00000  Uiso   1.00
H1018  H     0.69039   0.90609   0.53843   0.00000  Uiso   1.00
H1019  H     0.74089   0.79289   0.57518   0.00000  Uiso   1.00
H1020  H     0.92573   0.87410   0.92488   0.00000  Uiso   1.00
N1021  N     0.98173   0.84735   0.76212   0.00000  Uiso   1.00
N1022  N     0.68494   0.81932   0.73788   0.00000  Uiso   1.00
O1023  O     0.79482   0.90476   0.74686   0.00000  Uiso   1.00
O1024  O     0.87185   0.76191   0.75314   0.00000  Uiso   1.00
O1025  O     0.89496   0.91420   0.75503   0.00000  Uiso   1.00
O1026  O     0.77171   0.75247   0.74498   0.00000  Uiso   1.00
O1027  O     0.75518   0.82597   0.80855   0.00000  Uiso   1.00
O1028  O     0.91149   0.84070   0.69146   0.00000  Uiso   1.00
O1029  O     0.85532   0.83540   0.81671   0.00000  Uiso   1.00
O1030  O     0.81134   0.83126   0.68329   0.00000  Uiso   1.00
C1031  C     0.67319   0.90053   0.62470   0.00000  Uiso   1.00
H1032  H     0.99139   0.91184   0.65892   0.00000  Uiso   1.00
O1033  O     0.73017   0.90947   0.60709   0.00000  Uiso   1.00
C1034  C     0.99342   0.76629   0.87535   0.00000  Uiso   1.00
H1035  H     0.67521   0.75491   0.84115   0.00000  Uiso   1.00
O1036  O     0.93644   0.75744   0.89296   0.00000  Uiso   1.00
C1037  C     0.87553   0.67753   0.79820   0.00000  Uiso   1.00
H1038  H     0.91655   0.99900   0.80348   0.00000  Uiso   1.00
O1039  O     0.84950   0.70697   0.82518   0.00000  Uiso   1.00
C1040  C     0.79114   0.98913   0.70180   0.00000  Uiso   1.00
H1041  H     0.75011   0.66766   0.69652   0.00000  Uiso   1.00
O1042  O     0.81717   0.95970   0.67482   0.00000  Uiso   1.00
F1043  F     0.66908   0.87382   0.79520   0.00000  Uiso   1.00
F1044  F     0.99759   0.79285   0.70480   0.00000  Uiso   1.00
loop_
_geom_bond_atom_site_label_1
_geom_bond_atom_site_label_2
_geom_bond_distance
_geom_bond_site_symmetry_2
_ccdc_geom_bond_type
C1     O37     1.286   .     A
C1     C7      1.430   .     S
C1     O39     1.292   .     A
C2     O38     1.286   .     A
C2     O40     1.292   .     A
C2     C8      1.430   .     S
C3     C5      1.385   .     A
C3     C24     1.416   .     A
C3     H33     1.075   .     S
C4     H34     1.075   .     S
C4     C6      1.385   .     A
C4     C23     1.416   .     A
C5     H27     1.085   .     S
C5     C543    1.390   1_554 S
C6     H28     1.085   .     S
C6     C544    1.390   .     S
C7     C182    1.359   .     S
C7     C225    1.495   .     S
C8     C355    1.359   1_545 S
C8     C402    1.495   1_545 S
C9     O41     1.301   .     A
C9     C11     1.480   .     S
C9     O43     1.302   .     A
C10    O42     1.301   .     A
C10    O44     1.302   .     A
C10    C12     1.480   .     S
C11    C15     1.419   .     A
C11    C17     1.403   .     A
C12    C18     1.403   .     A
C12    C16     1.419   .     A
C13    C21     1.401   .     A
C13    C15     1.402   .     A
C13    H147    1.085   1_455 S
C14    C16     1.402   .     A
C14    C22     1.401   .     A
C14    H90     1.085   .     S
C15    C164    1.486   1_455 S
C16    C103    1.486   .     S
C17    H30     1.074   .     S
C17    C19     1.405   .     A
C18    H29     1.074   .     S
C18    C20     1.405   .     A
C19    C23     1.430   .     A
C19    C21     1.414   .     A
C20    C22     1.414   .     A
C20    C24     1.430   .     A
C21    C527    1.390   .     S
C22    C528    1.390   1_554 S
C23    C546    1.428   .     S
C24    C545    1.428   1_554 S
Cu25   O37     1.966   .     S
Cu25   O41     1.937   .     S
Cu25   O44     1.913   .     S
Cu25   O40     1.961   .     S
Cu25   N36     2.021   .     S
Cu25   Cu26    2.690   .     S
Cu26   O43     1.913   .     S
Cu26   O39     1.961   .     S
Cu26   N35     2.021   .     S
Cu26   O42     1.937   .     S
Cu26   O38     1.966   .     S
H31    C71     1.085   .     S
H32    C130    1.085   1_455 S
N35    N94     1.280   .     S
N35    F115    1.335   .     S
N36    N151    1.280   1_455 S
N36    F174    1.335   1_455 S
C45    O47     1.221   .     D
C45    C132    1.486   1_455 S
C45    H162    1.082   1_455 S
H46    C103    1.082   .     S
C48    O50     1.221   .     D
C48    C73     1.486   .     S
C48    H107    1.082   .     S
H49    C164    1.082   1_455 S
C51    O53     1.222   .     D
C51    C355    1.495   1_545 S
C51    H400    1.086   1_545 S
H52    C225    1.086   .     S
C54    O56     1.222   .     D
C54    C182    1.495   .     S
C54    H229    1.086   .     S
H55    C402    1.086   1_545 S
F57    N151    1.335   1_455 S
F58    N94     1.335   .     S
C59    O95     1.286   .     A
C59    C65     1.430   .     S
C59    O97     1.292   .     A
C60    O96     1.286   .     A
C60    O98     1.292   .     A
C60    C66     1.430   .     S
C61    C63     1.385   .     A
C61    C82     1.416   .     A
C61    H91     1.075   .     S
C62    H92     1.075   .     S
C62    C64     1.385   .     A
C62    C81     1.416   .     A
C63    H85     1.085   .     S
C63    C601    1.390   1_554 S
C64    H86     1.085   .     S
C64    C602    1.390   .     S
C65    C240    1.359   .     S
C65    C283    1.495   .     S
C66    C413    1.359   1_545 S
C66    C460    1.495   1_545 S
C67    O99     1.301   .     A
C67    C69     1.480   .     S
C67    O101    1.302   .     A
C68    O100    1.301   .     A
C68    O102    1.302   .     A
C68    C70     1.480   .     S
C69    C73     1.419   .     A
C69    C75     1.403   .     A
C70    C76     1.403   .     A
C70    C74     1.419   .     A
C71    C79     1.401   .     A
C71    C73     1.402   .     A
C72    C74     1.402   .     A
C72    C80     1.401   .     A
C72    H148    1.085   .     S
C74    C161    1.486   .     S
C75    H88     1.074   .     S
C75    C77     1.405   .     A
C76    H87     1.074   .     S
C76    C78     1.405   .     A
C77    C81     1.430   .     A
C77    C79     1.414   .     A
C78    C80     1.414   .     A
C78    C82     1.430   .     A
C79    C585    1.390   .     S
C80    C586    1.390   1_554 S
C81    C604    1.428   .     S
C82    C603    1.428   1_554 S
Cu83   O95     1.966   .     S
Cu83   O99     1.937   .     S
Cu83   O102    1.913   .     S
Cu83   O98     1.961   .     S
Cu83   N94     2.021   .     S
Cu83   Cu84    2.690   .     S
Cu84   O101    1.913   .     S
Cu84   O97     1.961   .     S
Cu84   N93     2.021   .     S
Cu84   O100    1.937   .     S
Cu84   O96     1.966   .     S
H89    C129    1.085   .     S
N93    N152    1.280   .     S
N93    F173    1.335   .     S
C103   O105    1.221   .     D
H104   C161    1.082   .     S
C106   O108    1.221   .     D
C106   C131    1.486   .     S
C106   H165    1.082   .     S
C109   O111    1.222   .     D
C109   C413    1.495   1_545 S
C109   H458    1.086   1_545 S
H110   C283    1.086   .     S
C112   O114    1.222   .     D
C112   C240    1.495   .     S
C112   H287    1.086   .     S
H113   C460    1.086   1_545 S
F116   N152    1.335   .     S
C117   O153    1.286   .     A
C117   C123    1.430   .     S
C117   O155    1.292   .     A
C118   O154    1.286   .     A
C118   O156    1.292   .     A
C118   C124    1.430   .     S
C119   C121    1.385   .     A
C119   C140    1.416   .     A
C119   H149    1.075   .     S
C120   H150    1.075   .     S
C120   C122    1.385   .     A
C120   C139    1.416   .     A
C121   H143    1.085   .     S
C121   C659    1.390   1_554 S
C122   H144    1.085   .     S
C122   C660    1.390   .     S
C123   C298    1.359   .     S
C123   C341    1.495   .     S
C124   C471    1.359   1_545 S
C124   C518    1.495   1_545 S
C125   O157    1.301   .     A
C125   C127    1.480   .     S
C125   O159    1.302   .     A
C126   O158    1.301   .     A
C126   O160    1.302   .     A
C126   C128    1.480   .     S
C127   C131    1.419   .     A
C127   C133    1.403   .     A
C128   C134    1.403   .     A
C128   C132    1.419   .     A
C129   C137    1.401   .     A
C129   C131    1.402   .     A
C130   C132    1.402   .     A
C130   C138    1.401   .     A
C130   H32     1.085   1_655 S
C132   C45     1.486   1_655 S
C133   H146    1.074   .     S
C133   C135    1.405   .     A
C134   H145    1.074   .     S
C134   C136    1.405   .     A
C135   C139    1.430   .     A
C135   C137    1.414   .     A
C136   C138    1.414   .     A
C136   C140    1.430   .     A
C137   C643    1.390   .     S
C138   C644    1.390   1_554 S
C139   C662    1.428   .     S
C140   C661    1.428   1_554 S
Cu141  O153    1.966   .     S
Cu141  O157    1.937   .     S
Cu141  O160    1.913   .     S
Cu141  O156    1.961   .     S
Cu141  N152    2.021   .     S
Cu141  Cu142   2.690   .     S
Cu142  O159    1.913   .     S
Cu142  O155    1.961   .     S
Cu142  N151    2.021   .     S
Cu142  O158    1.937   .     S
Cu142  O154    1.966   .     S
H147   C13     1.085   1_655 S
N151   N36     1.280   1_655 S
N151   F57     1.335   1_655 S
C161   O163    1.221   .     D
H162   C45     1.082   1_655 S
C164   O166    1.221   .     D
C164   C15     1.486   1_655 S
C164   H49     1.082   1_655 S
C167   O169    1.222   .     D
C167   C471    1.495   1_545 S
C167   H516    1.086   1_545 S
H168   C341    1.086   .     S
C170   O172    1.222   .     D
C170   C298    1.495   .     S
C170   H345    1.086   .     S
H171   C518    1.086   1_545 S
F174   N36     1.335   1_655 S
C175   O211    1.286   .     A
C175   C181    1.430   .     S
C175   O213    1.292   .     A
C176   O212    1.286   .     A
C176   O214    1.292   .     A
C176   C182    1.430   .     S
C177   C179    1.385   .     A
C177   C198    1.416   .     A
C177   H207    1.075   .     S
C178   H208    1.075   .     S
C178   C180    1.385   .     A
C178   C197    1.416   .     A
C179   H201    1.085   .     S
C179   C717    1.390   1_554 S
C180   H202    1.085   .     S
C180   C718    1.390   .     S
C181   C356    1.359   .     S
C181   C399    1.495   .     S
C183   O215    1.301   .     A
C183   C185    1.480   .     S
C183   O217    1.302   .     A
C184   O216    1.301   .     A
C184   O218    1.302   .     A
C184   C186    1.480   .     S
C185   C189    1.419   .     A
C185   C191    1.403   .     A
C186   C192    1.403   .     A
C186   C190    1.419   .     A
C187   C195    1.401   .     A
C187   C189    1.402   .     A
C187   H321    1.085   1_455 S
C188   C190    1.402   .     A
C188   C196    1.401   .     A
C188   H264    1.085   .     S
C189   C338    1.486   1_455 S
C190   C277    1.486   .     S
C191   H204    1.074   .     S
C191   C193    1.405   .     A
C192   H203    1.074   .     S
C192   C194    1.405   .     A
C193   C197    1.430   .     A
C193   C195    1.414   .     A
C194   C196    1.414   .     A
C194   C198    1.430   .     A
C195   C701    1.390   .     S
C196   C702    1.390   1_554 S
C197   C720    1.428   .     S
C198   C719    1.428   1_554 S
Cu199  O211    1.966   .     S
Cu199  O215    1.937   .     S
Cu199  O218    1.913   .     S
Cu199  O214    1.961   .     S
Cu199  N210    2.021   .     S
Cu199  Cu200   2.690   .     S
Cu200  O217    1.913   .     S
Cu200  O213    1.961   .     S
Cu200  N209    2.021   .     S
Cu200  O216    1.937   .     S
Cu200  O212    1.966   .     S
H205   C245    1.085   .     S
H206   C304    1.085   1_455 S
N209   N268    1.280   .     S
N209   F289    1.335   .     S
N210   N325    1.280   1_455 S
N210   F348    1.335   1_455 S
C219   O221    1.221   .     D
C219   C306    1.486   1_455 S
C219   H336    1.082   1_455 S
H220   C277    1.082   .     S
C222   O224    1.221   .     D
C222   C247    1.486   .     S
C222   H281    1.082   .     S
H223   C338    1.082   1_455 S
C225   O227    1.222   .     D
H226   C399    1.086   .     S
C228   O230    1.222   .     D
C228   C356    1.495   .     S
C228   H403    1.086   .     S
F231   N325    1.335   1_455 S
F232   N268    1.335   .     S
C233   O269    1.286   .     A
C233   C239    1.430   .     S
C233   O271    1.292   .     A
C234   O270    1.286   .     A
C234   O272    1.292   .     A
C234   C240    1.430   .     S
C235   C237    1.385   .     A
C235   C256    1.416   .     A
C235   H265    1.075   .     S
C236   H266    1.075   .     S
C236   C238    1.385   .     A
C236   C255    1.416   .     A
C237   H259    1.085   .     S
C237   C775    1.390   1_554 S
C238   H260    1.085   .     S
C238   C776    1.390   .     S
C239   C414    1.359   .     S
C239   C457    1.495   .     S
C241   O273    1.301   .     A
C241   C243    1.480   .     S
C241   O275    1.302   .     A
C242   O274    1.301   .     A
C242   O276    1.302   .     A
C242   C244    1.480   .     S
C243   C247    1.419   .     A
C243   C249    1.403   .     A
C244   C250    1.403   .     A
C244   C248    1.419   .     A
C245   C253    1.401   .     A
C245   C247    1.402   .     A
C246   C248    1.402   .     A
C246   C254    1.401   .     A
C246   H322    1.085   .     S
C248   C335    1.486   .     S
C249   H262    1.074   .     S
C249   C251    1.405   .     A
C250   H261    1.074   .     S
C250   C252    1.405   .     A
C251   C255    1.430   .     A
C251   C253    1.414   .     A
C252   C254    1.414   .     A
C252   C256    1.430   .     A
C253   C759    1.390   .     S
C254   C760    1.390   1_554 S
C255   C778    1.428   .     S
C256   C777    1.428   1_554 S
Cu257  O269    1.966   .     S
Cu257  O273    1.937   .     S
Cu257  O276    1.913   .     S
Cu257  O272    1.961   .     S
Cu257  N268    2.021   .     S
Cu257  Cu258   2.690   .     S
Cu258  O275    1.913   .     S
Cu258  O271    1.961   .     S
Cu258  N267    2.021   .     S
Cu258  O274    1.937   .     S
Cu258  O270    1.966   .     S
H263   C303    1.085   .     S
N267   N326    1.280   .     S
N267   F347    1.335   .     S
C277   O279    1.221   .     D
H278   C335    1.082   .     S
C280   O282    1.221   .     D
C280   C305    1.486   .     S
C280   H339    1.082   .     S
C283   O285    1.222   .     D
H284   C457    1.086   .     S
C286   O288    1.222   .     D
C286   C414    1.495   .     S
C286   H461    1.086   .     S
F290   N326    1.335   .     S
C291   O327    1.286   .     A
C291   C297    1.430   .     S
C291   O329    1.292   .     A
C292   O328    1.286   .     A
C292   O330    1.292   .     A
C292   C298    1.430   .     S
C293   C295    1.385   .     A
C293   C314    1.416   .     A
C293   H323    1.075   .     S
C294   H324    1.075   .     S
C294   C296    1.385   .     A
C294   C313    1.416   .     A
C295   H317    1.085   .     S
C295   C833    1.390   1_554 S
C296   H318    1.085   .     S
C296   C834    1.390   .     S
C297   C472    1.359   .     S
C297   C515    1.495   .     S
C299   O331    1.301   .     A
C299   C301    1.480   .     S
C299   O333    1.302   .     A
C300   O332    1.301   .     A
C300   O334    1.302   .     A
C300   C302    1.480   .     S
C301   C305    1.419   .     A
C301   C307    1.403   .     A
C302   C308    1.403   .     A
C302   C306    1.419   .     A
C303   C311    1.401   .     A
C303   C305    1.402   .     A
C304   C306    1.402   .     A
C304   C312    1.401   .     A
C304   H206    1.085   1_655 S
C306   C219    1.486   1_655 S
C307   H320    1.074   .     S
C307   C309    1.405   .     A
C308   H319    1.074   .     S
C308   C310    1.405   .     A
C309   C313    1.430   .     A
C309   C311    1.414   .     A
C310   C312    1.414   .     A
C310   C314    1.430   .     A
C311   C817    1.390   .     S
C312   C818    1.390   1_554 S
C313   C836    1.428   .     S
C314   C835    1.428   1_554 S
Cu315  O327    1.966   .     S
Cu315  O331    1.937   .     S
Cu315  O334    1.913   .     S
Cu315  O330    1.961   .     S
Cu315  N326    2.021   .     S
Cu315  Cu316   2.690   .     S
Cu316  O333    1.913   .     S
Cu316  O329    1.961   .     S
Cu316  N325    2.021   .     S
Cu316  O332    1.937   .     S
Cu316  O328    1.966   .     S
H321   C187    1.085   1_655 S
N325   N210    1.280   1_655 S
N325   F231    1.335   1_655 S
C335   O337    1.221   .     D
H336   C219    1.082   1_655 S
C338   O340    1.221   .     D
C338   C189    1.486   1_655 S
C338   H223    1.082   1_655 S
C341   O343    1.222   .     D
H342   C515    1.086   .     S
C344   O346    1.222   .     D
C344   C472    1.495   .     S
C344   H519    1.086   .     S
F348   N210    1.335   1_655 S
C349   O385    1.286   .     A
C349   C355    1.430   .     S
C349   O387    1.292   .     A
C350   O386    1.286   .     A
C350   O388    1.292   .     A
C350   C356    1.430   .     S
C351   C353    1.385   .     A
C351   C372    1.416   .     A
C351   H381    1.075   .     S
C352   H382    1.075   .     S
C352   C354    1.385   .     A
C352   C371    1.416   .     A
C353   H375    1.085   .     S
C353   C891    1.390   1_554 S
C354   H376    1.085   .     S
C354   C892    1.390   .     S
C355   C8      1.359   1_565 S
C355   C51     1.495   1_565 S
C357   O389    1.301   .     A
C357   C359    1.480   .     S
C357   O391    1.302   .     A
C358   O390    1.301   .     A
C358   O392    1.302   .     A
C358   C360    1.480   .     S
C359   C363    1.419   .     A
C359   C365    1.403   .     A
C360   C366    1.403   .     A
C360   C364    1.419   .     A
C361   C369    1.401   .     A
C361   C363    1.402   .     A
C361   H495    1.085   1_455 S
C362   C364    1.402   .     A
C362   C370    1.401   .     A
C362   H438    1.085   .     S
C363   C512    1.486   1_455 S
C364   C451    1.486   .     S
C365   H378    1.074   .     S
C365   C367    1.405   .     A
C366   H377    1.074   .     S
C366   C368    1.405   .     A
C367   C371    1.430   .     A
C367   C369    1.414   .     A
C368   C370    1.414   .     A
C368   C372    1.430   .     A
C369   C875    1.390   .     S
C370   C876    1.390   1_554 S
C371   C894    1.428   .     S
C372   C893    1.428   1_554 S
Cu373  O385    1.966   .     S
Cu373  O389    1.937   .     S
Cu373  O392    1.913   .     S
Cu373  O388    1.961   .     S
Cu373  N384    2.021   .     S
Cu373  Cu374   2.690   .     S
Cu374  O391    1.913   .     S
Cu374  O387    1.961   .     S
Cu374  N383    2.021   .     S
Cu374  O390    1.937   .     S
Cu374  O386    1.966   .     S
H379   C419    1.085   .     S
H380   C478    1.085   1_455 S
N383   N442    1.280   .     S
N383   F463    1.335   .     S
N384   N499    1.280   1_455 S
N384   F522    1.335   1_455 S
C393   O395    1.221   .     D
C393   C480    1.486   1_455 S
C393   H510    1.082   1_455 S
H394   C451    1.082   .     S
C396   O398    1.221   .     D
C396   C421    1.486   .     S
C396   H455    1.082   .     S
H397   C512    1.082   1_455 S
C399   O401    1.222   .     D
H400   C51     1.086   1_565 S
C402   O404    1.222   .     D
C402   C8      1.495   1_565 S
C402   H55     1.086   1_565 S
F405   N499    1.335   1_455 S
F406   N442    1.335   .     S
C407   O443    1.286   .     A
C407   C413    1.430   .     S
C407   O445    1.292   .     A
C408   O444    1.286   .     A
C408   O446    1.292   .     A
C408   C414    1.430   .     S
C409   C411    1.385   .     A
C409   C430    1.416   .     A
C409   H439    1.075   .     S
C410   H440    1.075   .     S
C410   C412    1.385   .     A
C410   C429    1.416   .     A
C411   H433    1.085   .     S
C411   C949    1.390   1_554 S
C412   H434    1.085   .     S
C412   C950    1.390   .     S
C413   C66     1.359   1_565 S
C413   C109    1.495   1_565 S
C415   O447    1.301   .     A
C415   C417    1.480   .     S
C415   O449    1.302   .     A
C416   O448    1.301   .     A
C416   O450    1.302   .     A
C416   C418    1.480   .     S
C417   C421    1.419   .     A
C417   C423    1.403   .     A
C418   C424    1.403   .     A
C418   C422    1.419   .     A
C419   C427    1.401   .     A
C419   C421    1.402   .     A
C420   C422    1.402   .     A
C420   C428    1.401   .     A
C420   H496    1.085   .     S
C422   C509    1.486   .     S
C423   H436    1.074   .     S
C423   C425    1.405   .     A
C424   H435    1.074   .     S
C424   C426    1.405   .     A
C425   C429    1.430   .     A
C425   C427    1.414   .     A
C426   C428    1.414   .     A
C426   C430    1.430   .     A
C427   C933    1.390   .     S
C428   C934    1.390   1_554 S
C429   C952    1.428   .     S
C430   C951    1.428   1_554 S
Cu431  O443    1.966   .     S
Cu431  O447    1.937   .     S
Cu431  O450    1.913   .     S
Cu431  O446    1.961   .     S
Cu431  N442    2.021   .     S
Cu431  Cu432   2.690   .     S
Cu432  O449    1.913   .     S
Cu432  O445    1.961   .     S
Cu432  N441    2.021   .     S
Cu432  O448    1.937   .     S
Cu432  O444    1.966   .     S
H437   C477    1.085   .     S
N441   N500    1.280   .     S
N441   F521    1.335   .     S
C451   O453    1.221   .     D
H452   C509    1.082   .     S
C454   O456    1.221   .     D
C454   C479    1.486   .     S
C454   H513    1.082   .     S
C457   O459    1.222   .     D
H458   C109    1.086   1_565 S
C460   O462    1.222   .     D
C460   C66     1.495   1_565 S
C460   H113    1.086   1_565 S
F464   N500    1.335   .     S
C465   O501    1.286   .     A
C465   C471    1.430   .     S
C465   O503    1.292   .     A
C466   O502    1.286   .     A
C466   O504    1.292   .     A
C466   C472    1.430   .     S
C467   C469    1.385   .     A
C467   C488    1.416   .     A
C467   H497    1.075   .     S
C468   H498    1.075   .     S
C468   C470    1.385   .     A
C468   C487    1.416   .     A
C469   H491    1.085   .     S
C469   C1007   1.390   1_554 S
C470   H492    1.085   .     S
C470   C1008   1.390   .     S
C471   C124    1.359   1_565 S
C471   C167    1.495   1_565 S
C473   O505    1.301   .     A
C473   C475    1.480   .     S
C473   O507    1.302   .     A
C474   O506    1.301   .     A
C474   O508    1.302   .     A
C474   C476    1.480   .     S
C475   C479    1.419   .     A
C475   C481    1.403   .     A
C476   C482    1.403   .     A
C476   C480    1.419   .     A
C477   C485    1.401   .     A
C477   C479    1.402   .     A
C478   C480    1.402   .     A
C478   C486    1.401   .     A
C478   H380    1.085   1_655 S
C480   C393    1.486   1_655 S
C481   H494    1.074   .     S
C481   C483    1.405   .     A
C482   H493    1.074   .     S
C482   C484    1.405   .     A
C483   C487    1.430   .     A
C483   C485    1.414   .     A
C484   C486    1.414   .     A
C484   C488    1.430   .     A
C485   C991    1.390   .     S
C486   C992    1.390   1_554 S
C487   C1010   1.428   .     S
C488   C1009   1.428   1_554 S
Cu489  O501    1.966   .     S
Cu489  O505    1.937   .     S
Cu489  O508    1.913   .     S
Cu489  O504    1.961   .     S
Cu489  N500    2.021   .     S
Cu489  Cu490   2.690   .     S
Cu490  O507    1.913   .     S
Cu490  O503    1.961   .     S
Cu490  N499    2.021   .     S
Cu490  O506    1.937   .     S
Cu490  O502    1.966   .     S
H495   C361    1.085   1_655 S
N499   N384    1.280   1_655 S
N499   F405    1.335   1_655 S
C509   O511    1.221   .     D
H510   C393    1.082   1_655 S
C512   O514    1.221   .     D
C512   C363    1.486   1_655 S
C512   H397    1.082   1_655 S
C515   O517    1.222   .     D
H516   C167    1.086   1_565 S
C518   O520    1.222   .     D
C518   C124    1.495   1_565 S
C518   H171    1.086   1_565 S
F522   N384    1.335   1_655 S
C523   O559    1.286   .     A
C523   C529    1.430   .     S
C523   O561    1.292   .     A
C524   O560    1.286   .     A
C524   O562    1.292   .     A
C524   C530    1.430   .     S
C525   C527    1.385   .     A
C525   C546    1.416   .     A
C525   H555    1.075   .     S
C526   H556    1.075   .     S
C526   C528    1.385   .     A
C526   C545    1.416   .     A
C527   H549    1.085   .     S
C528   H550    1.085   .     S
C528   C22     1.390   1_556 S
C529   C704    1.359   .     S
C529   C747    1.495   .     S
C530   C877    1.359   1_545 S
C530   C924    1.495   1_545 S
C531   O563    1.301   .     A
C531   C533    1.480   .     S
C531   O565    1.302   .     A
C532   O564    1.301   .     A
C532   O566    1.302   .     A
C532   C534    1.480   .     S
C533   C537    1.419   .     A
C533   C539    1.403   .     A
C534   C540    1.403   .     A
C534   C538    1.419   .     A
C535   C543    1.401   .     A
C535   C537    1.402   .     A
C535   H669    1.085   1_455 S
C536   C538    1.402   .     A
C536   C544    1.401   .     A
C536   H612    1.085   .     S
C537   C686    1.486   1_455 S
C538   C625    1.486   .     S
C539   H552    1.074   .     S
C539   C541    1.405   .     A
C540   H551    1.074   .     S
C540   C542    1.405   .     A
C541   C545    1.430   .     A
C541   C543    1.414   .     A
C542   C544    1.414   .     A
C542   C546    1.430   .     A
C543   C5      1.390   1_556 S
C545   C24     1.428   1_556 S
Cu547  O559    1.966   .     S
Cu547  O563    1.937   .     S
Cu547  O566    1.913   .     S
Cu547  O562    1.961   .     S
Cu547  N558    2.021   .     S
Cu547  Cu548   2.690   .     S
Cu548  O565    1.913   .     S
Cu548  O561    1.961   .     S
Cu548  N557    2.021   .     S
Cu548  O564    1.937   .     S
Cu548  O560    1.966   .     S
H553   C593    1.085   .     S
H554   C652    1.085   1_455 S
N557   N616    1.280   .     S
N557   F637    1.335   .     S
N558   N673    1.280   1_455 S
N558   F696    1.335   1_455 S
C567   O569    1.221   .     D
C567   C654    1.486   1_455 S
C567   H684    1.082   1_455 S
H568   C625    1.082   .     S
C570   O572    1.221   .     D
C570   C595    1.486   .     S
C570   H629    1.082   .     S
H571   C686    1.082   1_455 S
C573   O575    1.222   .     D
C573   C877    1.495   1_545 S
C573   H922    1.086   1_545 S
H574   C747    1.086   .     S
C576   O578    1.222   .     D
C576   C704    1.495   .     S
C576   H751    1.086   .     S
H577   C924    1.086   1_545 S
F579   N673    1.335   1_455 S
F580   N616    1.335   .     S
C581   O617    1.286   .     A
C581   C587    1.430   .     S
C581   O619    1.292   .     A
C582   O618    1.286   .     A
C582   O620    1.292   .     A
C582   C588    1.430   .     S
C583   C585    1.385   .     A
C583   C604    1.416   .     A
C583   H613    1.075   .     S
C584   H614    1.075   .     S
C584   C586    1.385   .     A
C584   C603    1.416   .     A
C585   H607    1.085   .     S
C586   H608    1.085   .     S
C586   C80     1.390   1_556 S
C587   C762    1.359   .     S
C587   C805    1.495   .     S
C588   C935    1.359   1_545 S
C588   C982    1.495   1_545 S
C589   O621    1.301   .     A
C589   C591    1.480   .     S
C589   O623    1.302   .     A
C590   O622    1.301   .     A
C590   O624    1.302   .     A
C590   C592    1.480   .     S
C591   C595    1.419   .     A
C591   C597    1.403   .     A
C592   C598    1.403   .     A
C592   C596    1.419   .     A
C593   C601    1.401   .     A
C593   C595    1.402   .     A
C594   C596    1.402   .     A
C594   C602    1.401   .     A
C594   H670    1.085   .     S
C596   C683    1.486   .     S
C597   H610    1.074   .     S
C597   C599    1.405   .     A
C598   H609    1.074   .     S
C598   C600    1.405   .     A
C599   C603    1.430   .     A
C599   C601    1.414   .     A
C600   C602    1.414   .     A
C600   C604    1.430   .     A
C601   C63     1.390   1_556 S
C603   C82     1.428   1_556 S
Cu605  O617    1.966   .     S
Cu605  O621    1.937   .     S
Cu605  O624    1.913   .     S
Cu605  O620    1.961   .     S
Cu605  N616    2.021   .     S
Cu605  Cu606   2.690   .     S
Cu606  O623    1.913   .     S
Cu606  O619    1.961   .     S
Cu606  N615    2.021   .     S
Cu606  O622    1.937   .     S
Cu606  O618    1.966   .     S
H611   C651    1.085   .     S
N615   N674    1.280   .     S
N615   F695    1.335   .     S
C625   O627    1.221   .     D
H626   C683    1.082   .     S
C628   O630    1.221   .     D
C628   C653    1.486   .     S
C628   H687    1.082   .     S
C631   O633    1.222   .     D
C631   C935    1.495   1_545 S
C631   H980    1.086   1_545 S
H632   C805    1.086   .     S
C634   O636    1.222   .     D
C634   C762    1.495   .     S
C634   H809    1.086   .     S
H635   C982    1.086   1_545 S
F638   N674    1.335   .     S
C639   O675    1.286   .     A
C639   C645    1.430   .     S
C639   O677    1.292   .     A
C640   O676    1.286   .     A
C640   O678    1.292   .     A
C640   C646    1.430   .     S
C641   C643    1.385   .     A
C641   C662    1.416   .     A
C641   H671    1.075   .     S
C642   H672    1.075   .     S
C642   C644    1.385   .     A
C642   C661    1.416   .     A
C643   H665    1.085   .     S
C644   H666    1.085   .     S
C644   C138    1.390   1_556 S
C645   C820    1.359   .     S
C645   C863    1.495   .     S
C646   C993    1.359   1_545 S
C646   C1040   1.495   1_545 S
C647   O679    1.301   .     A
C647   C649    1.480   .     S
C647   O681    1.302   .     A
C648   O680    1.301   .     A
C648   O682    1.302   .     A
C648   C650    1.480   .     S
C649   C653    1.419   .     A
C649   C655    1.403   .     A
C650   C656    1.403   .     A
C650   C654    1.419   .     A
C651   C659    1.401   .     A
C651   C653    1.402   .     A
C652   C654    1.402   .     A
C652   C660    1.401   .     A
C652   H554    1.085   1_655 S
C654   C567    1.486   1_655 S
C655   H668    1.074   .     S
C655   C657    1.405   .     A
C656   H667    1.074   .     S
C656   C658    1.405   .     A
C657   C661    1.430   .     A
C657   C659    1.414   .     A
C658   C660    1.414   .     A
C658   C662    1.430   .     A
C659   C121    1.390   1_556 S
C661   C140    1.428   1_556 S
Cu663  O675    1.966   .     S
Cu663  O679    1.937   .     S
Cu663  O682    1.913   .     S
Cu663  O678    1.961   .     S
Cu663  N674    2.021   .     S
Cu663  Cu664   2.690   .     S
Cu664  O681    1.913   .     S
Cu664  O677    1.961   .     S
Cu664  N673    2.021   .     S
Cu664  O680    1.937   .     S
Cu664  O676    1.966   .     S
H669   C535    1.085   1_655 S
N673   N558    1.280   1_655 S
N673   F579    1.335   1_655 S
C683   O685    1.221   .     D
H684   C567    1.082   1_655 S
C686   O688    1.221   .     D
C686   C537    1.486   1_655 S
C686   H571    1.082   1_655 S
C689   O691    1.222   .     D
C689   C993    1.495   1_545 S
C689   H1038   1.086   1_545 S
H690   C863    1.086   .     S
C692   O694    1.222   .     D
C692   C820    1.495   .     S
C692   H867    1.086   .     S
H693   C1040   1.086   1_545 S
F696   N558    1.335   1_655 S
C697   O733    1.286   .     A
C697   C703    1.430   .     S
C697   O735    1.292   .     A
C698   O734    1.286   .     A
C698   O736    1.292   .     A
C698   C704    1.430   .     S
C699   C701    1.385   .     A
C699   C720    1.416   .     A
C699   H729    1.075   .     S
C700   H730    1.075   .     S
C700   C702    1.385   .     A
C700   C719    1.416   .     A
C701   H723    1.085   .     S
C702   H724    1.085   .     S
C702   C196    1.390   1_556 S
C703   C878    1.359   .     S
C703   C921    1.495   .     S
C705   O737    1.301   .     A
C705   C707    1.480   .     S
C705   O739    1.302   .     A
C706   O738    1.301   .     A
C706   O740    1.302   .     A
C706   C708    1.480   .     S
C707   C711    1.419   .     A
C707   C713    1.403   .     A
C708   C714    1.403   .     A
C708   C712    1.419   .     A
C709   C717    1.401   .     A
C709   C711    1.402   .     A
C709   H843    1.085   1_455 S
C710   C712    1.402   .     A
C710   C718    1.401   .     A
C710   H786    1.085   .     S
C711   C860    1.486   1_455 S
C712   C799    1.486   .     S
C713   H726    1.074   .     S
C713   C715    1.405   .     A
C714   H725    1.074   .     S
C714   C716    1.405   .     A
C715   C719    1.430   .     A
C715   C717    1.414   .     A
C716   C718    1.414   .     A
C716   C720    1.430   .     A
C717   C179    1.390   1_556 S
C719   C198    1.428   1_556 S
Cu721  O733    1.966   .     S
Cu721  O737    1.937   .     S
Cu721  O740    1.913   .     S
Cu721  O736    1.961   .     S
Cu721  N732    2.021   .     S
Cu721  Cu722   2.690   .     S
Cu722  O739    1.913   .     S
Cu722  O735    1.961   .     S
Cu722  N731    2.021   .     S
Cu722  O738    1.937   .     S
Cu722  O734    1.966   .     S
H727   C767    1.085   .     S
H728   C826    1.085   1_455 S
N731   N790    1.280   .     S
N731   F811    1.335   .     S
N732   N847    1.280   1_455 S
N732   F870    1.335   1_455 S
C741   O743    1.221   .     D
C741   C828    1.486   1_455 S
C741   H858    1.082   1_455 S
H742   C799    1.082   .     S
C744   O746    1.221   .     D
C744   C769    1.486   .     S
C744   H803    1.082   .     S
H745   C860    1.082   1_455 S
C747   O749    1.222   .     D
H748   C921    1.086   .     S
C750   O752    1.222   .     D
C750   C878    1.495   .     S
C750   H925    1.086   .     S
F753   N847    1.335   1_455 S
F754   N790    1.335   .     S
C755   O791    1.286   .     A
C755   C761    1.430   .     S
C755   O793    1.292   .     A
C756   O792    1.286   .     A
C756   O794    1.292   .     A
C756   C762    1.430   .     S
C757   C759    1.385   .     A
C757   C778    1.416   .     A
C757   H787    1.075   .     S
C758   H788    1.075   .     S
C758   C760    1.385   .     A
C758   C777    1.416   .     A
C759   H781    1.085   .     S
C760   H782    1.085   .     S
C760   C254    1.390   1_556 S
C761   C936    1.359   .     S
C761   C979    1.495   .     S
C763   O795    1.301   .     A
C763   C765    1.480   .     S
C763   O797    1.302   .     A
C764   O796    1.301   .     A
C764   O798    1.302   .     A
C764   C766    1.480   .     S
C765   C769    1.419   .     A
C765   C771    1.403   .     A
C766   C772    1.403   .     A
C766   C770    1.419   .     A
C767   C775    1.401   .     A
C767   C769    1.402   .     A
C768   C770    1.402   .     A
C768   C776    1.401   .     A
C768   H844    1.085   .     S
C770   C857    1.486   .     S
C771   H784    1.074   .     S
C771   C773    1.405   .     A
C772   H783    1.074   .     S
C772   C774    1.405   .     A
C773   C777    1.430   .     A
C773   C775    1.414   .     A
C774   C776    1.414   .     A
C774   C778    1.430   .     A
C775   C237    1.390   1_556 S
C777   C256    1.428   1_556 S
Cu779  O791    1.966   .     S
Cu779  O795    1.937   .     S
Cu779  O798    1.913   .     S
Cu779  O794    1.961   .     S
Cu779  N790    2.021   .     S
Cu779  Cu780   2.690   .     S
Cu780  O797    1.913   .     S
Cu780  O793    1.961   .     S
Cu780  N789    2.021   .     S
Cu780  O796    1.937   .     S
Cu780  O792    1.966   .     S
H785   C825    1.085   .     S
N789   N848    1.280   .     S
N789   F869    1.335   .     S
C799   O801    1.221   .     D
H800   C857    1.082   .     S
C802   O804    1.221   .     D
C802   C827    1.486   .     S
C802   H861    1.082   .     S
C805   O807    1.222   .     D
H806   C979    1.086   .     S
C808   O810    1.222   .     D
C808   C936    1.495   .     S
C808   H983    1.086   .     S
F812   N848    1.335   .     S
C813   O849    1.286   .     A
C813   C819    1.430   .     S
C813   O851    1.292   .     A
C814   O850    1.286   .     A
C814   O852    1.292   .     A
C814   C820    1.430   .     S
C815   C817    1.385   .     A
C815   C836    1.416   .     A
C815   H845    1.075   .     S
C816   H846    1.075   .     S
C816   C818    1.385   .     A
C816   C835    1.416   .     A
C817   H839    1.085   .     S
C818   H840    1.085   .     S
C818   C312    1.390   1_556 S
C819   C994    1.359   .     S
C819   C1037   1.495   .     S
C821   O853    1.301   .     A
C821   C823    1.480   .     S
C821   O855    1.302   .     A
C822   O854    1.301   .     A
C822   O856    1.302   .     A
C822   C824    1.480   .     S
C823   C827    1.419   .     A
C823   C829    1.403   .     A
C824   C830    1.403   .     A
C824   C828    1.419   .     A
C825   C833    1.401   .     A
C825   C827    1.402   .     A
C826   C828    1.402   .     A
C826   C834    1.401   .     A
C826   H728    1.085   1_655 S
C828   C741    1.486   1_655 S
C829   H842    1.074   .     S
C829   C831    1.405   .     A
C830   H841    1.074   .     S
C830   C832    1.405   .     A
C831   C835    1.430   .     A
C831   C833    1.414   .     A
C832   C834    1.414   .     A
C832   C836    1.430   .     A
C833   C295    1.390   1_556 S
C835   C314    1.428   1_556 S
Cu837  O849    1.966   .     S
Cu837  O853    1.937   .     S
Cu837  O856    1.913   .     S
Cu837  O852    1.961   .     S
Cu837  N848    2.021   .     S
Cu837  Cu838   2.690   .     S
Cu838  O855    1.913   .     S
Cu838  O851    1.961   .     S
Cu838  N847    2.021   .     S
Cu838  O854    1.937   .     S
Cu838  O850    1.966   .     S
H843   C709    1.085   1_655 S
N847   N732    1.280   1_655 S
N847   F753    1.335   1_655 S
C857   O859    1.221   .     D
H858   C741    1.082   1_655 S
C860   O862    1.221   .     D
C860   C711    1.486   1_655 S
C860   H745    1.082   1_655 S
C863   O865    1.222   .     D
H864   C1037   1.086   .     S
C866   O868    1.222   .     D
C866   C994    1.495   .     S
C866   H1041   1.086   .     S
F870   N732    1.335   1_655 S
C871   O907    1.286   .     A
C871   C877    1.430   .     S
C871   O909    1.292   .     A
C872   O908    1.286   .     A
C872   O910    1.292   .     A
C872   C878    1.430   .     S
C873   C875    1.385   .     A
C873   C894    1.416   .     A
C873   H903    1.075   .     S
C874   H904    1.075   .     S
C874   C876    1.385   .     A
C874   C893    1.416   .     A
C875   H897    1.085   .     S
C876   H898    1.085   .     S
C876   C370    1.390   1_556 S
C877   C530    1.359   1_565 S
C877   C573    1.495   1_565 S
C879   O911    1.301   .     A
C879   C881    1.480   .     S
C879   O913    1.302   .     A
C880   O912    1.301   .     A
C880   O914    1.302   .     A
C880   C882    1.480   .     S
C881   C885    1.419   .     A
C881   C887    1.403   .     A
C882   C888    1.403   .     A
C882   C886    1.419   .     A
C883   C891    1.401   .     A
C883   C885    1.402   .     A
C883   H1017   1.085   1_455 S
C884   C886    1.402   .     A
C884   C892    1.401   .     A
C884   H960    1.085   .     S
C885   C1034   1.486   1_455 S
C886   C973    1.486   .     S
C887   H900    1.074   .     S
C887   C889    1.405   .     A
C888   H899    1.074   .     S
C888   C890    1.405   .     A
C889   C893    1.430   .     A
C889   C891    1.414   .     A
C890   C892    1.414   .     A
C890   C894    1.430   .     A
C891   C353    1.390   1_556 S
C893   C372    1.428   1_556 S
Cu895  O907    1.966   .     S
Cu895  O911    1.937   .     S
Cu895  O914    1.913   .     S
Cu895  O910    1.961   .     S
Cu895  N906    2.021   .     S
Cu895  Cu896   2.690   .     S
Cu896  O913    1.913   .     S
Cu896  O909    1.961   .     S
Cu896  N905    2.021   .     S
Cu896  O912    1.937   .     S
Cu896  O908    1.966   .     S
H901   C941    1.085   .     S
H902   C1000   1.085   1_455 S
N905   N964    1.280   .     S
N905   F985    1.335   .     S
N906   N1021   1.280   1_455 S
N906   F1044   1.335   1_455 S
C915   O917    1.221   .     D
C915   C1002   1.486   1_455 S
C915   H1032   1.082   1_455 S
H916   C973    1.082   .     S
C918   O920    1.221   .     D
C918   C943    1.486   .     S
C918   H977    1.082   .     S
H919   C1034   1.082   1_455 S
C921   O923    1.222   .     D
H922   C573    1.086   1_565 S
C924   O926    1.222   .     D
C924   C530    1.495   1_565 S
C924   H577    1.086   1_565 S
F927   N1021   1.335   1_455 S
F928   N964    1.335   .     S
C929   O965    1.286   .     A
C929   C935    1.430   .     S
C929   O967    1.292   .     A
C930   O966    1.286   .     A
C930   O968    1.292   .     A
C930   C936    1.430   .     S
C931   C933    1.385   .     A
C931   C952    1.416   .     A
C931   H961    1.075   .     S
C932   H962    1.075   .     S
C932   C934    1.385   .     A
C932   C951    1.416   .     A
C933   H955    1.085   .     S
C934   H956    1.085   .     S
C934   C428    1.390   1_556 S
C935   C588    1.359   1_565 S
C935   C631    1.495   1_565 S
C937   O969    1.301   .     A
C937   C939    1.480   .     S
C937   O971    1.302   .     A
C938   O970    1.301   .     A
C938   O972    1.302   .     A
C938   C940    1.480   .     S
C939   C943    1.419   .     A
C939   C945    1.403   .     A
C940   C946    1.403   .     A
C940   C944    1.419   .     A
C941   C949    1.401   .     A
C941   C943    1.402   .     A
C942   C944    1.402   .     A
C942   C950    1.401   .     A
C942   H1018   1.085   .     S
C944   C1031   1.486   .     S
C945   H958    1.074   .     S
C945   C947    1.405   .     A
C946   H957    1.074   .     S
C946   C948    1.405   .     A
C947   C951    1.430   .     A
C947   C949    1.414   .     A
C948   C950    1.414   .     A
C948   C952    1.430   .     A
C949   C411    1.390   1_556 S
C951   C430    1.428   1_556 S
Cu953  O965    1.966   .     S
Cu953  O969    1.937   .     S
Cu953  O972    1.913   .     S
Cu953  O968    1.961   .     S
Cu953  N964    2.021   .     S
Cu953  Cu954   2.690   .     S
Cu954  O971    1.913   .     S
Cu954  O967    1.961   .     S
Cu954  N963    2.021   .     S
Cu954  O970    1.937   .     S
Cu954  O966    1.966   .     S
H959   C999    1.085   .     S
N963   N1022   1.280   .     S
N963   F1043   1.335   .     S
C973   O975    1.221   .     D
H974   C1031   1.082   .     S
C976   O978    1.221   .     D
C976   C1001   1.486   .     S
C976   H1035   1.082   .     S
C979   O981    1.222   .     D
H980   C631    1.086   1_565 S
C982   O984    1.222   .     D
C982   C588    1.495   1_565 S
C982   H635    1.086   1_565 S
F986   N1022   1.335   .     S
C987   O1023   1.286   .     A
C987   C993    1.430   .     S
C987   O1025   1.292   .     A
C988   O1024   1.286   .     A
C988   O1026   1.292   .     A
C988   C994    1.430   .     S
C989   C991    1.385   .     A
C989   C1010   1.416   .     A
C989   H1019   1.075   .     S
C990   H1020   1.075   .     S
C990   C992    1.385   .     A
C990   C1009   1.416   .     A
C991   H1013   1.085   .     S
C992   H1014   1.085   .     S
C992   C486    1.390   1_556 S
C993   C646    1.359   1_565 S
C993   C689    1.495   1_565 S
C995   O1027   1.301   .     A
C995   C997    1.480   .     S
C995   O1029   1.302   .     A
C996   O1028   1.301   .     A
C996   O1030   1.302   .     A
C996   C998    1.480   .     S
C997   C1001   1.419   .     A
C997   C1003   1.403   .     A
C998   C1004   1.403   .     A
C998   C1002   1.419   .     A
C999   C1007   1.401   .     A
C999   C1001   1.402   .     A
C1000  C1002   1.402   .     A
C1000  C1008   1.401   .     A
C1000  H902    1.085   1_655 S
C1002  C915    1.486   1_655 S
C1003  H1016   1.074   .     S
C1003  C1005   1.405   .     A
C1004  H1015   1.074   .     S
C1004  C1006   1.405   .     A
C1005  C1009   1.430   .     A
C1005  C1007   1.414   .     A
C1006  C1008   1.414   .     A
C1006  C1010   1.430   .     A
C1007  C469    1.390   1_556 S
C1009  C488    1.428   1_556 S
Cu1011 O1023   1.966   .     S
Cu1011 O1027   1.937   .     S
Cu1011 O1030   1.913   .     S
Cu1011 O1026   1.961   .     S
Cu1011 N1022   2.021   .     S
Cu1011 Cu1012  2.690   .     S
Cu1012 O1029   1.913   .     S
Cu1012 O1025   1.961   .     S
Cu1012 N1021   2.021   .     S
Cu1012 O1028   1.937   .     S
Cu1012 O1024   1.966   .     S
H1017  C883    1.085   1_655 S
N1021  N906    1.280   1_655 S
N1021  F927    1.335   1_655 S
C1031  O1033   1.221   .     D
H1032  C915    1.082   1_655 S
C1034  O1036   1.221   .     D
C1034  C885    1.486   1_655 S
C1034  H919    1.082   1_655 S
C1037  O1039   1.222   .     D
H1038  C689    1.086   1_565 S
C1040  O1042   1.222   .     D
C1040  C646    1.495   1_565 S
C1040  H693    1.086   1_565 S
F1044  N906    1.335   1_655 S
