data_str_m3_o5_o17_pcu_sym.4
_audit_creation_date              2020-01-03
_audit_creation_method            'Materials Studio'
_symmetry_space_group_name_H-M    'P1'
_symmetry_Int_Tables_number       1
_symmetry_cell_setting            triclinic
loop_
_symmetry_equiv_pos_as_xyz
  x,y,z
_cell_length_a                    29.8008
_cell_length_b                    27.5218
_cell_length_c                    24.3135
_cell_angle_alpha                 90.0004
_cell_angle_beta                  90.0130
_cell_angle_gamma                 87.7965
loop_
_atom_site_label
_atom_site_type_symbol
_atom_site_fract_x
_atom_site_fract_y
_atom_site_fract_z
_atom_site_U_iso_or_equiv
_atom_site_adp_type
_atom_site_occupancy
O1     O     0.25000   0.09512   0.21228   0.00000  Uiso   1.00
O2     O     0.25000   0.23822   0.12105   0.00000  Uiso   1.00
O3     O     0.25000   0.23822   0.21228   0.00000  Uiso   1.00
O4     O     0.25000   0.09512   0.12105   0.00000  Uiso   1.00
C5     C     0.25007   0.07252   0.16667   0.00000  Uiso   1.00
C6     C     0.24993   0.26081   0.16667   0.00000  Uiso   1.00
O7     O     0.18393   0.16667   0.21230   0.00000  Uiso   1.00
O8     O     0.31608   0.16667   0.12104   0.00000  Uiso   1.00
O9     O     0.31608   0.16667   0.21230   0.00000  Uiso   1.00
O10    O     0.18393   0.16667   0.12104   0.00000  Uiso   1.00
C11    C     0.16327   0.16896   0.16665   0.00000  Uiso   1.00
C12    C     0.33673   0.16437   0.16666   0.00000  Uiso   1.00
Zn13   Zn    0.25000   0.16667   0.22759   0.00000  Uiso   1.00
Zn14   Zn    0.25000   0.16667   0.10574   0.00000  Uiso   1.00
N15    N     0.25000   0.16667   0.02455   0.00000  Uiso   1.00
N16    N     0.25000   0.16667   0.30879   0.00000  Uiso   1.00
C17    C     0.40464   0.20825   0.17242   0.00000  Uiso   1.00
C18    C     0.09537   0.12507   0.17241   0.00000  Uiso   1.00
C19    C     0.40898   0.12078   0.15929   0.00000  Uiso   1.00
C20    C     0.09101   0.21253   0.15920   0.00000  Uiso   1.00
C21    C     0.38430   0.16425   0.16651   0.00000  Uiso   1.00
C22    C     0.11571   0.16907   0.16646   0.00000  Uiso   1.00
C23    C     0.45579   0.12121   0.15879   0.00000  Uiso   1.00
C24    C     0.04420   0.21209   0.15875   0.00000  Uiso   1.00
C25    C     0.45098   0.20962   0.16947   0.00000  Uiso   1.00
C26    C     0.04902   0.12369   0.16946   0.00000  Uiso   1.00
C27    C     0.47665   0.16603   0.16379   0.00000  Uiso   1.00
C28    C     0.02335   0.16728   0.16378   0.00000  Uiso   1.00
C29    C     0.48263   0.07808   0.15592   0.00000  Uiso   1.00
C30    C     0.01737   0.25522   0.15590   0.00000  Uiso   1.00
C31    C     0.47201   0.25380   0.17123   0.00000  Uiso   1.00
C32    C     0.02800   0.07951   0.17124   0.00000  Uiso   1.00
C33    C     0.25002   0.02156   0.16667   0.00000  Uiso   1.00
C34    C     0.24998   0.31177   0.16667   0.00000  Uiso   1.00
H35    H     0.38398   0.24134   0.17708   0.00000  Uiso   1.00
H36    H     0.11604   0.09199   0.17709   0.00000  Uiso   1.00
H37    H     0.39143   0.08709   0.15691   0.00000  Uiso   1.00
H38    H     0.10854   0.24623   0.15676   0.00000  Uiso   1.00
O39    O     0.46740   0.03606   0.13327   0.00000  Uiso   1.00
H40    H     0.44116   0.04392   0.10942   0.00000  Uiso   1.00
O41    O     0.03265   0.29723   0.13332   0.00000  Uiso   1.00
H42    H     0.05860   0.28929   0.10908   0.00000  Uiso   1.00
O43    O     0.44758   0.29457   0.18761   0.00000  Uiso   1.00
H44    H     0.46784   0.31395   0.21034   0.00000  Uiso   1.00
O45    O     0.05245   0.03875   0.18762   0.00000  Uiso   1.00
H46    H     0.03220   0.01937   0.21036   0.00000  Uiso   1.00
O47    O     0.75000   0.09512   0.21228   0.00000  Uiso   1.00
O48    O     0.75000   0.23822   0.12105   0.00000  Uiso   1.00
O49    O     0.75000   0.23822   0.21228   0.00000  Uiso   1.00
O50    O     0.75000   0.09512   0.12105   0.00000  Uiso   1.00
C51    C     0.75007   0.07252   0.16667   0.00000  Uiso   1.00
C52    C     0.74993   0.26081   0.16667   0.00000  Uiso   1.00
O53    O     0.68393   0.16667   0.21230   0.00000  Uiso   1.00
O54    O     0.81608   0.16667   0.12104   0.00000  Uiso   1.00
O55    O     0.81608   0.16667   0.21230   0.00000  Uiso   1.00
O56    O     0.68393   0.16667   0.12104   0.00000  Uiso   1.00
C57    C     0.66327   0.16896   0.16665   0.00000  Uiso   1.00
C58    C     0.83673   0.16437   0.16666   0.00000  Uiso   1.00
Zn59   Zn    0.75000   0.16667   0.22759   0.00000  Uiso   1.00
Zn60   Zn    0.75000   0.16667   0.10574   0.00000  Uiso   1.00
N61    N     0.75000   0.16667   0.02455   0.00000  Uiso   1.00
N62    N     0.75000   0.16667   0.30879   0.00000  Uiso   1.00
C63    C     0.90464   0.20825   0.17242   0.00000  Uiso   1.00
C64    C     0.59537   0.12507   0.17241   0.00000  Uiso   1.00
C65    C     0.90898   0.12078   0.15929   0.00000  Uiso   1.00
C66    C     0.59101   0.21253   0.15920   0.00000  Uiso   1.00
C67    C     0.88430   0.16425   0.16651   0.00000  Uiso   1.00
C68    C     0.61571   0.16907   0.16646   0.00000  Uiso   1.00
C69    C     0.95579   0.12121   0.15879   0.00000  Uiso   1.00
C70    C     0.54420   0.21209   0.15875   0.00000  Uiso   1.00
C71    C     0.95098   0.20962   0.16947   0.00000  Uiso   1.00
C72    C     0.54902   0.12369   0.16946   0.00000  Uiso   1.00
C73    C     0.97665   0.16603   0.16379   0.00000  Uiso   1.00
C74    C     0.52335   0.16728   0.16378   0.00000  Uiso   1.00
C75    C     0.98263   0.07808   0.15592   0.00000  Uiso   1.00
C76    C     0.51737   0.25522   0.15590   0.00000  Uiso   1.00
C77    C     0.97201   0.25380   0.17123   0.00000  Uiso   1.00
C78    C     0.52800   0.07951   0.17124   0.00000  Uiso   1.00
C79    C     0.75002   0.02156   0.16667   0.00000  Uiso   1.00
C80    C     0.74998   0.31177   0.16667   0.00000  Uiso   1.00
H81    H     0.88398   0.24134   0.17708   0.00000  Uiso   1.00
H82    H     0.61604   0.09199   0.17709   0.00000  Uiso   1.00
H83    H     0.89143   0.08709   0.15691   0.00000  Uiso   1.00
H84    H     0.60854   0.24623   0.15676   0.00000  Uiso   1.00
O85    O     0.96740   0.03606   0.13327   0.00000  Uiso   1.00
H86    H     0.94116   0.04392   0.10942   0.00000  Uiso   1.00
O87    O     0.53265   0.29723   0.13332   0.00000  Uiso   1.00
H88    H     0.55860   0.28929   0.10908   0.00000  Uiso   1.00
O89    O     0.94758   0.29457   0.18761   0.00000  Uiso   1.00
H90    H     0.96784   0.31395   0.21034   0.00000  Uiso   1.00
O91    O     0.55245   0.03875   0.18762   0.00000  Uiso   1.00
H92    H     0.53220   0.01937   0.21036   0.00000  Uiso   1.00
O93    O     0.25000   0.42845   0.21228   0.00000  Uiso   1.00
O94    O     0.25000   0.57155   0.12105   0.00000  Uiso   1.00
O95    O     0.25000   0.57155   0.21228   0.00000  Uiso   1.00
O96    O     0.25000   0.42845   0.12105   0.00000  Uiso   1.00
C97    C     0.25007   0.40585   0.16667   0.00000  Uiso   1.00
C98    C     0.24993   0.59415   0.16667   0.00000  Uiso   1.00
O99    O     0.18393   0.50000   0.21230   0.00000  Uiso   1.00
O100   O     0.31608   0.50000   0.12104   0.00000  Uiso   1.00
O101   O     0.31608   0.50000   0.21230   0.00000  Uiso   1.00
O102   O     0.18393   0.50000   0.12104   0.00000  Uiso   1.00
C103   C     0.16327   0.50230   0.16665   0.00000  Uiso   1.00
C104   C     0.33673   0.49770   0.16666   0.00000  Uiso   1.00
Zn105  Zn    0.25000   0.50000   0.22759   0.00000  Uiso   1.00
Zn106  Zn    0.25000   0.50000   0.10574   0.00000  Uiso   1.00
N107   N     0.25000   0.50000   0.02455   0.00000  Uiso   1.00
N108   N     0.25000   0.50000   0.30879   0.00000  Uiso   1.00
C109   C     0.40464   0.54158   0.17242   0.00000  Uiso   1.00
C110   C     0.09537   0.45840   0.17241   0.00000  Uiso   1.00
C111   C     0.40898   0.45412   0.15929   0.00000  Uiso   1.00
C112   C     0.09101   0.54586   0.15920   0.00000  Uiso   1.00
C113   C     0.38430   0.49758   0.16651   0.00000  Uiso   1.00
C114   C     0.11571   0.50241   0.16646   0.00000  Uiso   1.00
C115   C     0.45579   0.45454   0.15879   0.00000  Uiso   1.00
C116   C     0.04420   0.54542   0.15875   0.00000  Uiso   1.00
C117   C     0.45098   0.54295   0.16947   0.00000  Uiso   1.00
C118   C     0.04902   0.45703   0.16946   0.00000  Uiso   1.00
C119   C     0.47665   0.49936   0.16379   0.00000  Uiso   1.00
C120   C     0.02335   0.50061   0.16378   0.00000  Uiso   1.00
C121   C     0.48263   0.41141   0.15592   0.00000  Uiso   1.00
C122   C     0.01737   0.58855   0.15590   0.00000  Uiso   1.00
C123   C     0.47201   0.58714   0.17123   0.00000  Uiso   1.00
C124   C     0.02800   0.41284   0.17124   0.00000  Uiso   1.00
C125   C     0.25002   0.35489   0.16667   0.00000  Uiso   1.00
C126   C     0.24998   0.64511   0.16667   0.00000  Uiso   1.00
H127   H     0.38398   0.57467   0.17708   0.00000  Uiso   1.00
H128   H     0.11604   0.42532   0.17709   0.00000  Uiso   1.00
H129   H     0.39143   0.42042   0.15691   0.00000  Uiso   1.00
H130   H     0.10854   0.57956   0.15676   0.00000  Uiso   1.00
O131   O     0.46740   0.36940   0.13327   0.00000  Uiso   1.00
H132   H     0.44116   0.37725   0.10942   0.00000  Uiso   1.00
O133   O     0.03265   0.63057   0.13332   0.00000  Uiso   1.00
H134   H     0.05860   0.62263   0.10908   0.00000  Uiso   1.00
O135   O     0.44758   0.62790   0.18761   0.00000  Uiso   1.00
H136   H     0.46784   0.64729   0.21034   0.00000  Uiso   1.00
O137   O     0.05245   0.37208   0.18762   0.00000  Uiso   1.00
H138   H     0.03220   0.35270   0.21036   0.00000  Uiso   1.00
O139   O     0.75000   0.42845   0.21228   0.00000  Uiso   1.00
O140   O     0.75000   0.57155   0.12105   0.00000  Uiso   1.00
O141   O     0.75000   0.57155   0.21228   0.00000  Uiso   1.00
O142   O     0.75000   0.42845   0.12105   0.00000  Uiso   1.00
C143   C     0.75007   0.40585   0.16667   0.00000  Uiso   1.00
C144   C     0.74993   0.59415   0.16667   0.00000  Uiso   1.00
O145   O     0.68393   0.50000   0.21230   0.00000  Uiso   1.00
O146   O     0.81608   0.50000   0.12104   0.00000  Uiso   1.00
O147   O     0.81608   0.50000   0.21230   0.00000  Uiso   1.00
O148   O     0.68393   0.50000   0.12104   0.00000  Uiso   1.00
C149   C     0.66327   0.50230   0.16665   0.00000  Uiso   1.00
C150   C     0.83673   0.49770   0.16666   0.00000  Uiso   1.00
Zn151  Zn    0.75000   0.50000   0.22759   0.00000  Uiso   1.00
Zn152  Zn    0.75000   0.50000   0.10574   0.00000  Uiso   1.00
N153   N     0.75000   0.50000   0.02455   0.00000  Uiso   1.00
N154   N     0.75000   0.50000   0.30879   0.00000  Uiso   1.00
C155   C     0.90464   0.54158   0.17242   0.00000  Uiso   1.00
C156   C     0.59537   0.45840   0.17241   0.00000  Uiso   1.00
C157   C     0.90898   0.45412   0.15929   0.00000  Uiso   1.00
C158   C     0.59101   0.54586   0.15920   0.00000  Uiso   1.00
C159   C     0.88430   0.49758   0.16651   0.00000  Uiso   1.00
C160   C     0.61571   0.50241   0.16646   0.00000  Uiso   1.00
C161   C     0.95579   0.45454   0.15879   0.00000  Uiso   1.00
C162   C     0.54420   0.54542   0.15875   0.00000  Uiso   1.00
C163   C     0.95098   0.54295   0.16947   0.00000  Uiso   1.00
C164   C     0.54902   0.45703   0.16946   0.00000  Uiso   1.00
C165   C     0.97665   0.49936   0.16379   0.00000  Uiso   1.00
C166   C     0.52335   0.50061   0.16378   0.00000  Uiso   1.00
C167   C     0.98263   0.41141   0.15592   0.00000  Uiso   1.00
C168   C     0.51737   0.58855   0.15590   0.00000  Uiso   1.00
C169   C     0.97201   0.58714   0.17123   0.00000  Uiso   1.00
C170   C     0.52800   0.41284   0.17124   0.00000  Uiso   1.00
C171   C     0.75002   0.35489   0.16667   0.00000  Uiso   1.00
C172   C     0.74998   0.64511   0.16667   0.00000  Uiso   1.00
H173   H     0.88398   0.57467   0.17708   0.00000  Uiso   1.00
H174   H     0.61604   0.42532   0.17709   0.00000  Uiso   1.00
H175   H     0.89143   0.42042   0.15691   0.00000  Uiso   1.00
H176   H     0.60854   0.57956   0.15676   0.00000  Uiso   1.00
O177   O     0.96740   0.36940   0.13327   0.00000  Uiso   1.00
H178   H     0.94116   0.37725   0.10942   0.00000  Uiso   1.00
O179   O     0.53265   0.63057   0.13332   0.00000  Uiso   1.00
H180   H     0.55860   0.62263   0.10908   0.00000  Uiso   1.00
O181   O     0.94758   0.62790   0.18761   0.00000  Uiso   1.00
H182   H     0.96784   0.64729   0.21034   0.00000  Uiso   1.00
O183   O     0.55245   0.37208   0.18762   0.00000  Uiso   1.00
H184   H     0.53220   0.35270   0.21036   0.00000  Uiso   1.00
O185   O     0.25000   0.76178   0.21228   0.00000  Uiso   1.00
O186   O     0.25000   0.90488   0.12105   0.00000  Uiso   1.00
O187   O     0.25000   0.90488   0.21228   0.00000  Uiso   1.00
O188   O     0.25000   0.76178   0.12105   0.00000  Uiso   1.00
C189   C     0.25007   0.73919   0.16667   0.00000  Uiso   1.00
C190   C     0.24993   0.92748   0.16667   0.00000  Uiso   1.00
O191   O     0.18393   0.83333   0.21230   0.00000  Uiso   1.00
O192   O     0.31608   0.83333   0.12104   0.00000  Uiso   1.00
O193   O     0.31608   0.83333   0.21230   0.00000  Uiso   1.00
O194   O     0.18393   0.83333   0.12104   0.00000  Uiso   1.00
C195   C     0.16327   0.83563   0.16665   0.00000  Uiso   1.00
C196   C     0.33673   0.83104   0.16666   0.00000  Uiso   1.00
Zn197  Zn    0.25000   0.83333   0.22759   0.00000  Uiso   1.00
Zn198  Zn    0.25000   0.83333   0.10574   0.00000  Uiso   1.00
N199   N     0.25000   0.83333   0.02455   0.00000  Uiso   1.00
N200   N     0.25000   0.83333   0.30879   0.00000  Uiso   1.00
C201   C     0.40464   0.87492   0.17242   0.00000  Uiso   1.00
C202   C     0.09537   0.79174   0.17241   0.00000  Uiso   1.00
C203   C     0.40898   0.78745   0.15929   0.00000  Uiso   1.00
C204   C     0.09101   0.87919   0.15920   0.00000  Uiso   1.00
C205   C     0.38430   0.83091   0.16651   0.00000  Uiso   1.00
C206   C     0.11571   0.83574   0.16646   0.00000  Uiso   1.00
C207   C     0.45579   0.78787   0.15879   0.00000  Uiso   1.00
C208   C     0.04420   0.87876   0.15875   0.00000  Uiso   1.00
C209   C     0.45098   0.87629   0.16947   0.00000  Uiso   1.00
C210   C     0.04902   0.79036   0.16946   0.00000  Uiso   1.00
C211   C     0.47665   0.83269   0.16379   0.00000  Uiso   1.00
C212   C     0.02335   0.83394   0.16378   0.00000  Uiso   1.00
C213   C     0.48263   0.74475   0.15592   0.00000  Uiso   1.00
C214   C     0.01737   0.92188   0.15590   0.00000  Uiso   1.00
C215   C     0.47201   0.92047   0.17123   0.00000  Uiso   1.00
C216   C     0.02800   0.74617   0.17124   0.00000  Uiso   1.00
C217   C     0.25002   0.68823   0.16667   0.00000  Uiso   1.00
C218   C     0.24998   0.97844   0.16667   0.00000  Uiso   1.00
H219   H     0.38398   0.90801   0.17708   0.00000  Uiso   1.00
H220   H     0.11604   0.75865   0.17709   0.00000  Uiso   1.00
H221   H     0.39143   0.75375   0.15691   0.00000  Uiso   1.00
H222   H     0.10854   0.91290   0.15676   0.00000  Uiso   1.00
O223   O     0.46740   0.70273   0.13327   0.00000  Uiso   1.00
H224   H     0.44116   0.71058   0.10942   0.00000  Uiso   1.00
O225   O     0.03265   0.96390   0.13332   0.00000  Uiso   1.00
H226   H     0.05860   0.95596   0.10908   0.00000  Uiso   1.00
O227   O     0.44758   0.96124   0.18761   0.00000  Uiso   1.00
H228   H     0.46784   0.98062   0.21034   0.00000  Uiso   1.00
O229   O     0.05245   0.70542   0.18762   0.00000  Uiso   1.00
H230   H     0.03220   0.68604   0.21036   0.00000  Uiso   1.00
O231   O     0.75000   0.76178   0.21228   0.00000  Uiso   1.00
O232   O     0.75000   0.90488   0.12105   0.00000  Uiso   1.00
O233   O     0.75000   0.90488   0.21228   0.00000  Uiso   1.00
O234   O     0.75000   0.76178   0.12105   0.00000  Uiso   1.00
C235   C     0.75007   0.73919   0.16667   0.00000  Uiso   1.00
C236   C     0.74993   0.92748   0.16667   0.00000  Uiso   1.00
O237   O     0.68393   0.83333   0.21230   0.00000  Uiso   1.00
O238   O     0.81608   0.83333   0.12104   0.00000  Uiso   1.00
O239   O     0.81608   0.83333   0.21230   0.00000  Uiso   1.00
O240   O     0.68393   0.83333   0.12104   0.00000  Uiso   1.00
C241   C     0.66327   0.83563   0.16665   0.00000  Uiso   1.00
C242   C     0.83673   0.83104   0.16666   0.00000  Uiso   1.00
Zn243  Zn    0.75000   0.83333   0.22759   0.00000  Uiso   1.00
Zn244  Zn    0.75000   0.83333   0.10574   0.00000  Uiso   1.00
N245   N     0.75000   0.83333   0.02455   0.00000  Uiso   1.00
N246   N     0.75000   0.83333   0.30879   0.00000  Uiso   1.00
C247   C     0.90464   0.87492   0.17242   0.00000  Uiso   1.00
C248   C     0.59537   0.79174   0.17241   0.00000  Uiso   1.00
C249   C     0.90898   0.78745   0.15929   0.00000  Uiso   1.00
C250   C     0.59101   0.87919   0.15920   0.00000  Uiso   1.00
C251   C     0.88430   0.83091   0.16651   0.00000  Uiso   1.00
C252   C     0.61571   0.83574   0.16646   0.00000  Uiso   1.00
C253   C     0.95579   0.78787   0.15879   0.00000  Uiso   1.00
C254   C     0.54420   0.87876   0.15875   0.00000  Uiso   1.00
C255   C     0.95098   0.87629   0.16947   0.00000  Uiso   1.00
C256   C     0.54902   0.79036   0.16946   0.00000  Uiso   1.00
C257   C     0.97665   0.83269   0.16379   0.00000  Uiso   1.00
C258   C     0.52335   0.83394   0.16378   0.00000  Uiso   1.00
C259   C     0.98263   0.74475   0.15592   0.00000  Uiso   1.00
C260   C     0.51737   0.92188   0.15590   0.00000  Uiso   1.00
C261   C     0.97201   0.92047   0.17123   0.00000  Uiso   1.00
C262   C     0.52800   0.74617   0.17124   0.00000  Uiso   1.00
C263   C     0.75002   0.68823   0.16667   0.00000  Uiso   1.00
C264   C     0.74998   0.97844   0.16667   0.00000  Uiso   1.00
H265   H     0.88398   0.90801   0.17708   0.00000  Uiso   1.00
H266   H     0.61604   0.75865   0.17709   0.00000  Uiso   1.00
H267   H     0.89143   0.75375   0.15691   0.00000  Uiso   1.00
H268   H     0.60854   0.91290   0.15676   0.00000  Uiso   1.00
O269   O     0.96740   0.70273   0.13327   0.00000  Uiso   1.00
H270   H     0.94116   0.71058   0.10942   0.00000  Uiso   1.00
O271   O     0.53265   0.96390   0.13332   0.00000  Uiso   1.00
H272   H     0.55860   0.95596   0.10908   0.00000  Uiso   1.00
O273   O     0.94758   0.96124   0.18761   0.00000  Uiso   1.00
H274   H     0.96784   0.98062   0.21034   0.00000  Uiso   1.00
O275   O     0.55245   0.70542   0.18762   0.00000  Uiso   1.00
H276   H     0.53220   0.68604   0.21036   0.00000  Uiso   1.00
O277   O     0.25000   0.09512   0.54562   0.00000  Uiso   1.00
O278   O     0.25000   0.23822   0.45438   0.00000  Uiso   1.00
O279   O     0.25000   0.23822   0.54562   0.00000  Uiso   1.00
O280   O     0.25000   0.09512   0.45438   0.00000  Uiso   1.00
C281   C     0.25007   0.07252   0.50000   0.00000  Uiso   1.00
C282   C     0.24993   0.26081   0.50000   0.00000  Uiso   1.00
O283   O     0.18393   0.16667   0.54563   0.00000  Uiso   1.00
O284   O     0.31608   0.16667   0.45437   0.00000  Uiso   1.00
O285   O     0.31608   0.16667   0.54563   0.00000  Uiso   1.00
O286   O     0.18393   0.16667   0.45437   0.00000  Uiso   1.00
C287   C     0.16327   0.16896   0.49998   0.00000  Uiso   1.00
C288   C     0.33673   0.16437   0.50000   0.00000  Uiso   1.00
Zn289  Zn    0.25000   0.16667   0.56093   0.00000  Uiso   1.00
Zn290  Zn    0.25000   0.16667   0.43907   0.00000  Uiso   1.00
N291   N     0.25000   0.16667   0.35788   0.00000  Uiso   1.00
N292   N     0.25000   0.16667   0.64212   0.00000  Uiso   1.00
C293   C     0.40464   0.20825   0.50575   0.00000  Uiso   1.00
C294   C     0.09537   0.12507   0.50574   0.00000  Uiso   1.00
C295   C     0.40898   0.12078   0.49262   0.00000  Uiso   1.00
C296   C     0.09101   0.21253   0.49253   0.00000  Uiso   1.00
C297   C     0.38430   0.16425   0.49984   0.00000  Uiso   1.00
C298   C     0.11571   0.16907   0.49980   0.00000  Uiso   1.00
C299   C     0.45579   0.12121   0.49213   0.00000  Uiso   1.00
C300   C     0.04420   0.21209   0.49208   0.00000  Uiso   1.00
C301   C     0.45098   0.20962   0.50280   0.00000  Uiso   1.00
C302   C     0.04902   0.12369   0.50279   0.00000  Uiso   1.00
C303   C     0.47665   0.16603   0.49713   0.00000  Uiso   1.00
C304   C     0.02335   0.16728   0.49711   0.00000  Uiso   1.00
C305   C     0.48263   0.07808   0.48926   0.00000  Uiso   1.00
C306   C     0.01737   0.25522   0.48924   0.00000  Uiso   1.00
C307   C     0.47201   0.25380   0.50457   0.00000  Uiso   1.00
C308   C     0.02800   0.07951   0.50457   0.00000  Uiso   1.00
C309   C     0.25002   0.02156   0.50000   0.00000  Uiso   1.00
C310   C     0.24998   0.31177   0.50000   0.00000  Uiso   1.00
H311   H     0.38398   0.24134   0.51041   0.00000  Uiso   1.00
H312   H     0.11604   0.09199   0.51043   0.00000  Uiso   1.00
H313   H     0.39143   0.08709   0.49025   0.00000  Uiso   1.00
H314   H     0.10854   0.24623   0.49009   0.00000  Uiso   1.00
O315   O     0.46740   0.03606   0.46661   0.00000  Uiso   1.00
H316   H     0.44116   0.04392   0.44275   0.00000  Uiso   1.00
O317   O     0.03265   0.29723   0.46666   0.00000  Uiso   1.00
H318   H     0.05860   0.28929   0.44242   0.00000  Uiso   1.00
O319   O     0.44758   0.29457   0.52094   0.00000  Uiso   1.00
H320   H     0.46784   0.31395   0.54367   0.00000  Uiso   1.00
O321   O     0.05245   0.03875   0.52095   0.00000  Uiso   1.00
H322   H     0.03220   0.01937   0.54370   0.00000  Uiso   1.00
O323   O     0.75000   0.09512   0.54562   0.00000  Uiso   1.00
O324   O     0.75000   0.23822   0.45438   0.00000  Uiso   1.00
O325   O     0.75000   0.23822   0.54562   0.00000  Uiso   1.00
O326   O     0.75000   0.09512   0.45438   0.00000  Uiso   1.00
C327   C     0.75007   0.07252   0.50000   0.00000  Uiso   1.00
C328   C     0.74993   0.26081   0.50000   0.00000  Uiso   1.00
O329   O     0.68393   0.16667   0.54563   0.00000  Uiso   1.00
O330   O     0.81608   0.16667   0.45437   0.00000  Uiso   1.00
O331   O     0.81608   0.16667   0.54563   0.00000  Uiso   1.00
O332   O     0.68393   0.16667   0.45437   0.00000  Uiso   1.00
C333   C     0.66327   0.16896   0.49998   0.00000  Uiso   1.00
C334   C     0.83673   0.16437   0.50000   0.00000  Uiso   1.00
Zn335  Zn    0.75000   0.16667   0.56093   0.00000  Uiso   1.00
Zn336  Zn    0.75000   0.16667   0.43907   0.00000  Uiso   1.00
N337   N     0.75000   0.16667   0.35788   0.00000  Uiso   1.00
N338   N     0.75000   0.16667   0.64212   0.00000  Uiso   1.00
C339   C     0.90464   0.20825   0.50575   0.00000  Uiso   1.00
C340   C     0.59537   0.12507   0.50574   0.00000  Uiso   1.00
C341   C     0.90898   0.12078   0.49262   0.00000  Uiso   1.00
C342   C     0.59101   0.21253   0.49253   0.00000  Uiso   1.00
C343   C     0.88430   0.16425   0.49984   0.00000  Uiso   1.00
C344   C     0.61571   0.16907   0.49980   0.00000  Uiso   1.00
C345   C     0.95579   0.12121   0.49213   0.00000  Uiso   1.00
C346   C     0.54420   0.21209   0.49208   0.00000  Uiso   1.00
C347   C     0.95098   0.20962   0.50280   0.00000  Uiso   1.00
C348   C     0.54902   0.12369   0.50279   0.00000  Uiso   1.00
C349   C     0.97665   0.16603   0.49713   0.00000  Uiso   1.00
C350   C     0.52335   0.16728   0.49711   0.00000  Uiso   1.00
C351   C     0.98263   0.07808   0.48926   0.00000  Uiso   1.00
C352   C     0.51737   0.25522   0.48924   0.00000  Uiso   1.00
C353   C     0.97201   0.25380   0.50457   0.00000  Uiso   1.00
C354   C     0.52800   0.07951   0.50457   0.00000  Uiso   1.00
C355   C     0.75002   0.02156   0.50000   0.00000  Uiso   1.00
C356   C     0.74998   0.31177   0.50000   0.00000  Uiso   1.00
H357   H     0.88398   0.24134   0.51041   0.00000  Uiso   1.00
H358   H     0.61604   0.09199   0.51043   0.00000  Uiso   1.00
H359   H     0.89143   0.08709   0.49025   0.00000  Uiso   1.00
H360   H     0.60854   0.24623   0.49009   0.00000  Uiso   1.00
O361   O     0.96740   0.03606   0.46661   0.00000  Uiso   1.00
H362   H     0.94116   0.04392   0.44275   0.00000  Uiso   1.00
O363   O     0.53265   0.29723   0.46666   0.00000  Uiso   1.00
H364   H     0.55860   0.28929   0.44242   0.00000  Uiso   1.00
O365   O     0.94758   0.29457   0.52094   0.00000  Uiso   1.00
H366   H     0.96784   0.31395   0.54367   0.00000  Uiso   1.00
O367   O     0.55245   0.03875   0.52095   0.00000  Uiso   1.00
H368   H     0.53220   0.01937   0.54370   0.00000  Uiso   1.00
O369   O     0.25000   0.42845   0.54562   0.00000  Uiso   1.00
O370   O     0.25000   0.57155   0.45438   0.00000  Uiso   1.00
O371   O     0.25000   0.57155   0.54562   0.00000  Uiso   1.00
O372   O     0.25000   0.42845   0.45438   0.00000  Uiso   1.00
C373   C     0.25007   0.40585   0.50000   0.00000  Uiso   1.00
C374   C     0.24993   0.59415   0.50000   0.00000  Uiso   1.00
O375   O     0.18393   0.50000   0.54563   0.00000  Uiso   1.00
O376   O     0.31608   0.50000   0.45437   0.00000  Uiso   1.00
O377   O     0.31608   0.50000   0.54563   0.00000  Uiso   1.00
O378   O     0.18393   0.50000   0.45437   0.00000  Uiso   1.00
C379   C     0.16327   0.50230   0.49998   0.00000  Uiso   1.00
C380   C     0.33673   0.49770   0.50000   0.00000  Uiso   1.00
Zn381  Zn    0.25000   0.50000   0.56093   0.00000  Uiso   1.00
Zn382  Zn    0.25000   0.50000   0.43907   0.00000  Uiso   1.00
N383   N     0.25000   0.50000   0.35788   0.00000  Uiso   1.00
N384   N     0.25000   0.50000   0.64212   0.00000  Uiso   1.00
C385   C     0.40464   0.54158   0.50575   0.00000  Uiso   1.00
C386   C     0.09537   0.45840   0.50574   0.00000  Uiso   1.00
C387   C     0.40898   0.45412   0.49262   0.00000  Uiso   1.00
C388   C     0.09101   0.54586   0.49253   0.00000  Uiso   1.00
C389   C     0.38430   0.49758   0.49984   0.00000  Uiso   1.00
C390   C     0.11571   0.50241   0.49980   0.00000  Uiso   1.00
C391   C     0.45579   0.45454   0.49213   0.00000  Uiso   1.00
C392   C     0.04420   0.54542   0.49208   0.00000  Uiso   1.00
C393   C     0.45098   0.54295   0.50280   0.00000  Uiso   1.00
C394   C     0.04902   0.45703   0.50279   0.00000  Uiso   1.00
C395   C     0.47665   0.49936   0.49713   0.00000  Uiso   1.00
C396   C     0.02335   0.50061   0.49711   0.00000  Uiso   1.00
C397   C     0.48263   0.41141   0.48926   0.00000  Uiso   1.00
C398   C     0.01737   0.58855   0.48924   0.00000  Uiso   1.00
C399   C     0.47201   0.58714   0.50457   0.00000  Uiso   1.00
C400   C     0.02800   0.41284   0.50457   0.00000  Uiso   1.00
C401   C     0.25002   0.35489   0.50000   0.00000  Uiso   1.00
C402   C     0.24998   0.64511   0.50000   0.00000  Uiso   1.00
H403   H     0.38398   0.57467   0.51041   0.00000  Uiso   1.00
H404   H     0.11604   0.42532   0.51043   0.00000  Uiso   1.00
H405   H     0.39143   0.42042   0.49025   0.00000  Uiso   1.00
H406   H     0.10854   0.57956   0.49009   0.00000  Uiso   1.00
O407   O     0.46740   0.36940   0.46661   0.00000  Uiso   1.00
H408   H     0.44116   0.37725   0.44275   0.00000  Uiso   1.00
O409   O     0.03265   0.63057   0.46666   0.00000  Uiso   1.00
H410   H     0.05860   0.62263   0.44242   0.00000  Uiso   1.00
O411   O     0.44758   0.62790   0.52094   0.00000  Uiso   1.00
H412   H     0.46784   0.64729   0.54367   0.00000  Uiso   1.00
O413   O     0.05245   0.37208   0.52095   0.00000  Uiso   1.00
H414   H     0.03220   0.35270   0.54370   0.00000  Uiso   1.00
O415   O     0.75000   0.42845   0.54562   0.00000  Uiso   1.00
O416   O     0.75000   0.57155   0.45438   0.00000  Uiso   1.00
O417   O     0.75000   0.57155   0.54562   0.00000  Uiso   1.00
O418   O     0.75000   0.42845   0.45438   0.00000  Uiso   1.00
C419   C     0.75007   0.40585   0.50000   0.00000  Uiso   1.00
C420   C     0.74993   0.59415   0.50000   0.00000  Uiso   1.00
O421   O     0.68393   0.50000   0.54563   0.00000  Uiso   1.00
O422   O     0.81608   0.50000   0.45437   0.00000  Uiso   1.00
O423   O     0.81608   0.50000   0.54563   0.00000  Uiso   1.00
O424   O     0.68393   0.50000   0.45437   0.00000  Uiso   1.00
C425   C     0.66327   0.50230   0.49998   0.00000  Uiso   1.00
C426   C     0.83673   0.49770   0.50000   0.00000  Uiso   1.00
Zn427  Zn    0.75000   0.50000   0.56093   0.00000  Uiso   1.00
Zn428  Zn    0.75000   0.50000   0.43907   0.00000  Uiso   1.00
N429   N     0.75000   0.50000   0.35788   0.00000  Uiso   1.00
N430   N     0.75000   0.50000   0.64212   0.00000  Uiso   1.00
C431   C     0.90464   0.54158   0.50575   0.00000  Uiso   1.00
C432   C     0.59537   0.45840   0.50574   0.00000  Uiso   1.00
C433   C     0.90898   0.45412   0.49262   0.00000  Uiso   1.00
C434   C     0.59101   0.54586   0.49253   0.00000  Uiso   1.00
C435   C     0.88430   0.49758   0.49984   0.00000  Uiso   1.00
C436   C     0.61571   0.50241   0.49980   0.00000  Uiso   1.00
C437   C     0.95579   0.45454   0.49213   0.00000  Uiso   1.00
C438   C     0.54420   0.54542   0.49208   0.00000  Uiso   1.00
C439   C     0.95098   0.54295   0.50280   0.00000  Uiso   1.00
C440   C     0.54902   0.45703   0.50279   0.00000  Uiso   1.00
C441   C     0.97665   0.49936   0.49713   0.00000  Uiso   1.00
C442   C     0.52335   0.50061   0.49711   0.00000  Uiso   1.00
C443   C     0.98263   0.41141   0.48926   0.00000  Uiso   1.00
C444   C     0.51737   0.58855   0.48924   0.00000  Uiso   1.00
C445   C     0.97201   0.58714   0.50457   0.00000  Uiso   1.00
C446   C     0.52800   0.41284   0.50457   0.00000  Uiso   1.00
C447   C     0.75002   0.35489   0.50000   0.00000  Uiso   1.00
C448   C     0.74998   0.64511   0.50000   0.00000  Uiso   1.00
H449   H     0.88398   0.57467   0.51041   0.00000  Uiso   1.00
H450   H     0.61604   0.42532   0.51043   0.00000  Uiso   1.00
H451   H     0.89143   0.42042   0.49025   0.00000  Uiso   1.00
H452   H     0.60854   0.57956   0.49009   0.00000  Uiso   1.00
O453   O     0.96740   0.36940   0.46661   0.00000  Uiso   1.00
H454   H     0.94116   0.37725   0.44275   0.00000  Uiso   1.00
O455   O     0.53265   0.63057   0.46666   0.00000  Uiso   1.00
H456   H     0.55860   0.62263   0.44242   0.00000  Uiso   1.00
O457   O     0.94758   0.62790   0.52094   0.00000  Uiso   1.00
H458   H     0.96784   0.64729   0.54367   0.00000  Uiso   1.00
O459   O     0.55245   0.37208   0.52095   0.00000  Uiso   1.00
H460   H     0.53220   0.35270   0.54370   0.00000  Uiso   1.00
O461   O     0.25000   0.76178   0.54562   0.00000  Uiso   1.00
O462   O     0.25000   0.90488   0.45438   0.00000  Uiso   1.00
O463   O     0.25000   0.90488   0.54562   0.00000  Uiso   1.00
O464   O     0.25000   0.76178   0.45438   0.00000  Uiso   1.00
C465   C     0.25007   0.73919   0.50000   0.00000  Uiso   1.00
C466   C     0.24993   0.92748   0.50000   0.00000  Uiso   1.00
O467   O     0.18393   0.83333   0.54563   0.00000  Uiso   1.00
O468   O     0.31608   0.83333   0.45437   0.00000  Uiso   1.00
O469   O     0.31608   0.83333   0.54563   0.00000  Uiso   1.00
O470   O     0.18393   0.83333   0.45437   0.00000  Uiso   1.00
C471   C     0.16327   0.83563   0.49998   0.00000  Uiso   1.00
C472   C     0.33673   0.83104   0.50000   0.00000  Uiso   1.00
Zn473  Zn    0.25000   0.83333   0.56093   0.00000  Uiso   1.00
Zn474  Zn    0.25000   0.83333   0.43907   0.00000  Uiso   1.00
N475   N     0.25000   0.83333   0.35788   0.00000  Uiso   1.00
N476   N     0.25000   0.83333   0.64212   0.00000  Uiso   1.00
C477   C     0.40464   0.87492   0.50575   0.00000  Uiso   1.00
C478   C     0.09537   0.79174   0.50574   0.00000  Uiso   1.00
C479   C     0.40898   0.78745   0.49262   0.00000  Uiso   1.00
C480   C     0.09101   0.87919   0.49253   0.00000  Uiso   1.00
C481   C     0.38430   0.83091   0.49984   0.00000  Uiso   1.00
C482   C     0.11571   0.83574   0.49980   0.00000  Uiso   1.00
C483   C     0.45579   0.78787   0.49213   0.00000  Uiso   1.00
C484   C     0.04420   0.87876   0.49208   0.00000  Uiso   1.00
C485   C     0.45098   0.87629   0.50280   0.00000  Uiso   1.00
C486   C     0.04902   0.79036   0.50279   0.00000  Uiso   1.00
C487   C     0.47665   0.83269   0.49713   0.00000  Uiso   1.00
C488   C     0.02335   0.83394   0.49711   0.00000  Uiso   1.00
C489   C     0.48263   0.74475   0.48926   0.00000  Uiso   1.00
C490   C     0.01737   0.92188   0.48924   0.00000  Uiso   1.00
C491   C     0.47201   0.92047   0.50457   0.00000  Uiso   1.00
C492   C     0.02800   0.74617   0.50457   0.00000  Uiso   1.00
C493   C     0.25002   0.68823   0.50000   0.00000  Uiso   1.00
C494   C     0.24998   0.97844   0.50000   0.00000  Uiso   1.00
H495   H     0.38398   0.90801   0.51041   0.00000  Uiso   1.00
H496   H     0.11604   0.75865   0.51043   0.00000  Uiso   1.00
H497   H     0.39143   0.75375   0.49025   0.00000  Uiso   1.00
H498   H     0.10854   0.91290   0.49009   0.00000  Uiso   1.00
O499   O     0.46740   0.70273   0.46661   0.00000  Uiso   1.00
H500   H     0.44116   0.71058   0.44275   0.00000  Uiso   1.00
O501   O     0.03265   0.96390   0.46666   0.00000  Uiso   1.00
H502   H     0.05860   0.95596   0.44242   0.00000  Uiso   1.00
O503   O     0.44758   0.96124   0.52094   0.00000  Uiso   1.00
H504   H     0.46784   0.98062   0.54367   0.00000  Uiso   1.00
O505   O     0.05245   0.70542   0.52095   0.00000  Uiso   1.00
H506   H     0.03220   0.68604   0.54370   0.00000  Uiso   1.00
O507   O     0.75000   0.76178   0.54562   0.00000  Uiso   1.00
O508   O     0.75000   0.90488   0.45438   0.00000  Uiso   1.00
O509   O     0.75000   0.90488   0.54562   0.00000  Uiso   1.00
O510   O     0.75000   0.76178   0.45438   0.00000  Uiso   1.00
C511   C     0.75007   0.73919   0.50000   0.00000  Uiso   1.00
C512   C     0.74993   0.92748   0.50000   0.00000  Uiso   1.00
O513   O     0.68393   0.83333   0.54563   0.00000  Uiso   1.00
O514   O     0.81608   0.83333   0.45437   0.00000  Uiso   1.00
O515   O     0.81608   0.83333   0.54563   0.00000  Uiso   1.00
O516   O     0.68393   0.83333   0.45437   0.00000  Uiso   1.00
C517   C     0.66327   0.83563   0.49998   0.00000  Uiso   1.00
C518   C     0.83673   0.83104   0.50000   0.00000  Uiso   1.00
Zn519  Zn    0.75000   0.83333   0.56093   0.00000  Uiso   1.00
Zn520  Zn    0.75000   0.83333   0.43907   0.00000  Uiso   1.00
N521   N     0.75000   0.83333   0.35788   0.00000  Uiso   1.00
N522   N     0.75000   0.83333   0.64212   0.00000  Uiso   1.00
C523   C     0.90464   0.87492   0.50575   0.00000  Uiso   1.00
C524   C     0.59537   0.79174   0.50574   0.00000  Uiso   1.00
C525   C     0.90898   0.78745   0.49262   0.00000  Uiso   1.00
C526   C     0.59101   0.87919   0.49253   0.00000  Uiso   1.00
C527   C     0.88430   0.83091   0.49984   0.00000  Uiso   1.00
C528   C     0.61571   0.83574   0.49980   0.00000  Uiso   1.00
C529   C     0.95579   0.78787   0.49213   0.00000  Uiso   1.00
C530   C     0.54420   0.87876   0.49208   0.00000  Uiso   1.00
C531   C     0.95098   0.87629   0.50280   0.00000  Uiso   1.00
C532   C     0.54902   0.79036   0.50279   0.00000  Uiso   1.00
C533   C     0.97665   0.83269   0.49713   0.00000  Uiso   1.00
C534   C     0.52335   0.83394   0.49711   0.00000  Uiso   1.00
C535   C     0.98263   0.74475   0.48926   0.00000  Uiso   1.00
C536   C     0.51737   0.92188   0.48924   0.00000  Uiso   1.00
C537   C     0.97201   0.92047   0.50457   0.00000  Uiso   1.00
C538   C     0.52800   0.74617   0.50457   0.00000  Uiso   1.00
C539   C     0.75002   0.68823   0.50000   0.00000  Uiso   1.00
C540   C     0.74998   0.97844   0.50000   0.00000  Uiso   1.00
H541   H     0.88398   0.90801   0.51041   0.00000  Uiso   1.00
H542   H     0.61604   0.75865   0.51043   0.00000  Uiso   1.00
H543   H     0.89143   0.75375   0.49025   0.00000  Uiso   1.00
H544   H     0.60854   0.91290   0.49009   0.00000  Uiso   1.00
O545   O     0.96740   0.70273   0.46661   0.00000  Uiso   1.00
H546   H     0.94116   0.71058   0.44275   0.00000  Uiso   1.00
O547   O     0.53265   0.96390   0.46666   0.00000  Uiso   1.00
H548   H     0.55860   0.95596   0.44242   0.00000  Uiso   1.00
O549   O     0.94758   0.96124   0.52094   0.00000  Uiso   1.00
H550   H     0.96784   0.98062   0.54367   0.00000  Uiso   1.00
O551   O     0.55245   0.70542   0.52095   0.00000  Uiso   1.00
H552   H     0.53220   0.68604   0.54370   0.00000  Uiso   1.00
O553   O     0.25000   0.09512   0.87895   0.00000  Uiso   1.00
O554   O     0.25000   0.23822   0.78772   0.00000  Uiso   1.00
O555   O     0.25000   0.23822   0.87895   0.00000  Uiso   1.00
O556   O     0.25000   0.09512   0.78772   0.00000  Uiso   1.00
C557   C     0.25007   0.07252   0.83333   0.00000  Uiso   1.00
C558   C     0.24993   0.26081   0.83333   0.00000  Uiso   1.00
O559   O     0.18393   0.16667   0.87896   0.00000  Uiso   1.00
O560   O     0.31608   0.16667   0.78770   0.00000  Uiso   1.00
O561   O     0.31608   0.16667   0.87896   0.00000  Uiso   1.00
O562   O     0.18393   0.16667   0.78770   0.00000  Uiso   1.00
C563   C     0.16327   0.16896   0.83332   0.00000  Uiso   1.00
C564   C     0.33673   0.16437   0.83333   0.00000  Uiso   1.00
Zn565  Zn    0.25000   0.16667   0.89426   0.00000  Uiso   1.00
Zn566  Zn    0.25000   0.16667   0.77241   0.00000  Uiso   1.00
N567   N     0.25000   0.16667   0.69121   0.00000  Uiso   1.00
N568   N     0.25000   0.16667   0.97545   0.00000  Uiso   1.00
C569   C     0.40464   0.20825   0.83909   0.00000  Uiso   1.00
C570   C     0.09537   0.12507   0.83908   0.00000  Uiso   1.00
C571   C     0.40898   0.12078   0.82596   0.00000  Uiso   1.00
C572   C     0.09101   0.21253   0.82587   0.00000  Uiso   1.00
C573   C     0.38430   0.16425   0.83317   0.00000  Uiso   1.00
C574   C     0.11571   0.16907   0.83313   0.00000  Uiso   1.00
C575   C     0.45579   0.12121   0.82546   0.00000  Uiso   1.00
C576   C     0.04420   0.21209   0.82541   0.00000  Uiso   1.00
C577   C     0.45098   0.20962   0.83614   0.00000  Uiso   1.00
C578   C     0.04902   0.12369   0.83613   0.00000  Uiso   1.00
C579   C     0.47665   0.16603   0.83046   0.00000  Uiso   1.00
C580   C     0.02335   0.16728   0.83044   0.00000  Uiso   1.00
C581   C     0.48263   0.07808   0.82259   0.00000  Uiso   1.00
C582   C     0.01737   0.25522   0.82257   0.00000  Uiso   1.00
C583   C     0.47201   0.25380   0.83790   0.00000  Uiso   1.00
C584   C     0.02800   0.07951   0.83791   0.00000  Uiso   1.00
C585   C     0.25002   0.02156   0.83333   0.00000  Uiso   1.00
C586   C     0.24998   0.31177   0.83333   0.00000  Uiso   1.00
H587   H     0.38398   0.24134   0.84375   0.00000  Uiso   1.00
H588   H     0.11604   0.09199   0.84376   0.00000  Uiso   1.00
H589   H     0.39143   0.08709   0.82358   0.00000  Uiso   1.00
H590   H     0.10854   0.24623   0.82343   0.00000  Uiso   1.00
O591   O     0.46740   0.03606   0.79994   0.00000  Uiso   1.00
H592   H     0.44116   0.04392   0.77608   0.00000  Uiso   1.00
O593   O     0.03265   0.29723   0.79999   0.00000  Uiso   1.00
H594   H     0.05860   0.28929   0.77575   0.00000  Uiso   1.00
O595   O     0.44758   0.29457   0.85428   0.00000  Uiso   1.00
H596   H     0.46784   0.31395   0.87700   0.00000  Uiso   1.00
O597   O     0.05245   0.03875   0.85429   0.00000  Uiso   1.00
H598   H     0.03220   0.01937   0.87703   0.00000  Uiso   1.00
O599   O     0.75000   0.09512   0.87895   0.00000  Uiso   1.00
O600   O     0.75000   0.23822   0.78772   0.00000  Uiso   1.00
O601   O     0.75000   0.23822   0.87895   0.00000  Uiso   1.00
O602   O     0.75000   0.09512   0.78772   0.00000  Uiso   1.00
C603   C     0.75007   0.07252   0.83333   0.00000  Uiso   1.00
C604   C     0.74993   0.26081   0.83333   0.00000  Uiso   1.00
O605   O     0.68393   0.16667   0.87896   0.00000  Uiso   1.00
O606   O     0.81608   0.16667   0.78770   0.00000  Uiso   1.00
O607   O     0.81608   0.16667   0.87896   0.00000  Uiso   1.00
O608   O     0.68393   0.16667   0.78770   0.00000  Uiso   1.00
C609   C     0.66327   0.16896   0.83332   0.00000  Uiso   1.00
C610   C     0.83673   0.16437   0.83333   0.00000  Uiso   1.00
Zn611  Zn    0.75000   0.16667   0.89426   0.00000  Uiso   1.00
Zn612  Zn    0.75000   0.16667   0.77241   0.00000  Uiso   1.00
N613   N     0.75000   0.16667   0.69121   0.00000  Uiso   1.00
N614   N     0.75000   0.16667   0.97545   0.00000  Uiso   1.00
C615   C     0.90464   0.20825   0.83909   0.00000  Uiso   1.00
C616   C     0.59537   0.12507   0.83908   0.00000  Uiso   1.00
C617   C     0.90898   0.12078   0.82596   0.00000  Uiso   1.00
C618   C     0.59101   0.21253   0.82587   0.00000  Uiso   1.00
C619   C     0.88430   0.16425   0.83317   0.00000  Uiso   1.00
C620   C     0.61571   0.16907   0.83313   0.00000  Uiso   1.00
C621   C     0.95579   0.12121   0.82546   0.00000  Uiso   1.00
C622   C     0.54420   0.21209   0.82541   0.00000  Uiso   1.00
C623   C     0.95098   0.20962   0.83614   0.00000  Uiso   1.00
C624   C     0.54902   0.12369   0.83613   0.00000  Uiso   1.00
C625   C     0.97665   0.16603   0.83046   0.00000  Uiso   1.00
C626   C     0.52335   0.16728   0.83044   0.00000  Uiso   1.00
C627   C     0.98263   0.07808   0.82259   0.00000  Uiso   1.00
C628   C     0.51737   0.25522   0.82257   0.00000  Uiso   1.00
C629   C     0.97201   0.25380   0.83790   0.00000  Uiso   1.00
C630   C     0.52800   0.07951   0.83791   0.00000  Uiso   1.00
C631   C     0.75002   0.02156   0.83333   0.00000  Uiso   1.00
C632   C     0.74998   0.31177   0.83333   0.00000  Uiso   1.00
H633   H     0.88398   0.24134   0.84375   0.00000  Uiso   1.00
H634   H     0.61604   0.09199   0.84376   0.00000  Uiso   1.00
H635   H     0.89143   0.08709   0.82358   0.00000  Uiso   1.00
H636   H     0.60854   0.24623   0.82343   0.00000  Uiso   1.00
O637   O     0.96740   0.03606   0.79994   0.00000  Uiso   1.00
H638   H     0.94116   0.04392   0.77608   0.00000  Uiso   1.00
O639   O     0.53265   0.29723   0.79999   0.00000  Uiso   1.00
H640   H     0.55860   0.28929   0.77575   0.00000  Uiso   1.00
O641   O     0.94758   0.29457   0.85428   0.00000  Uiso   1.00
H642   H     0.96784   0.31395   0.87700   0.00000  Uiso   1.00
O643   O     0.55245   0.03875   0.85429   0.00000  Uiso   1.00
H644   H     0.53220   0.01937   0.87703   0.00000  Uiso   1.00
O645   O     0.25000   0.42845   0.87895   0.00000  Uiso   1.00
O646   O     0.25000   0.57155   0.78772   0.00000  Uiso   1.00
O647   O     0.25000   0.57155   0.87895   0.00000  Uiso   1.00
O648   O     0.25000   0.42845   0.78772   0.00000  Uiso   1.00
C649   C     0.25007   0.40585   0.83333   0.00000  Uiso   1.00
C650   C     0.24993   0.59415   0.83333   0.00000  Uiso   1.00
O651   O     0.18393   0.50000   0.87896   0.00000  Uiso   1.00
O652   O     0.31608   0.50000   0.78770   0.00000  Uiso   1.00
O653   O     0.31608   0.50000   0.87896   0.00000  Uiso   1.00
O654   O     0.18393   0.50000   0.78770   0.00000  Uiso   1.00
C655   C     0.16327   0.50230   0.83332   0.00000  Uiso   1.00
C656   C     0.33673   0.49770   0.83333   0.00000  Uiso   1.00
Zn657  Zn    0.25000   0.50000   0.89426   0.00000  Uiso   1.00
Zn658  Zn    0.25000   0.50000   0.77241   0.00000  Uiso   1.00
N659   N     0.25000   0.50000   0.69121   0.00000  Uiso   1.00
N660   N     0.25000   0.50000   0.97545   0.00000  Uiso   1.00
C661   C     0.40464   0.54158   0.83909   0.00000  Uiso   1.00
C662   C     0.09537   0.45840   0.83908   0.00000  Uiso   1.00
C663   C     0.40898   0.45412   0.82596   0.00000  Uiso   1.00
C664   C     0.09101   0.54586   0.82587   0.00000  Uiso   1.00
C665   C     0.38430   0.49758   0.83317   0.00000  Uiso   1.00
C666   C     0.11571   0.50241   0.83313   0.00000  Uiso   1.00
C667   C     0.45579   0.45454   0.82546   0.00000  Uiso   1.00
C668   C     0.04420   0.54542   0.82541   0.00000  Uiso   1.00
C669   C     0.45098   0.54295   0.83614   0.00000  Uiso   1.00
C670   C     0.04902   0.45703   0.83613   0.00000  Uiso   1.00
C671   C     0.47665   0.49936   0.83046   0.00000  Uiso   1.00
C672   C     0.02335   0.50061   0.83044   0.00000  Uiso   1.00
C673   C     0.48263   0.41141   0.82259   0.00000  Uiso   1.00
C674   C     0.01737   0.58855   0.82257   0.00000  Uiso   1.00
C675   C     0.47201   0.58714   0.83790   0.00000  Uiso   1.00
C676   C     0.02800   0.41284   0.83791   0.00000  Uiso   1.00
C677   C     0.25002   0.35489   0.83333   0.00000  Uiso   1.00
C678   C     0.24998   0.64511   0.83333   0.00000  Uiso   1.00
H679   H     0.38398   0.57467   0.84375   0.00000  Uiso   1.00
H680   H     0.11604   0.42532   0.84376   0.00000  Uiso   1.00
H681   H     0.39143   0.42042   0.82358   0.00000  Uiso   1.00
H682   H     0.10854   0.57956   0.82343   0.00000  Uiso   1.00
O683   O     0.46740   0.36940   0.79994   0.00000  Uiso   1.00
H684   H     0.44116   0.37725   0.77608   0.00000  Uiso   1.00
O685   O     0.03265   0.63057   0.79999   0.00000  Uiso   1.00
H686   H     0.05860   0.62263   0.77575   0.00000  Uiso   1.00
O687   O     0.44758   0.62790   0.85428   0.00000  Uiso   1.00
H688   H     0.46784   0.64729   0.87700   0.00000  Uiso   1.00
O689   O     0.05245   0.37208   0.85429   0.00000  Uiso   1.00
H690   H     0.03220   0.35270   0.87703   0.00000  Uiso   1.00
O691   O     0.75000   0.42845   0.87895   0.00000  Uiso   1.00
O692   O     0.75000   0.57155   0.78772   0.00000  Uiso   1.00
O693   O     0.75000   0.57155   0.87895   0.00000  Uiso   1.00
O694   O     0.75000   0.42845   0.78772   0.00000  Uiso   1.00
C695   C     0.75007   0.40585   0.83333   0.00000  Uiso   1.00
C696   C     0.74993   0.59415   0.83333   0.00000  Uiso   1.00
O697   O     0.68393   0.50000   0.87896   0.00000  Uiso   1.00
O698   O     0.81608   0.50000   0.78770   0.00000  Uiso   1.00
O699   O     0.81608   0.50000   0.87896   0.00000  Uiso   1.00
O700   O     0.68393   0.50000   0.78770   0.00000  Uiso   1.00
C701   C     0.66327   0.50230   0.83332   0.00000  Uiso   1.00
C702   C     0.83673   0.49770   0.83333   0.00000  Uiso   1.00
Zn703  Zn    0.75000   0.50000   0.89426   0.00000  Uiso   1.00
Zn704  Zn    0.75000   0.50000   0.77241   0.00000  Uiso   1.00
N705   N     0.75000   0.50000   0.69121   0.00000  Uiso   1.00
N706   N     0.75000   0.50000   0.97545   0.00000  Uiso   1.00
C707   C     0.90464   0.54158   0.83909   0.00000  Uiso   1.00
C708   C     0.59537   0.45840   0.83908   0.00000  Uiso   1.00
C709   C     0.90898   0.45412   0.82596   0.00000  Uiso   1.00
C710   C     0.59101   0.54586   0.82587   0.00000  Uiso   1.00
C711   C     0.88430   0.49758   0.83317   0.00000  Uiso   1.00
C712   C     0.61571   0.50241   0.83313   0.00000  Uiso   1.00
C713   C     0.95579   0.45454   0.82546   0.00000  Uiso   1.00
C714   C     0.54420   0.54542   0.82541   0.00000  Uiso   1.00
C715   C     0.95098   0.54295   0.83614   0.00000  Uiso   1.00
C716   C     0.54902   0.45703   0.83613   0.00000  Uiso   1.00
C717   C     0.97665   0.49936   0.83046   0.00000  Uiso   1.00
C718   C     0.52335   0.50061   0.83044   0.00000  Uiso   1.00
C719   C     0.98263   0.41141   0.82259   0.00000  Uiso   1.00
C720   C     0.51737   0.58855   0.82257   0.00000  Uiso   1.00
C721   C     0.97201   0.58714   0.83790   0.00000  Uiso   1.00
C722   C     0.52800   0.41284   0.83791   0.00000  Uiso   1.00
C723   C     0.75002   0.35489   0.83333   0.00000  Uiso   1.00
C724   C     0.74998   0.64511   0.83333   0.00000  Uiso   1.00
H725   H     0.88398   0.57467   0.84375   0.00000  Uiso   1.00
H726   H     0.61604   0.42532   0.84376   0.00000  Uiso   1.00
H727   H     0.89143   0.42042   0.82358   0.00000  Uiso   1.00
H728   H     0.60854   0.57956   0.82343   0.00000  Uiso   1.00
O729   O     0.96740   0.36940   0.79994   0.00000  Uiso   1.00
H730   H     0.94116   0.37725   0.77608   0.00000  Uiso   1.00
O731   O     0.53265   0.63057   0.79999   0.00000  Uiso   1.00
H732   H     0.55860   0.62263   0.77575   0.00000  Uiso   1.00
O733   O     0.94758   0.62790   0.85428   0.00000  Uiso   1.00
H734   H     0.96784   0.64729   0.87700   0.00000  Uiso   1.00
O735   O     0.55245   0.37208   0.85429   0.00000  Uiso   1.00
H736   H     0.53220   0.35270   0.87703   0.00000  Uiso   1.00
O737   O     0.25000   0.76178   0.87895   0.00000  Uiso   1.00
O738   O     0.25000   0.90488   0.78772   0.00000  Uiso   1.00
O739   O     0.25000   0.90488   0.87895   0.00000  Uiso   1.00
O740   O     0.25000   0.76178   0.78772   0.00000  Uiso   1.00
C741   C     0.25007   0.73919   0.83333   0.00000  Uiso   1.00
C742   C     0.24993   0.92748   0.83333   0.00000  Uiso   1.00
O743   O     0.18393   0.83333   0.87896   0.00000  Uiso   1.00
O744   O     0.31608   0.83333   0.78770   0.00000  Uiso   1.00
O745   O     0.31608   0.83333   0.87896   0.00000  Uiso   1.00
O746   O     0.18393   0.83333   0.78770   0.00000  Uiso   1.00
C747   C     0.16327   0.83563   0.83332   0.00000  Uiso   1.00
C748   C     0.33673   0.83104   0.83333   0.00000  Uiso   1.00
Zn749  Zn    0.25000   0.83333   0.89426   0.00000  Uiso   1.00
Zn750  Zn    0.25000   0.83333   0.77241   0.00000  Uiso   1.00
N751   N     0.25000   0.83333   0.69121   0.00000  Uiso   1.00
N752   N     0.25000   0.83333   0.97545   0.00000  Uiso   1.00
C753   C     0.40464   0.87492   0.83909   0.00000  Uiso   1.00
C754   C     0.09537   0.79174   0.83908   0.00000  Uiso   1.00
C755   C     0.40898   0.78745   0.82596   0.00000  Uiso   1.00
C756   C     0.09101   0.87919   0.82587   0.00000  Uiso   1.00
C757   C     0.38430   0.83091   0.83317   0.00000  Uiso   1.00
C758   C     0.11571   0.83574   0.83313   0.00000  Uiso   1.00
C759   C     0.45579   0.78787   0.82546   0.00000  Uiso   1.00
C760   C     0.04420   0.87876   0.82541   0.00000  Uiso   1.00
C761   C     0.45098   0.87629   0.83614   0.00000  Uiso   1.00
C762   C     0.04902   0.79036   0.83613   0.00000  Uiso   1.00
C763   C     0.47665   0.83269   0.83046   0.00000  Uiso   1.00
C764   C     0.02335   0.83394   0.83044   0.00000  Uiso   1.00
C765   C     0.48263   0.74475   0.82259   0.00000  Uiso   1.00
C766   C     0.01737   0.92188   0.82257   0.00000  Uiso   1.00
C767   C     0.47201   0.92047   0.83790   0.00000  Uiso   1.00
C768   C     0.02800   0.74617   0.83791   0.00000  Uiso   1.00
C769   C     0.25002   0.68823   0.83333   0.00000  Uiso   1.00
C770   C     0.24998   0.97844   0.83333   0.00000  Uiso   1.00
H771   H     0.38398   0.90801   0.84375   0.00000  Uiso   1.00
H772   H     0.11604   0.75865   0.84376   0.00000  Uiso   1.00
H773   H     0.39143   0.75375   0.82358   0.00000  Uiso   1.00
H774   H     0.10854   0.91290   0.82343   0.00000  Uiso   1.00
O775   O     0.46740   0.70273   0.79994   0.00000  Uiso   1.00
H776   H     0.44116   0.71058   0.77608   0.00000  Uiso   1.00
O777   O     0.03265   0.96390   0.79999   0.00000  Uiso   1.00
H778   H     0.05860   0.95596   0.77575   0.00000  Uiso   1.00
O779   O     0.44758   0.96124   0.85428   0.00000  Uiso   1.00
H780   H     0.46784   0.98062   0.87700   0.00000  Uiso   1.00
O781   O     0.05245   0.70542   0.85429   0.00000  Uiso   1.00
H782   H     0.03220   0.68604   0.87703   0.00000  Uiso   1.00
O783   O     0.75000   0.76178   0.87895   0.00000  Uiso   1.00
O784   O     0.75000   0.90488   0.78772   0.00000  Uiso   1.00
O785   O     0.75000   0.90488   0.87895   0.00000  Uiso   1.00
O786   O     0.75000   0.76178   0.78772   0.00000  Uiso   1.00
C787   C     0.75007   0.73919   0.83333   0.00000  Uiso   1.00
C788   C     0.74993   0.92748   0.83333   0.00000  Uiso   1.00
O789   O     0.68393   0.83333   0.87896   0.00000  Uiso   1.00
O790   O     0.81608   0.83333   0.78770   0.00000  Uiso   1.00
O791   O     0.81608   0.83333   0.87896   0.00000  Uiso   1.00
O792   O     0.68393   0.83333   0.78770   0.00000  Uiso   1.00
C793   C     0.66327   0.83563   0.83332   0.00000  Uiso   1.00
C794   C     0.83673   0.83104   0.83333   0.00000  Uiso   1.00
Zn795  Zn    0.75000   0.83333   0.89426   0.00000  Uiso   1.00
Zn796  Zn    0.75000   0.83333   0.77241   0.00000  Uiso   1.00
N797   N     0.75000   0.83333   0.69121   0.00000  Uiso   1.00
N798   N     0.75000   0.83333   0.97545   0.00000  Uiso   1.00
C799   C     0.90464   0.87492   0.83909   0.00000  Uiso   1.00
C800   C     0.59537   0.79174   0.83908   0.00000  Uiso   1.00
C801   C     0.90898   0.78745   0.82596   0.00000  Uiso   1.00
C802   C     0.59101   0.87919   0.82587   0.00000  Uiso   1.00
C803   C     0.88430   0.83091   0.83317   0.00000  Uiso   1.00
C804   C     0.61571   0.83574   0.83313   0.00000  Uiso   1.00
C805   C     0.95579   0.78787   0.82546   0.00000  Uiso   1.00
C806   C     0.54420   0.87876   0.82541   0.00000  Uiso   1.00
C807   C     0.95098   0.87629   0.83614   0.00000  Uiso   1.00
C808   C     0.54902   0.79036   0.83613   0.00000  Uiso   1.00
C809   C     0.97665   0.83269   0.83046   0.00000  Uiso   1.00
C810   C     0.52335   0.83394   0.83044   0.00000  Uiso   1.00
C811   C     0.98263   0.74475   0.82259   0.00000  Uiso   1.00
C812   C     0.51737   0.92188   0.82257   0.00000  Uiso   1.00
C813   C     0.97201   0.92047   0.83790   0.00000  Uiso   1.00
C814   C     0.52800   0.74617   0.83791   0.00000  Uiso   1.00
C815   C     0.75002   0.68823   0.83333   0.00000  Uiso   1.00
C816   C     0.74998   0.97844   0.83333   0.00000  Uiso   1.00
H817   H     0.88398   0.90801   0.84375   0.00000  Uiso   1.00
H818   H     0.61604   0.75865   0.84376   0.00000  Uiso   1.00
H819   H     0.89143   0.75375   0.82358   0.00000  Uiso   1.00
H820   H     0.60854   0.91290   0.82343   0.00000  Uiso   1.00
O821   O     0.96740   0.70273   0.79994   0.00000  Uiso   1.00
H822   H     0.94116   0.71058   0.77608   0.00000  Uiso   1.00
O823   O     0.53265   0.96390   0.79999   0.00000  Uiso   1.00
H824   H     0.55860   0.95596   0.77575   0.00000  Uiso   1.00
O825   O     0.94758   0.96124   0.85428   0.00000  Uiso   1.00
H826   H     0.96784   0.98062   0.87700   0.00000  Uiso   1.00
O827   O     0.55245   0.70542   0.85429   0.00000  Uiso   1.00
H828   H     0.53220   0.68604   0.87703   0.00000  Uiso   1.00
loop_
_geom_bond_atom_site_label_1
_geom_bond_atom_site_label_2
_geom_bond_distance
_geom_bond_site_symmetry_2
_ccdc_geom_bond_type
O1     C5      1.272   .     A
O1     Zn13    2.004   .     S
O2     C6      1.272   .     A
O2     Zn14    2.004   .     S
O3     Zn13    2.004   .     S
O3     C6      1.272   .     A
O4     Zn14    2.004   .     S
O4     C5      1.272   .     A
C5     C33     1.403   .     S
C6     C34     1.403   .     S
O7     C11     1.269   .     A
O7     Zn13    2.004   .     S
O8     C12     1.269   .     A
O8     Zn14    2.004   .     S
O9     C12     1.269   .     A
O9     Zn13    2.004   .     S
O10    C11     1.269   .     A
O10    Zn14    2.004   .     S
C11    C22     1.417   .     S
C12    C21     1.417   .     S
Zn13   N16     1.974   .     S
Zn14   N15     1.974   .     S
N15    N568    1.194   1_554 S
N16    N291    1.194   .     S
C17    C25     1.385   .     A
C17    H35     1.085   .     S
C17    C21     1.382   .     A
C18    C26     1.385   .     A
C18    C22     1.382   .     A
C18    H36     1.085   .     S
C19    C23     1.395   .     A
C19    H37     1.084   .     S
C19    C21     1.391   .     A
C20    H38     1.084   .     S
C20    C22     1.391   .     A
C20    C24     1.395   .     A
C23    C27     1.408   .     A
C23    C29     1.407   .     A
C24    C30     1.407   .     A
C24    C28     1.407   .     A
C25    C31     1.390   .     A
C25    C27     1.405   .     A
C26    C32     1.390   .     A
C26    C28     1.404   .     A
C27    C74     1.394   .     S
C28    C73     1.394   1_455 S
C29    O39     1.374   .     S
C29    C78     1.404   .     S
C30    O41     1.374   .     S
C30    C77     1.404   1_455 S
C31    O43     1.373   .     S
C31    C76     1.404   .     S
C32    O45     1.373   .     S
C32    C75     1.404   1_455 S
C33    C218    1.187   1_545 S
C34    C125    1.187   .     S
O39    H40     0.991   .     S
O41    H42     0.990   .     S
O43    H44     0.990   .     S
O45    H46     0.990   .     S
O47    C51     1.272   .     A
O47    Zn59    2.004   .     S
O48    C52     1.272   .     A
O48    Zn60    2.004   .     S
O49    Zn59    2.004   .     S
O49    C52     1.272   .     A
O50    Zn60    2.004   .     S
O50    C51     1.272   .     A
C51    C79     1.403   .     S
C52    C80     1.403   .     S
O53    C57     1.269   .     A
O53    Zn59    2.004   .     S
O54    C58     1.269   .     A
O54    Zn60    2.004   .     S
O55    C58     1.269   .     A
O55    Zn59    2.004   .     S
O56    C57     1.269   .     A
O56    Zn60    2.004   .     S
C57    C68     1.417   .     S
C58    C67     1.417   .     S
Zn59   N62     1.974   .     S
Zn60   N61     1.974   .     S
N61    N614    1.194   1_554 S
N62    N337    1.194   .     S
C63    C71     1.385   .     A
C63    H81     1.085   .     S
C63    C67     1.382   .     A
C64    C72     1.385   .     A
C64    C68     1.382   .     A
C64    H82     1.085   .     S
C65    C69     1.395   .     A
C65    H83     1.084   .     S
C65    C67     1.391   .     A
C66    H84     1.084   .     S
C66    C68     1.391   .     A
C66    C70     1.395   .     A
C69    C73     1.408   .     A
C69    C75     1.407   .     A
C70    C76     1.407   .     A
C70    C74     1.407   .     A
C71    C77     1.390   .     A
C71    C73     1.405   .     A
C72    C78     1.390   .     A
C72    C74     1.404   .     A
C73    C28     1.394   1_655 S
C75    O85     1.374   .     S
C75    C32     1.404   1_655 S
C76    O87     1.374   .     S
C77    O89     1.373   .     S
C77    C30     1.404   1_655 S
C78    O91     1.373   .     S
C79    C264    1.187   1_545 S
C80    C171    1.187   .     S
O85    H86     0.991   .     S
O87    H88     0.990   .     S
O89    H90     0.990   .     S
O91    H92     0.990   .     S
O93    C97     1.272   .     A
O93    Zn105   2.004   .     S
O94    C98     1.272   .     A
O94    Zn106   2.004   .     S
O95    Zn105   2.004   .     S
O95    C98     1.272   .     A
O96    Zn106   2.004   .     S
O96    C97     1.272   .     A
C97    C125    1.403   .     S
C98    C126    1.403   .     S
O99    C103    1.269   .     A
O99    Zn105   2.004   .     S
O100   C104    1.269   .     A
O100   Zn106   2.004   .     S
O101   C104    1.269   .     A
O101   Zn105   2.004   .     S
O102   C103    1.269   .     A
O102   Zn106   2.004   .     S
C103   C114    1.417   .     S
C104   C113    1.417   .     S
Zn105  N108    1.974   .     S
Zn106  N107    1.974   .     S
N107   N660    1.194   1_554 S
N108   N383    1.194   .     S
C109   C117    1.385   .     A
C109   H127    1.085   .     S
C109   C113    1.382   .     A
C110   C118    1.385   .     A
C110   C114    1.382   .     A
C110   H128    1.085   .     S
C111   C115    1.395   .     A
C111   H129    1.084   .     S
C111   C113    1.391   .     A
C112   H130    1.084   .     S
C112   C114    1.391   .     A
C112   C116    1.395   .     A
C115   C119    1.408   .     A
C115   C121    1.407   .     A
C116   C122    1.407   .     A
C116   C120    1.407   .     A
C117   C123    1.390   .     A
C117   C119    1.405   .     A
C118   C124    1.390   .     A
C118   C120    1.404   .     A
C119   C166    1.394   .     S
C120   C165    1.394   1_455 S
C121   O131    1.374   .     S
C121   C170    1.404   .     S
C122   O133    1.374   .     S
C122   C169    1.404   1_455 S
C123   O135    1.373   .     S
C123   C168    1.404   .     S
C124   O137    1.373   .     S
C124   C167    1.404   1_455 S
C126   C217    1.187   .     S
O131   H132    0.991   .     S
O133   H134    0.990   .     S
O135   H136    0.990   .     S
O137   H138    0.990   .     S
O139   C143    1.272   .     A
O139   Zn151   2.004   .     S
O140   C144    1.272   .     A
O140   Zn152   2.004   .     S
O141   Zn151   2.004   .     S
O141   C144    1.272   .     A
O142   Zn152   2.004   .     S
O142   C143    1.272   .     A
C143   C171    1.403   .     S
C144   C172    1.403   .     S
O145   C149    1.269   .     A
O145   Zn151   2.004   .     S
O146   C150    1.269   .     A
O146   Zn152   2.004   .     S
O147   C150    1.269   .     A
O147   Zn151   2.004   .     S
O148   C149    1.269   .     A
O148   Zn152   2.004   .     S
C149   C160    1.417   .     S
C150   C159    1.417   .     S
Zn151  N154    1.974   .     S
Zn152  N153    1.974   .     S
N153   N706    1.194   1_554 S
N154   N429    1.194   .     S
C155   C163    1.385   .     A
C155   H173    1.085   .     S
C155   C159    1.382   .     A
C156   C164    1.385   .     A
C156   C160    1.382   .     A
C156   H174    1.085   .     S
C157   C161    1.395   .     A
C157   H175    1.084   .     S
C157   C159    1.391   .     A
C158   H176    1.084   .     S
C158   C160    1.391   .     A
C158   C162    1.395   .     A
C161   C165    1.408   .     A
C161   C167    1.407   .     A
C162   C168    1.407   .     A
C162   C166    1.407   .     A
C163   C169    1.390   .     A
C163   C165    1.405   .     A
C164   C170    1.390   .     A
C164   C166    1.404   .     A
C165   C120    1.394   1_655 S
C167   O177    1.374   .     S
C167   C124    1.404   1_655 S
C168   O179    1.374   .     S
C169   O181    1.373   .     S
C169   C122    1.404   1_655 S
C170   O183    1.373   .     S
C172   C263    1.187   .     S
O177   H178    0.991   .     S
O179   H180    0.990   .     S
O181   H182    0.990   .     S
O183   H184    0.990   .     S
O185   C189    1.272   .     A
O185   Zn197   2.004   .     S
O186   C190    1.272   .     A
O186   Zn198   2.004   .     S
O187   Zn197   2.004   .     S
O187   C190    1.272   .     A
O188   Zn198   2.004   .     S
O188   C189    1.272   .     A
C189   C217    1.403   .     S
C190   C218    1.403   .     S
O191   C195    1.269   .     A
O191   Zn197   2.004   .     S
O192   C196    1.269   .     A
O192   Zn198   2.004   .     S
O193   C196    1.269   .     A
O193   Zn197   2.004   .     S
O194   C195    1.269   .     A
O194   Zn198   2.004   .     S
C195   C206    1.417   .     S
C196   C205    1.417   .     S
Zn197  N200    1.974   .     S
Zn198  N199    1.974   .     S
N199   N752    1.194   1_554 S
N200   N475    1.194   .     S
C201   C209    1.385   .     A
C201   H219    1.085   .     S
C201   C205    1.382   .     A
C202   C210    1.385   .     A
C202   C206    1.382   .     A
C202   H220    1.085   .     S
C203   C207    1.395   .     A
C203   H221    1.084   .     S
C203   C205    1.391   .     A
C204   H222    1.084   .     S
C204   C206    1.391   .     A
C204   C208    1.395   .     A
C207   C211    1.408   .     A
C207   C213    1.407   .     A
C208   C214    1.407   .     A
C208   C212    1.407   .     A
C209   C215    1.390   .     A
C209   C211    1.405   .     A
C210   C216    1.390   .     A
C210   C212    1.404   .     A
C211   C258    1.394   .     S
C212   C257    1.394   1_455 S
C213   O223    1.374   .     S
C213   C262    1.404   .     S
C214   O225    1.374   .     S
C214   C261    1.404   1_455 S
C215   O227    1.373   .     S
C215   C260    1.404   .     S
C216   O229    1.373   .     S
C216   C259    1.404   1_455 S
C218   C33     1.187   1_565 S
O223   H224    0.991   .     S
O225   H226    0.990   .     S
O227   H228    0.990   .     S
O229   H230    0.990   .     S
O231   C235    1.272   .     A
O231   Zn243   2.004   .     S
O232   C236    1.272   .     A
O232   Zn244   2.004   .     S
O233   Zn243   2.004   .     S
O233   C236    1.272   .     A
O234   Zn244   2.004   .     S
O234   C235    1.272   .     A
C235   C263    1.403   .     S
C236   C264    1.403   .     S
O237   C241    1.269   .     A
O237   Zn243   2.004   .     S
O238   C242    1.269   .     A
O238   Zn244   2.004   .     S
O239   C242    1.269   .     A
O239   Zn243   2.004   .     S
O240   C241    1.269   .     A
O240   Zn244   2.004   .     S
C241   C252    1.417   .     S
C242   C251    1.417   .     S
Zn243  N246    1.974   .     S
Zn244  N245    1.974   .     S
N245   N798    1.194   1_554 S
N246   N521    1.194   .     S
C247   C255    1.385   .     A
C247   H265    1.085   .     S
C247   C251    1.382   .     A
C248   C256    1.385   .     A
C248   C252    1.382   .     A
C248   H266    1.085   .     S
C249   C253    1.395   .     A
C249   H267    1.084   .     S
C249   C251    1.391   .     A
C250   H268    1.084   .     S
C250   C252    1.391   .     A
C250   C254    1.395   .     A
C253   C257    1.408   .     A
C253   C259    1.407   .     A
C254   C260    1.407   .     A
C254   C258    1.407   .     A
C255   C261    1.390   .     A
C255   C257    1.405   .     A
C256   C262    1.390   .     A
C256   C258    1.404   .     A
C257   C212    1.394   1_655 S
C259   O269    1.374   .     S
C259   C216    1.404   1_655 S
C260   O271    1.374   .     S
C261   O273    1.373   .     S
C261   C214    1.404   1_655 S
C262   O275    1.373   .     S
C264   C79     1.187   1_565 S
O269   H270    0.991   .     S
O271   H272    0.990   .     S
O273   H274    0.990   .     S
O275   H276    0.990   .     S
O277   C281    1.272   .     A
O277   Zn289   2.004   .     S
O278   C282    1.272   .     A
O278   Zn290   2.004   .     S
O279   Zn289   2.004   .     S
O279   C282    1.272   .     A
O280   Zn290   2.004   .     S
O280   C281    1.272   .     A
C281   C309    1.403   .     S
C282   C310    1.403   .     S
O283   C287    1.269   .     A
O283   Zn289   2.004   .     S
O284   C288    1.269   .     A
O284   Zn290   2.004   .     S
O285   C288    1.269   .     A
O285   Zn289   2.004   .     S
O286   C287    1.269   .     A
O286   Zn290   2.004   .     S
C287   C298    1.417   .     S
C288   C297    1.417   .     S
Zn289  N292    1.974   .     S
Zn290  N291    1.974   .     S
N292   N567    1.194   .     S
C293   C301    1.385   .     A
C293   H311    1.085   .     S
C293   C297    1.382   .     A
C294   C302    1.385   .     A
C294   C298    1.382   .     A
C294   H312    1.085   .     S
C295   C299    1.395   .     A
C295   H313    1.084   .     S
C295   C297    1.391   .     A
C296   H314    1.084   .     S
C296   C298    1.391   .     A
C296   C300    1.395   .     A
C299   C303    1.408   .     A
C299   C305    1.407   .     A
C300   C306    1.407   .     A
C300   C304    1.407   .     A
C301   C307    1.390   .     A
C301   C303    1.405   .     A
C302   C308    1.390   .     A
C302   C304    1.404   .     A
C303   C350    1.394   .     S
C304   C349    1.394   1_455 S
C305   O315    1.374   .     S
C305   C354    1.404   .     S
C306   O317    1.374   .     S
C306   C353    1.404   1_455 S
C307   O319    1.373   .     S
C307   C352    1.404   .     S
C308   O321    1.373   .     S
C308   C351    1.404   1_455 S
C309   C494    1.187   1_545 S
C310   C401    1.187   .     S
O315   H316    0.991   .     S
O317   H318    0.990   .     S
O319   H320    0.990   .     S
O321   H322    0.990   .     S
O323   C327    1.272   .     A
O323   Zn335   2.004   .     S
O324   C328    1.272   .     A
O324   Zn336   2.004   .     S
O325   Zn335   2.004   .     S
O325   C328    1.272   .     A
O326   Zn336   2.004   .     S
O326   C327    1.272   .     A
C327   C355    1.403   .     S
C328   C356    1.403   .     S
O329   C333    1.269   .     A
O329   Zn335   2.004   .     S
O330   C334    1.269   .     A
O330   Zn336   2.004   .     S
O331   C334    1.269   .     A
O331   Zn335   2.004   .     S
O332   C333    1.269   .     A
O332   Zn336   2.004   .     S
C333   C344    1.417   .     S
C334   C343    1.417   .     S
Zn335  N338    1.974   .     S
Zn336  N337    1.974   .     S
N338   N613    1.194   .     S
C339   C347    1.385   .     A
C339   H357    1.085   .     S
C339   C343    1.382   .     A
C340   C348    1.385   .     A
C340   C344    1.382   .     A
C340   H358    1.085   .     S
C341   C345    1.395   .     A
C341   H359    1.084   .     S
C341   C343    1.391   .     A
C342   H360    1.084   .     S
C342   C344    1.391   .     A
C342   C346    1.395   .     A
C345   C349    1.408   .     A
C345   C351    1.407   .     A
C346   C352    1.407   .     A
C346   C350    1.407   .     A
C347   C353    1.390   .     A
C347   C349    1.405   .     A
C348   C354    1.390   .     A
C348   C350    1.404   .     A
C349   C304    1.394   1_655 S
C351   O361    1.374   .     S
C351   C308    1.404   1_655 S
C352   O363    1.374   .     S
C353   O365    1.373   .     S
C353   C306    1.404   1_655 S
C354   O367    1.373   .     S
C355   C540    1.187   1_545 S
C356   C447    1.187   .     S
O361   H362    0.991   .     S
O363   H364    0.990   .     S
O365   H366    0.990   .     S
O367   H368    0.990   .     S
O369   C373    1.272   .     A
O369   Zn381   2.004   .     S
O370   C374    1.272   .     A
O370   Zn382   2.004   .     S
O371   Zn381   2.004   .     S
O371   C374    1.272   .     A
O372   Zn382   2.004   .     S
O372   C373    1.272   .     A
C373   C401    1.403   .     S
C374   C402    1.403   .     S
O375   C379    1.269   .     A
O375   Zn381   2.004   .     S
O376   C380    1.269   .     A
O376   Zn382   2.004   .     S
O377   C380    1.269   .     A
O377   Zn381   2.004   .     S
O378   C379    1.269   .     A
O378   Zn382   2.004   .     S
C379   C390    1.417   .     S
C380   C389    1.417   .     S
Zn381  N384    1.974   .     S
Zn382  N383    1.974   .     S
N384   N659    1.194   .     S
C385   C393    1.385   .     A
C385   H403    1.085   .     S
C385   C389    1.382   .     A
C386   C394    1.385   .     A
C386   C390    1.382   .     A
C386   H404    1.085   .     S
C387   C391    1.395   .     A
C387   H405    1.084   .     S
C387   C389    1.391   .     A
C388   H406    1.084   .     S
C388   C390    1.391   .     A
C388   C392    1.395   .     A
C391   C395    1.408   .     A
C391   C397    1.407   .     A
C392   C398    1.407   .     A
C392   C396    1.407   .     A
C393   C399    1.390   .     A
C393   C395    1.405   .     A
C394   C400    1.390   .     A
C394   C396    1.404   .     A
C395   C442    1.394   .     S
C396   C441    1.394   1_455 S
C397   O407    1.374   .     S
C397   C446    1.404   .     S
C398   O409    1.374   .     S
C398   C445    1.404   1_455 S
C399   O411    1.373   .     S
C399   C444    1.404   .     S
C400   O413    1.373   .     S
C400   C443    1.404   1_455 S
C402   C493    1.187   .     S
O407   H408    0.991   .     S
O409   H410    0.990   .     S
O411   H412    0.990   .     S
O413   H414    0.990   .     S
O415   C419    1.272   .     A
O415   Zn427   2.004   .     S
O416   C420    1.272   .     A
O416   Zn428   2.004   .     S
O417   Zn427   2.004   .     S
O417   C420    1.272   .     A
O418   Zn428   2.004   .     S
O418   C419    1.272   .     A
C419   C447    1.403   .     S
C420   C448    1.403   .     S
O421   C425    1.269   .     A
O421   Zn427   2.004   .     S
O422   C426    1.269   .     A
O422   Zn428   2.004   .     S
O423   C426    1.269   .     A
O423   Zn427   2.004   .     S
O424   C425    1.269   .     A
O424   Zn428   2.004   .     S
C425   C436    1.417   .     S
C426   C435    1.417   .     S
Zn427  N430    1.974   .     S
Zn428  N429    1.974   .     S
N430   N705    1.194   .     S
C431   C439    1.385   .     A
C431   H449    1.085   .     S
C431   C435    1.382   .     A
C432   C440    1.385   .     A
C432   C436    1.382   .     A
C432   H450    1.085   .     S
C433   C437    1.395   .     A
C433   H451    1.084   .     S
C433   C435    1.391   .     A
C434   H452    1.084   .     S
C434   C436    1.391   .     A
C434   C438    1.395   .     A
C437   C441    1.408   .     A
C437   C443    1.407   .     A
C438   C444    1.407   .     A
C438   C442    1.407   .     A
C439   C445    1.390   .     A
C439   C441    1.405   .     A
C440   C446    1.390   .     A
C440   C442    1.404   .     A
C441   C396    1.394   1_655 S
C443   O453    1.374   .     S
C443   C400    1.404   1_655 S
C444   O455    1.374   .     S
C445   O457    1.373   .     S
C445   C398    1.404   1_655 S
C446   O459    1.373   .     S
C448   C539    1.187   .     S
O453   H454    0.991   .     S
O455   H456    0.990   .     S
O457   H458    0.990   .     S
O459   H460    0.990   .     S
O461   C465    1.272   .     A
O461   Zn473   2.004   .     S
O462   C466    1.272   .     A
O462   Zn474   2.004   .     S
O463   Zn473   2.004   .     S
O463   C466    1.272   .     A
O464   Zn474   2.004   .     S
O464   C465    1.272   .     A
C465   C493    1.403   .     S
C466   C494    1.403   .     S
O467   C471    1.269   .     A
O467   Zn473   2.004   .     S
O468   C472    1.269   .     A
O468   Zn474   2.004   .     S
O469   C472    1.269   .     A
O469   Zn473   2.004   .     S
O470   C471    1.269   .     A
O470   Zn474   2.004   .     S
C471   C482    1.417   .     S
C472   C481    1.417   .     S
Zn473  N476    1.974   .     S
Zn474  N475    1.974   .     S
N476   N751    1.194   .     S
C477   C485    1.385   .     A
C477   H495    1.085   .     S
C477   C481    1.382   .     A
C478   C486    1.385   .     A
C478   C482    1.382   .     A
C478   H496    1.085   .     S
C479   C483    1.395   .     A
C479   H497    1.084   .     S
C479   C481    1.391   .     A
C480   H498    1.084   .     S
C480   C482    1.391   .     A
C480   C484    1.395   .     A
C483   C487    1.408   .     A
C483   C489    1.407   .     A
C484   C490    1.407   .     A
C484   C488    1.407   .     A
C485   C491    1.390   .     A
C485   C487    1.405   .     A
C486   C492    1.390   .     A
C486   C488    1.404   .     A
C487   C534    1.394   .     S
C488   C533    1.394   1_455 S
C489   O499    1.374   .     S
C489   C538    1.404   .     S
C490   O501    1.374   .     S
C490   C537    1.404   1_455 S
C491   O503    1.373   .     S
C491   C536    1.404   .     S
C492   O505    1.373   .     S
C492   C535    1.404   1_455 S
C494   C309    1.187   1_565 S
O499   H500    0.991   .     S
O501   H502    0.990   .     S
O503   H504    0.990   .     S
O505   H506    0.990   .     S
O507   C511    1.272   .     A
O507   Zn519   2.004   .     S
O508   C512    1.272   .     A
O508   Zn520   2.004   .     S
O509   Zn519   2.004   .     S
O509   C512    1.272   .     A
O510   Zn520   2.004   .     S
O510   C511    1.272   .     A
C511   C539    1.403   .     S
C512   C540    1.403   .     S
O513   C517    1.269   .     A
O513   Zn519   2.004   .     S
O514   C518    1.269   .     A
O514   Zn520   2.004   .     S
O515   C518    1.269   .     A
O515   Zn519   2.004   .     S
O516   C517    1.269   .     A
O516   Zn520   2.004   .     S
C517   C528    1.417   .     S
C518   C527    1.417   .     S
Zn519  N522    1.974   .     S
Zn520  N521    1.974   .     S
N522   N797    1.194   .     S
C523   C531    1.385   .     A
C523   H541    1.085   .     S
C523   C527    1.382   .     A
C524   C532    1.385   .     A
C524   C528    1.382   .     A
C524   H542    1.085   .     S
C525   C529    1.395   .     A
C525   H543    1.084   .     S
C525   C527    1.391   .     A
C526   H544    1.084   .     S
C526   C528    1.391   .     A
C526   C530    1.395   .     A
C529   C533    1.408   .     A
C529   C535    1.407   .     A
C530   C536    1.407   .     A
C530   C534    1.407   .     A
C531   C537    1.390   .     A
C531   C533    1.405   .     A
C532   C538    1.390   .     A
C532   C534    1.404   .     A
C533   C488    1.394   1_655 S
C535   O545    1.374   .     S
C535   C492    1.404   1_655 S
C536   O547    1.374   .     S
C537   O549    1.373   .     S
C537   C490    1.404   1_655 S
C538   O551    1.373   .     S
C540   C355    1.187   1_565 S
O545   H546    0.991   .     S
O547   H548    0.990   .     S
O549   H550    0.990   .     S
O551   H552    0.990   .     S
O553   C557    1.272   .     A
O553   Zn565   2.004   .     S
O554   C558    1.272   .     A
O554   Zn566   2.004   .     S
O555   Zn565   2.004   .     S
O555   C558    1.272   .     A
O556   Zn566   2.004   .     S
O556   C557    1.272   .     A
C557   C585    1.403   .     S
C558   C586    1.403   .     S
O559   C563    1.269   .     A
O559   Zn565   2.004   .     S
O560   C564    1.269   .     A
O560   Zn566   2.004   .     S
O561   C564    1.269   .     A
O561   Zn565   2.004   .     S
O562   C563    1.269   .     A
O562   Zn566   2.004   .     S
C563   C574    1.417   .     S
C564   C573    1.417   .     S
Zn565  N568    1.974   .     S
Zn566  N567    1.974   .     S
N568   N15     1.194   1_556 S
C569   C577    1.385   .     A
C569   H587    1.085   .     S
C569   C573    1.382   .     A
C570   C578    1.385   .     A
C570   C574    1.382   .     A
C570   H588    1.085   .     S
C571   C575    1.395   .     A
C571   H589    1.084   .     S
C571   C573    1.391   .     A
C572   H590    1.084   .     S
C572   C574    1.391   .     A
C572   C576    1.395   .     A
C575   C579    1.408   .     A
C575   C581    1.407   .     A
C576   C582    1.407   .     A
C576   C580    1.407   .     A
C577   C583    1.390   .     A
C577   C579    1.405   .     A
C578   C584    1.390   .     A
C578   C580    1.404   .     A
C579   C626    1.394   .     S
C580   C625    1.394   1_455 S
C581   O591    1.374   .     S
C581   C630    1.404   .     S
C582   O593    1.374   .     S
C582   C629    1.404   1_455 S
C583   O595    1.373   .     S
C583   C628    1.404   .     S
C584   O597    1.373   .     S
C584   C627    1.404   1_455 S
C585   C770    1.187   1_545 S
C586   C677    1.187   .     S
O591   H592    0.991   .     S
O593   H594    0.990   .     S
O595   H596    0.990   .     S
O597   H598    0.990   .     S
O599   C603    1.272   .     A
O599   Zn611   2.004   .     S
O600   C604    1.272   .     A
O600   Zn612   2.004   .     S
O601   Zn611   2.004   .     S
O601   C604    1.272   .     A
O602   Zn612   2.004   .     S
O602   C603    1.272   .     A
C603   C631    1.403   .     S
C604   C632    1.403   .     S
O605   C609    1.269   .     A
O605   Zn611   2.004   .     S
O606   C610    1.269   .     A
O606   Zn612   2.004   .     S
O607   C610    1.269   .     A
O607   Zn611   2.004   .     S
O608   C609    1.269   .     A
O608   Zn612   2.004   .     S
C609   C620    1.417   .     S
C610   C619    1.417   .     S
Zn611  N614    1.974   .     S
Zn612  N613    1.974   .     S
N614   N61     1.194   1_556 S
C615   C623    1.385   .     A
C615   H633    1.085   .     S
C615   C619    1.382   .     A
C616   C624    1.385   .     A
C616   C620    1.382   .     A
C616   H634    1.085   .     S
C617   C621    1.395   .     A
C617   H635    1.084   .     S
C617   C619    1.391   .     A
C618   H636    1.084   .     S
C618   C620    1.391   .     A
C618   C622    1.395   .     A
C621   C625    1.408   .     A
C621   C627    1.407   .     A
C622   C628    1.407   .     A
C622   C626    1.407   .     A
C623   C629    1.390   .     A
C623   C625    1.405   .     A
C624   C630    1.390   .     A
C624   C626    1.404   .     A
C625   C580    1.394   1_655 S
C627   O637    1.374   .     S
C627   C584    1.404   1_655 S
C628   O639    1.374   .     S
C629   O641    1.373   .     S
C629   C582    1.404   1_655 S
C630   O643    1.373   .     S
C631   C816    1.187   1_545 S
C632   C723    1.187   .     S
O637   H638    0.991   .     S
O639   H640    0.990   .     S
O641   H642    0.990   .     S
O643   H644    0.990   .     S
O645   C649    1.272   .     A
O645   Zn657   2.004   .     S
O646   C650    1.272   .     A
O646   Zn658   2.004   .     S
O647   Zn657   2.004   .     S
O647   C650    1.272   .     A
O648   Zn658   2.004   .     S
O648   C649    1.272   .     A
C649   C677    1.403   .     S
C650   C678    1.403   .     S
O651   C655    1.269   .     A
O651   Zn657   2.004   .     S
O652   C656    1.269   .     A
O652   Zn658   2.004   .     S
O653   C656    1.269   .     A
O653   Zn657   2.004   .     S
O654   C655    1.269   .     A
O654   Zn658   2.004   .     S
C655   C666    1.417   .     S
C656   C665    1.417   .     S
Zn657  N660    1.974   .     S
Zn658  N659    1.974   .     S
N660   N107    1.194   1_556 S
C661   C669    1.385   .     A
C661   H679    1.085   .     S
C661   C665    1.382   .     A
C662   C670    1.385   .     A
C662   C666    1.382   .     A
C662   H680    1.085   .     S
C663   C667    1.395   .     A
C663   H681    1.084   .     S
C663   C665    1.391   .     A
C664   H682    1.084   .     S
C664   C666    1.391   .     A
C664   C668    1.395   .     A
C667   C671    1.408   .     A
C667   C673    1.407   .     A
C668   C674    1.407   .     A
C668   C672    1.407   .     A
C669   C675    1.390   .     A
C669   C671    1.405   .     A
C670   C676    1.390   .     A
C670   C672    1.404   .     A
C671   C718    1.394   .     S
C672   C717    1.394   1_455 S
C673   O683    1.374   .     S
C673   C722    1.404   .     S
C674   O685    1.374   .     S
C674   C721    1.404   1_455 S
C675   O687    1.373   .     S
C675   C720    1.404   .     S
C676   O689    1.373   .     S
C676   C719    1.404   1_455 S
C678   C769    1.187   .     S
O683   H684    0.991   .     S
O685   H686    0.990   .     S
O687   H688    0.990   .     S
O689   H690    0.990   .     S
O691   C695    1.272   .     A
O691   Zn703   2.004   .     S
O692   C696    1.272   .     A
O692   Zn704   2.004   .     S
O693   Zn703   2.004   .     S
O693   C696    1.272   .     A
O694   Zn704   2.004   .     S
O694   C695    1.272   .     A
C695   C723    1.403   .     S
C696   C724    1.403   .     S
O697   C701    1.269   .     A
O697   Zn703   2.004   .     S
O698   C702    1.269   .     A
O698   Zn704   2.004   .     S
O699   C702    1.269   .     A
O699   Zn703   2.004   .     S
O700   C701    1.269   .     A
O700   Zn704   2.004   .     S
C701   C712    1.417   .     S
C702   C711    1.417   .     S
Zn703  N706    1.974   .     S
Zn704  N705    1.974   .     S
N706   N153    1.194   1_556 S
C707   C715    1.385   .     A
C707   H725    1.085   .     S
C707   C711    1.382   .     A
C708   C716    1.385   .     A
C708   C712    1.382   .     A
C708   H726    1.085   .     S
C709   C713    1.395   .     A
C709   H727    1.084   .     S
C709   C711    1.391   .     A
C710   H728    1.084   .     S
C710   C712    1.391   .     A
C710   C714    1.395   .     A
C713   C717    1.408   .     A
C713   C719    1.407   .     A
C714   C720    1.407   .     A
C714   C718    1.407   .     A
C715   C721    1.390   .     A
C715   C717    1.405   .     A
C716   C722    1.390   .     A
C716   C718    1.404   .     A
C717   C672    1.394   1_655 S
C719   O729    1.374   .     S
C719   C676    1.404   1_655 S
C720   O731    1.374   .     S
C721   O733    1.373   .     S
C721   C674    1.404   1_655 S
C722   O735    1.373   .     S
C724   C815    1.187   .     S
O729   H730    0.991   .     S
O731   H732    0.990   .     S
O733   H734    0.990   .     S
O735   H736    0.990   .     S
O737   C741    1.272   .     A
O737   Zn749   2.004   .     S
O738   C742    1.272   .     A
O738   Zn750   2.004   .     S
O739   Zn749   2.004   .     S
O739   C742    1.272   .     A
O740   Zn750   2.004   .     S
O740   C741    1.272   .     A
C741   C769    1.403   .     S
C742   C770    1.403   .     S
O743   C747    1.269   .     A
O743   Zn749   2.004   .     S
O744   C748    1.269   .     A
O744   Zn750   2.004   .     S
O745   C748    1.269   .     A
O745   Zn749   2.004   .     S
O746   C747    1.269   .     A
O746   Zn750   2.004   .     S
C747   C758    1.417   .     S
C748   C757    1.417   .     S
Zn749  N752    1.974   .     S
Zn750  N751    1.974   .     S
N752   N199    1.194   1_556 S
C753   C761    1.385   .     A
C753   H771    1.085   .     S
C753   C757    1.382   .     A
C754   C762    1.385   .     A
C754   C758    1.382   .     A
C754   H772    1.085   .     S
C755   C759    1.395   .     A
C755   H773    1.084   .     S
C755   C757    1.391   .     A
C756   H774    1.084   .     S
C756   C758    1.391   .     A
C756   C760    1.395   .     A
C759   C763    1.408   .     A
C759   C765    1.407   .     A
C760   C766    1.407   .     A
C760   C764    1.407   .     A
C761   C767    1.390   .     A
C761   C763    1.405   .     A
C762   C768    1.390   .     A
C762   C764    1.404   .     A
C763   C810    1.394   .     S
C764   C809    1.394   1_455 S
C765   O775    1.374   .     S
C765   C814    1.404   .     S
C766   O777    1.374   .     S
C766   C813    1.404   1_455 S
C767   O779    1.373   .     S
C767   C812    1.404   .     S
C768   O781    1.373   .     S
C768   C811    1.404   1_455 S
C770   C585    1.187   1_565 S
O775   H776    0.991   .     S
O777   H778    0.990   .     S
O779   H780    0.990   .     S
O781   H782    0.990   .     S
O783   C787    1.272   .     A
O783   Zn795   2.004   .     S
O784   C788    1.272   .     A
O784   Zn796   2.004   .     S
O785   Zn795   2.004   .     S
O785   C788    1.272   .     A
O786   Zn796   2.004   .     S
O786   C787    1.272   .     A
C787   C815    1.403   .     S
C788   C816    1.403   .     S
O789   C793    1.269   .     A
O789   Zn795   2.004   .     S
O790   C794    1.269   .     A
O790   Zn796   2.004   .     S
O791   C794    1.269   .     A
O791   Zn795   2.004   .     S
O792   C793    1.269   .     A
O792   Zn796   2.004   .     S
C793   C804    1.417   .     S
C794   C803    1.417   .     S
Zn795  N798    1.974   .     S
Zn796  N797    1.974   .     S
N798   N245    1.194   1_556 S
C799   C807    1.385   .     A
C799   H817    1.085   .     S
C799   C803    1.382   .     A
C800   C808    1.385   .     A
C800   C804    1.382   .     A
C800   H818    1.085   .     S
C801   C805    1.395   .     A
C801   H819    1.084   .     S
C801   C803    1.391   .     A
C802   H820    1.084   .     S
C802   C804    1.391   .     A
C802   C806    1.395   .     A
C805   C809    1.408   .     A
C805   C811    1.407   .     A
C806   C812    1.407   .     A
C806   C810    1.407   .     A
C807   C813    1.390   .     A
C807   C809    1.405   .     A
C808   C814    1.390   .     A
C808   C810    1.404   .     A
C809   C764    1.394   1_655 S
C811   O821    1.374   .     S
C811   C768    1.404   1_655 S
C812   O823    1.374   .     S
C813   O825    1.373   .     S
C813   C766    1.404   1_655 S
C814   O827    1.373   .     S
C816   C631    1.187   1_565 S
O821   H822    0.991   .     S
O823   H824    0.990   .     S
O825   H826    0.990   .     S
O827   H828    0.990   .     S
