data_str_m3_o1_o16_pcu_sym.10
_audit_creation_date              2020-01-03
_audit_creation_method            'Materials Studio'
_symmetry_space_group_name_H-M    'P1'
_symmetry_Int_Tables_number       1
_symmetry_cell_setting            triclinic
loop_
_symmetry_equiv_pos_as_xyz
  x,y,z
_cell_length_a                    29.7264
_cell_length_b                    32.0534
_cell_length_c                    26.2250
_cell_angle_alpha                 90.9455
_cell_angle_beta                  71.5724
_cell_angle_gamma                 91.7094
loop_
_atom_site_label
_atom_site_type_symbol
_atom_site_fract_x
_atom_site_fract_y
_atom_site_fract_z
_atom_site_U_iso_or_equiv
_atom_site_adp_type
_atom_site_occupancy
C1     C     0.16711   0.24653   0.25033   0.00000  Uiso   1.00
C2     C     0.12403   0.17198   0.41127   0.00000  Uiso   1.00
C3     C     0.20836   0.31292   0.22461   0.00000  Uiso   1.00
C4     C     0.14052   0.16834   0.35211   0.00000  Uiso   1.00
C5     C     0.20715   0.02232   0.22430   0.00000  Uiso   1.00
C6     C     0.16491   0.04230   0.25152   0.00000  Uiso   1.00
C7     C     0.12363   0.01949   0.27985   0.00000  Uiso   1.00
C8     C     0.12522   0.31006   0.27970   0.00000  Uiso   1.00
C9     C     0.16728   0.29053   0.25196   0.00000  Uiso   1.00
C10    C     0.31419   0.13464   0.22716   0.00000  Uiso   1.00
C11    C     0.02899   0.13480   0.22574   0.00000  Uiso   1.00
C12    C     0.14448   0.18415   0.49347   0.00000  Uiso   1.00
C13    C     0.01922   0.19884   0.27240   0.00000  Uiso   1.00
C14    C     0.30539   0.19962   0.27106   0.00000  Uiso   1.00
C15    C     0.16588   0.08668   0.25072   0.00000  Uiso   1.00
C16    C     0.19232   0.17145   0.14888   0.00000  Uiso   1.00
C17    C     0.26265   0.20874   0.00908   0.00000  Uiso   1.00
C18    C     0.20550   0.18604   0.09342   0.00000  Uiso   1.00
C19    C     0.07998   0.15361   0.44212   0.00000  Uiso   1.00
C20    C     0.06959   0.14935   0.49736   0.00000  Uiso   1.00
C21    C     0.10217   0.16268   0.02236   0.00000  Uiso   1.00
C22    C     0.07968   0.03839   0.31023   0.00000  Uiso   1.00
C23    C     0.15465   0.19016   0.43796   0.00000  Uiso   1.00
C24    C     0.05855   0.09945   0.19630   0.00000  Uiso   1.00
C25    C     0.28079   0.23773   0.28862   0.00000  Uiso   1.00
C26    C     0.31207   0.22424   0.47882   0.00000  Uiso   1.00
C27    C     0.12556   0.21968   0.10703   0.00000  Uiso   1.00
C28    C     0.04479   0.13792   0.41882   0.00000  Uiso   1.00
C29    C     0.17909   0.19643   0.01763   0.00000  Uiso   1.00
C30    C     0.22547   0.20848   0.48591   0.00000  Uiso   1.00
C31    C     0.23230   0.22035   0.43287   0.00000  Uiso   1.00
C32    C     0.19593   0.21357   0.41055   0.00000  Uiso   1.00
C33    C     0.16897   0.19648   0.07293   0.00000  Uiso   1.00
C34    C     0.25279   0.19323   0.06156   0.00000  Uiso   1.00
H35    H     0.28125   0.18927   0.07846   0.00000  Uiso   1.00
H36    H     0.24077   0.29738   0.20274   0.00000  Uiso   1.00
H37    H     0.09355   0.11075   0.17027   0.00000  Uiso   1.00
H38    H     0.06214   0.07618   0.22528   0.00000  Uiso   1.00
H39    H     0.04148   0.08291   0.16939   0.00000  Uiso   1.00
H40    H     0.32564   0.20730   0.44008   0.00000  Uiso   1.00
H41    H     0.31144   0.25804   0.47058   0.00000  Uiso   1.00
H42    H     0.00360   0.21998   0.00214   0.00000  Uiso   1.00
H43    H     0.13561   0.24145   0.13525   0.00000  Uiso   1.00
H44    H     0.11079   0.23902   0.08163   0.00000  Uiso   1.00
H45    H     0.09686   0.19812   0.13038   0.00000  Uiso   1.00
H46    H     0.23900   0.03975   0.20228   0.00000  Uiso   1.00
H47    H     0.09377   0.29188   0.30142   0.00000  Uiso   1.00
H48    H     0.29974   0.10923   0.20896   0.00000  Uiso   1.00
H49    H     0.03368   0.22469   0.28990   0.00000  Uiso   1.00
H50    H     0.26538   0.23452   0.40837   0.00000  Uiso   1.00
H51    H     0.09436   0.15458   0.06409   0.00000  Uiso   1.00
H52    H     0.03680   0.13403   0.02105   0.00000  Uiso   1.00
H53    H     0.20079   0.22567   0.37118   0.00000  Uiso   1.00
N54    N     0.04760   0.16668   0.25001   0.00000  Uiso   1.00
N55    N     0.28573   0.16665   0.25001   0.00000  Uiso   1.00
N56    N     0.04409   0.05297   0.33445   0.00000  Uiso   1.00
N57    N     0.26249   0.26919   0.30244   0.00000  Uiso   1.00
N58    N     0.01601   0.12586   0.40069   0.00000  Uiso   1.00
O59    O     0.12846   0.22775   0.25000   0.00000  Uiso   1.00
O60    O     0.20490   0.22774   0.25000   0.00000  Uiso   1.00
O61    O     0.10947   0.16666   0.32681   0.00000  Uiso   1.00
O62    O     0.18591   0.16665   0.32681   0.00000  Uiso   1.00
O63    O     0.12843   0.10559   0.24999   0.00000  Uiso   1.00
O64    O     0.20488   0.10558   0.25000   0.00000  Uiso   1.00
O65    O     0.14742   0.16668   0.17319   0.00000  Uiso   1.00
O66    O     0.22387   0.16667   0.17319   0.00000  Uiso   1.00
Zn67   Zn    0.11562   0.16667   0.25000   0.00000  Uiso   1.00
Zn68   Zn    0.21771   0.16666   0.25000   0.00000  Uiso   1.00
C69    C     0.50045   0.24653   0.25033   0.00000  Uiso   1.00
C70    C     0.45737   0.17198   0.41127   0.00000  Uiso   1.00
C71    C     0.54169   0.31292   0.22461   0.00000  Uiso   1.00
C72    C     0.47385   0.16834   0.35211   0.00000  Uiso   1.00
C73    C     0.54048   0.02232   0.22430   0.00000  Uiso   1.00
C74    C     0.49825   0.04230   0.25152   0.00000  Uiso   1.00
C75    C     0.45696   0.01949   0.27985   0.00000  Uiso   1.00
C76    C     0.45855   0.31006   0.27970   0.00000  Uiso   1.00
C77    C     0.50061   0.29053   0.25196   0.00000  Uiso   1.00
C78    C     0.64752   0.13464   0.22716   0.00000  Uiso   1.00
C79    C     0.36233   0.13480   0.22574   0.00000  Uiso   1.00
C80    C     0.47782   0.18415   0.49347   0.00000  Uiso   1.00
C81    C     0.35255   0.19884   0.27240   0.00000  Uiso   1.00
C82    C     0.63873   0.19962   0.27106   0.00000  Uiso   1.00
C83    C     0.49922   0.08668   0.25072   0.00000  Uiso   1.00
C84    C     0.52565   0.17145   0.14888   0.00000  Uiso   1.00
C85    C     0.59598   0.20874   0.00908   0.00000  Uiso   1.00
C86    C     0.53883   0.18604   0.09342   0.00000  Uiso   1.00
C87    C     0.41332   0.15361   0.44212   0.00000  Uiso   1.00
C88    C     0.40293   0.14935   0.49736   0.00000  Uiso   1.00
C89    C     0.43550   0.16268   0.02236   0.00000  Uiso   1.00
C90    C     0.41301   0.03839   0.31023   0.00000  Uiso   1.00
C91    C     0.48798   0.19016   0.43796   0.00000  Uiso   1.00
C92    C     0.39188   0.09945   0.19630   0.00000  Uiso   1.00
C93    C     0.61413   0.23773   0.28862   0.00000  Uiso   1.00
C94    C     0.64540   0.22424   0.47882   0.00000  Uiso   1.00
C95    C     0.45889   0.21968   0.10703   0.00000  Uiso   1.00
C96    C     0.37812   0.13792   0.41882   0.00000  Uiso   1.00
C97    C     0.51242   0.19643   0.01763   0.00000  Uiso   1.00
C98    C     0.55881   0.20848   0.48591   0.00000  Uiso   1.00
C99    C     0.56563   0.22035   0.43287   0.00000  Uiso   1.00
C100   C     0.52927   0.21357   0.41055   0.00000  Uiso   1.00
C101   C     0.50230   0.19648   0.07293   0.00000  Uiso   1.00
C102   C     0.58612   0.19323   0.06156   0.00000  Uiso   1.00
H103   H     0.61458   0.18927   0.07846   0.00000  Uiso   1.00
H104   H     0.57410   0.29738   0.20274   0.00000  Uiso   1.00
H105   H     0.42689   0.11075   0.17027   0.00000  Uiso   1.00
H106   H     0.39548   0.07618   0.22528   0.00000  Uiso   1.00
H107   H     0.37481   0.08291   0.16939   0.00000  Uiso   1.00
H108   H     0.65898   0.20730   0.44008   0.00000  Uiso   1.00
H109   H     0.64477   0.25804   0.47058   0.00000  Uiso   1.00
H110   H     0.33693   0.21998   0.00214   0.00000  Uiso   1.00
H111   H     0.46895   0.24145   0.13525   0.00000  Uiso   1.00
H112   H     0.44413   0.23902   0.08163   0.00000  Uiso   1.00
H113   H     0.43019   0.19812   0.13038   0.00000  Uiso   1.00
H114   H     0.57233   0.03975   0.20228   0.00000  Uiso   1.00
H115   H     0.42710   0.29188   0.30142   0.00000  Uiso   1.00
H116   H     0.63307   0.10923   0.20896   0.00000  Uiso   1.00
H117   H     0.36701   0.22469   0.28990   0.00000  Uiso   1.00
H118   H     0.59872   0.23452   0.40837   0.00000  Uiso   1.00
H119   H     0.42769   0.15458   0.06409   0.00000  Uiso   1.00
H120   H     0.37014   0.13403   0.02105   0.00000  Uiso   1.00
H121   H     0.53413   0.22567   0.37118   0.00000  Uiso   1.00
N122   N     0.38093   0.16668   0.25001   0.00000  Uiso   1.00
N123   N     0.61906   0.16665   0.25001   0.00000  Uiso   1.00
N124   N     0.37742   0.05297   0.33445   0.00000  Uiso   1.00
N125   N     0.59583   0.26919   0.30244   0.00000  Uiso   1.00
N126   N     0.34935   0.12586   0.40069   0.00000  Uiso   1.00
O127   O     0.46179   0.22775   0.25000   0.00000  Uiso   1.00
O128   O     0.53823   0.22774   0.25000   0.00000  Uiso   1.00
O129   O     0.44280   0.16666   0.32681   0.00000  Uiso   1.00
O130   O     0.51924   0.16665   0.32681   0.00000  Uiso   1.00
O131   O     0.46177   0.10559   0.24999   0.00000  Uiso   1.00
O132   O     0.53821   0.10558   0.25000   0.00000  Uiso   1.00
O133   O     0.48076   0.16668   0.17319   0.00000  Uiso   1.00
O134   O     0.55720   0.16667   0.17319   0.00000  Uiso   1.00
Zn135  Zn    0.44896   0.16667   0.25000   0.00000  Uiso   1.00
Zn136  Zn    0.55104   0.16666   0.25000   0.00000  Uiso   1.00
C137   C     0.83378   0.24653   0.25033   0.00000  Uiso   1.00
C138   C     0.79070   0.17198   0.41127   0.00000  Uiso   1.00
C139   C     0.87503   0.31292   0.22461   0.00000  Uiso   1.00
C140   C     0.80719   0.16834   0.35211   0.00000  Uiso   1.00
C141   C     0.87381   0.02232   0.22430   0.00000  Uiso   1.00
C142   C     0.83158   0.04230   0.25152   0.00000  Uiso   1.00
C143   C     0.79029   0.01949   0.27985   0.00000  Uiso   1.00
C144   C     0.79188   0.31006   0.27970   0.00000  Uiso   1.00
C145   C     0.83394   0.29053   0.25196   0.00000  Uiso   1.00
C146   C     0.98085   0.13464   0.22716   0.00000  Uiso   1.00
C147   C     0.69566   0.13480   0.22574   0.00000  Uiso   1.00
C148   C     0.81115   0.18415   0.49347   0.00000  Uiso   1.00
C149   C     0.68588   0.19884   0.27240   0.00000  Uiso   1.00
C150   C     0.97206   0.19962   0.27106   0.00000  Uiso   1.00
C151   C     0.83255   0.08668   0.25072   0.00000  Uiso   1.00
C152   C     0.85899   0.17145   0.14888   0.00000  Uiso   1.00
C153   C     0.92932   0.20874   0.00908   0.00000  Uiso   1.00
C154   C     0.87217   0.18604   0.09342   0.00000  Uiso   1.00
C155   C     0.74665   0.15361   0.44212   0.00000  Uiso   1.00
C156   C     0.73626   0.14935   0.49736   0.00000  Uiso   1.00
C157   C     0.76883   0.16268   0.02236   0.00000  Uiso   1.00
C158   C     0.74635   0.03839   0.31023   0.00000  Uiso   1.00
C159   C     0.82131   0.19016   0.43796   0.00000  Uiso   1.00
C160   C     0.72521   0.09945   0.19630   0.00000  Uiso   1.00
C161   C     0.94746   0.23773   0.28862   0.00000  Uiso   1.00
C162   C     0.97873   0.22424   0.47882   0.00000  Uiso   1.00
C163   C     0.79223   0.21968   0.10703   0.00000  Uiso   1.00
C164   C     0.71146   0.13792   0.41882   0.00000  Uiso   1.00
C165   C     0.84576   0.19643   0.01763   0.00000  Uiso   1.00
C166   C     0.89214   0.20848   0.48591   0.00000  Uiso   1.00
C167   C     0.89896   0.22035   0.43287   0.00000  Uiso   1.00
C168   C     0.86260   0.21357   0.41055   0.00000  Uiso   1.00
C169   C     0.83564   0.19648   0.07293   0.00000  Uiso   1.00
C170   C     0.91945   0.19323   0.06156   0.00000  Uiso   1.00
H171   H     0.94792   0.18927   0.07846   0.00000  Uiso   1.00
H172   H     0.90744   0.29738   0.20274   0.00000  Uiso   1.00
H173   H     0.76022   0.11075   0.17027   0.00000  Uiso   1.00
H174   H     0.72881   0.07618   0.22528   0.00000  Uiso   1.00
H175   H     0.70814   0.08291   0.16939   0.00000  Uiso   1.00
H176   H     0.99231   0.20730   0.44008   0.00000  Uiso   1.00
H177   H     0.97810   0.25804   0.47058   0.00000  Uiso   1.00
H178   H     0.67026   0.21998   0.00214   0.00000  Uiso   1.00
H179   H     0.80228   0.24145   0.13525   0.00000  Uiso   1.00
H180   H     0.77746   0.23902   0.08163   0.00000  Uiso   1.00
H181   H     0.76352   0.19812   0.13038   0.00000  Uiso   1.00
H182   H     0.90566   0.03975   0.20228   0.00000  Uiso   1.00
H183   H     0.76043   0.29188   0.30142   0.00000  Uiso   1.00
H184   H     0.96641   0.10923   0.20896   0.00000  Uiso   1.00
H185   H     0.70034   0.22469   0.28990   0.00000  Uiso   1.00
H186   H     0.93205   0.23452   0.40837   0.00000  Uiso   1.00
H187   H     0.76102   0.15458   0.06409   0.00000  Uiso   1.00
H188   H     0.70347   0.13403   0.02105   0.00000  Uiso   1.00
H189   H     0.86746   0.22567   0.37118   0.00000  Uiso   1.00
N190   N     0.71426   0.16668   0.25001   0.00000  Uiso   1.00
N191   N     0.95239   0.16665   0.25001   0.00000  Uiso   1.00
N192   N     0.71075   0.05297   0.33445   0.00000  Uiso   1.00
N193   N     0.92916   0.26919   0.30244   0.00000  Uiso   1.00
N194   N     0.68268   0.12586   0.40069   0.00000  Uiso   1.00
O195   O     0.79512   0.22775   0.25000   0.00000  Uiso   1.00
O196   O     0.87157   0.22774   0.25000   0.00000  Uiso   1.00
O197   O     0.77613   0.16666   0.32681   0.00000  Uiso   1.00
O198   O     0.85258   0.16665   0.32681   0.00000  Uiso   1.00
O199   O     0.79510   0.10559   0.24999   0.00000  Uiso   1.00
O200   O     0.87154   0.10558   0.25000   0.00000  Uiso   1.00
O201   O     0.81409   0.16668   0.17319   0.00000  Uiso   1.00
O202   O     0.89053   0.16667   0.17319   0.00000  Uiso   1.00
Zn203  Zn    0.78229   0.16667   0.25000   0.00000  Uiso   1.00
Zn204  Zn    0.88438   0.16666   0.25000   0.00000  Uiso   1.00
C205   C     0.16711   0.57986   0.25033   0.00000  Uiso   1.00
C206   C     0.12403   0.50531   0.41127   0.00000  Uiso   1.00
C207   C     0.20836   0.64625   0.22461   0.00000  Uiso   1.00
C208   C     0.14052   0.50167   0.35211   0.00000  Uiso   1.00
C209   C     0.20715   0.35565   0.22430   0.00000  Uiso   1.00
C210   C     0.16491   0.37564   0.25152   0.00000  Uiso   1.00
C211   C     0.12363   0.35282   0.27985   0.00000  Uiso   1.00
C212   C     0.12522   0.64339   0.27970   0.00000  Uiso   1.00
C213   C     0.16728   0.62386   0.25196   0.00000  Uiso   1.00
C214   C     0.31419   0.46797   0.22716   0.00000  Uiso   1.00
C215   C     0.02899   0.46813   0.22574   0.00000  Uiso   1.00
C216   C     0.14448   0.51748   0.49347   0.00000  Uiso   1.00
C217   C     0.01922   0.53217   0.27240   0.00000  Uiso   1.00
C218   C     0.30539   0.53295   0.27106   0.00000  Uiso   1.00
C219   C     0.16588   0.42001   0.25072   0.00000  Uiso   1.00
C220   C     0.19232   0.50478   0.14888   0.00000  Uiso   1.00
C221   C     0.26265   0.54208   0.00908   0.00000  Uiso   1.00
C222   C     0.20550   0.51937   0.09342   0.00000  Uiso   1.00
C223   C     0.07998   0.48694   0.44212   0.00000  Uiso   1.00
C224   C     0.06959   0.48269   0.49736   0.00000  Uiso   1.00
C225   C     0.10217   0.49601   0.02236   0.00000  Uiso   1.00
C226   C     0.07968   0.37172   0.31023   0.00000  Uiso   1.00
C227   C     0.15465   0.52350   0.43796   0.00000  Uiso   1.00
C228   C     0.05855   0.43278   0.19630   0.00000  Uiso   1.00
C229   C     0.28079   0.57106   0.28862   0.00000  Uiso   1.00
C230   C     0.31207   0.55757   0.47882   0.00000  Uiso   1.00
C231   C     0.12556   0.55301   0.10703   0.00000  Uiso   1.00
C232   C     0.04479   0.47125   0.41882   0.00000  Uiso   1.00
C233   C     0.17909   0.52976   0.01763   0.00000  Uiso   1.00
C234   C     0.22547   0.54181   0.48591   0.00000  Uiso   1.00
C235   C     0.23230   0.55368   0.43287   0.00000  Uiso   1.00
C236   C     0.19593   0.54690   0.41055   0.00000  Uiso   1.00
C237   C     0.16897   0.52981   0.07293   0.00000  Uiso   1.00
C238   C     0.25279   0.52657   0.06156   0.00000  Uiso   1.00
H239   H     0.28125   0.52260   0.07846   0.00000  Uiso   1.00
H240   H     0.24077   0.63072   0.20274   0.00000  Uiso   1.00
H241   H     0.09355   0.44409   0.17027   0.00000  Uiso   1.00
H242   H     0.06214   0.40952   0.22528   0.00000  Uiso   1.00
H243   H     0.04148   0.41624   0.16939   0.00000  Uiso   1.00
H244   H     0.32564   0.54063   0.44008   0.00000  Uiso   1.00
H245   H     0.31144   0.59137   0.47058   0.00000  Uiso   1.00
H246   H     0.00360   0.55331   0.00214   0.00000  Uiso   1.00
H247   H     0.13561   0.57478   0.13525   0.00000  Uiso   1.00
H248   H     0.11079   0.57235   0.08163   0.00000  Uiso   1.00
H249   H     0.09686   0.53145   0.13038   0.00000  Uiso   1.00
H250   H     0.23900   0.37308   0.20228   0.00000  Uiso   1.00
H251   H     0.09377   0.62521   0.30142   0.00000  Uiso   1.00
H252   H     0.29974   0.44256   0.20896   0.00000  Uiso   1.00
H253   H     0.03368   0.55802   0.28990   0.00000  Uiso   1.00
H254   H     0.26538   0.56785   0.40837   0.00000  Uiso   1.00
H255   H     0.09436   0.48792   0.06409   0.00000  Uiso   1.00
H256   H     0.03680   0.46736   0.02105   0.00000  Uiso   1.00
H257   H     0.20079   0.55900   0.37118   0.00000  Uiso   1.00
N258   N     0.04760   0.50001   0.25001   0.00000  Uiso   1.00
N259   N     0.28573   0.49998   0.25001   0.00000  Uiso   1.00
N260   N     0.04409   0.38631   0.33445   0.00000  Uiso   1.00
N261   N     0.26249   0.60252   0.30244   0.00000  Uiso   1.00
N262   N     0.01601   0.45919   0.40069   0.00000  Uiso   1.00
O263   O     0.12846   0.56108   0.25000   0.00000  Uiso   1.00
O264   O     0.20490   0.56107   0.25000   0.00000  Uiso   1.00
O265   O     0.10947   0.50000   0.32681   0.00000  Uiso   1.00
O266   O     0.18591   0.49999   0.32681   0.00000  Uiso   1.00
O267   O     0.12843   0.43893   0.24999   0.00000  Uiso   1.00
O268   O     0.20488   0.43892   0.25000   0.00000  Uiso   1.00
O269   O     0.14742   0.50001   0.17319   0.00000  Uiso   1.00
O270   O     0.22387   0.50000   0.17319   0.00000  Uiso   1.00
Zn271  Zn    0.11562   0.50001   0.25000   0.00000  Uiso   1.00
Zn272  Zn    0.21771   0.49999   0.25000   0.00000  Uiso   1.00
C273   C     0.50045   0.57986   0.25033   0.00000  Uiso   1.00
C274   C     0.45737   0.50531   0.41127   0.00000  Uiso   1.00
C275   C     0.54169   0.64625   0.22461   0.00000  Uiso   1.00
C276   C     0.47385   0.50167   0.35211   0.00000  Uiso   1.00
C277   C     0.54048   0.35565   0.22430   0.00000  Uiso   1.00
C278   C     0.49825   0.37564   0.25152   0.00000  Uiso   1.00
C279   C     0.45696   0.35282   0.27985   0.00000  Uiso   1.00
C280   C     0.45855   0.64339   0.27970   0.00000  Uiso   1.00
C281   C     0.50061   0.62386   0.25196   0.00000  Uiso   1.00
C282   C     0.64752   0.46797   0.22716   0.00000  Uiso   1.00
C283   C     0.36233   0.46813   0.22574   0.00000  Uiso   1.00
C284   C     0.47782   0.51748   0.49347   0.00000  Uiso   1.00
C285   C     0.35255   0.53217   0.27240   0.00000  Uiso   1.00
C286   C     0.63873   0.53295   0.27106   0.00000  Uiso   1.00
C287   C     0.49922   0.42001   0.25072   0.00000  Uiso   1.00
C288   C     0.52565   0.50478   0.14888   0.00000  Uiso   1.00
C289   C     0.59598   0.54208   0.00908   0.00000  Uiso   1.00
C290   C     0.53883   0.51937   0.09342   0.00000  Uiso   1.00
C291   C     0.41332   0.48694   0.44212   0.00000  Uiso   1.00
C292   C     0.40293   0.48269   0.49736   0.00000  Uiso   1.00
C293   C     0.43550   0.49601   0.02236   0.00000  Uiso   1.00
C294   C     0.41301   0.37172   0.31023   0.00000  Uiso   1.00
C295   C     0.48798   0.52350   0.43796   0.00000  Uiso   1.00
C296   C     0.39188   0.43278   0.19630   0.00000  Uiso   1.00
C297   C     0.61413   0.57106   0.28862   0.00000  Uiso   1.00
C298   C     0.64540   0.55757   0.47882   0.00000  Uiso   1.00
C299   C     0.45889   0.55301   0.10703   0.00000  Uiso   1.00
C300   C     0.37812   0.47125   0.41882   0.00000  Uiso   1.00
C301   C     0.51242   0.52976   0.01763   0.00000  Uiso   1.00
C302   C     0.55881   0.54181   0.48591   0.00000  Uiso   1.00
C303   C     0.56563   0.55368   0.43287   0.00000  Uiso   1.00
C304   C     0.52927   0.54690   0.41055   0.00000  Uiso   1.00
C305   C     0.50230   0.52981   0.07293   0.00000  Uiso   1.00
C306   C     0.58612   0.52657   0.06156   0.00000  Uiso   1.00
H307   H     0.61458   0.52260   0.07846   0.00000  Uiso   1.00
H308   H     0.57410   0.63072   0.20274   0.00000  Uiso   1.00
H309   H     0.42689   0.44409   0.17027   0.00000  Uiso   1.00
H310   H     0.39548   0.40952   0.22528   0.00000  Uiso   1.00
H311   H     0.37481   0.41624   0.16939   0.00000  Uiso   1.00
H312   H     0.65898   0.54063   0.44008   0.00000  Uiso   1.00
H313   H     0.64477   0.59137   0.47058   0.00000  Uiso   1.00
H314   H     0.33693   0.55331   0.00214   0.00000  Uiso   1.00
H315   H     0.46895   0.57478   0.13525   0.00000  Uiso   1.00
H316   H     0.44413   0.57235   0.08163   0.00000  Uiso   1.00
H317   H     0.43019   0.53145   0.13038   0.00000  Uiso   1.00
H318   H     0.57233   0.37308   0.20228   0.00000  Uiso   1.00
H319   H     0.42710   0.62521   0.30142   0.00000  Uiso   1.00
H320   H     0.63307   0.44256   0.20896   0.00000  Uiso   1.00
H321   H     0.36701   0.55802   0.28990   0.00000  Uiso   1.00
H322   H     0.59872   0.56785   0.40837   0.00000  Uiso   1.00
H323   H     0.42769   0.48792   0.06409   0.00000  Uiso   1.00
H324   H     0.37014   0.46736   0.02105   0.00000  Uiso   1.00
H325   H     0.53413   0.55900   0.37118   0.00000  Uiso   1.00
N326   N     0.38093   0.50001   0.25001   0.00000  Uiso   1.00
N327   N     0.61906   0.49998   0.25001   0.00000  Uiso   1.00
N328   N     0.37742   0.38631   0.33445   0.00000  Uiso   1.00
N329   N     0.59583   0.60252   0.30244   0.00000  Uiso   1.00
N330   N     0.34935   0.45919   0.40069   0.00000  Uiso   1.00
O331   O     0.46179   0.56108   0.25000   0.00000  Uiso   1.00
O332   O     0.53823   0.56107   0.25000   0.00000  Uiso   1.00
O333   O     0.44280   0.50000   0.32681   0.00000  Uiso   1.00
O334   O     0.51924   0.49999   0.32681   0.00000  Uiso   1.00
O335   O     0.46177   0.43893   0.24999   0.00000  Uiso   1.00
O336   O     0.53821   0.43892   0.25000   0.00000  Uiso   1.00
O337   O     0.48076   0.50001   0.17319   0.00000  Uiso   1.00
O338   O     0.55720   0.50000   0.17319   0.00000  Uiso   1.00
Zn339  Zn    0.44896   0.50001   0.25000   0.00000  Uiso   1.00
Zn340  Zn    0.55104   0.49999   0.25000   0.00000  Uiso   1.00
C341   C     0.83378   0.57986   0.25033   0.00000  Uiso   1.00
C342   C     0.79070   0.50531   0.41127   0.00000  Uiso   1.00
C343   C     0.87503   0.64625   0.22461   0.00000  Uiso   1.00
C344   C     0.80719   0.50167   0.35211   0.00000  Uiso   1.00
C345   C     0.87381   0.35565   0.22430   0.00000  Uiso   1.00
C346   C     0.83158   0.37564   0.25152   0.00000  Uiso   1.00
C347   C     0.79029   0.35282   0.27985   0.00000  Uiso   1.00
C348   C     0.79188   0.64339   0.27970   0.00000  Uiso   1.00
C349   C     0.83394   0.62386   0.25196   0.00000  Uiso   1.00
C350   C     0.98085   0.46797   0.22716   0.00000  Uiso   1.00
C351   C     0.69566   0.46813   0.22574   0.00000  Uiso   1.00
C352   C     0.81115   0.51748   0.49347   0.00000  Uiso   1.00
C353   C     0.68588   0.53217   0.27240   0.00000  Uiso   1.00
C354   C     0.97206   0.53295   0.27106   0.00000  Uiso   1.00
C355   C     0.83255   0.42001   0.25072   0.00000  Uiso   1.00
C356   C     0.85899   0.50478   0.14888   0.00000  Uiso   1.00
C357   C     0.92932   0.54208   0.00908   0.00000  Uiso   1.00
C358   C     0.87217   0.51937   0.09342   0.00000  Uiso   1.00
C359   C     0.74665   0.48694   0.44212   0.00000  Uiso   1.00
C360   C     0.73626   0.48269   0.49736   0.00000  Uiso   1.00
C361   C     0.76883   0.49601   0.02236   0.00000  Uiso   1.00
C362   C     0.74635   0.37172   0.31023   0.00000  Uiso   1.00
C363   C     0.82131   0.52350   0.43796   0.00000  Uiso   1.00
C364   C     0.72521   0.43278   0.19630   0.00000  Uiso   1.00
C365   C     0.94746   0.57106   0.28862   0.00000  Uiso   1.00
C366   C     0.97873   0.55757   0.47882   0.00000  Uiso   1.00
C367   C     0.79223   0.55301   0.10703   0.00000  Uiso   1.00
C368   C     0.71146   0.47125   0.41882   0.00000  Uiso   1.00
C369   C     0.84576   0.52976   0.01763   0.00000  Uiso   1.00
C370   C     0.89214   0.54181   0.48591   0.00000  Uiso   1.00
C371   C     0.89896   0.55368   0.43287   0.00000  Uiso   1.00
C372   C     0.86260   0.54690   0.41055   0.00000  Uiso   1.00
C373   C     0.83564   0.52981   0.07293   0.00000  Uiso   1.00
C374   C     0.91945   0.52657   0.06156   0.00000  Uiso   1.00
H375   H     0.94792   0.52260   0.07846   0.00000  Uiso   1.00
H376   H     0.90744   0.63072   0.20274   0.00000  Uiso   1.00
H377   H     0.76022   0.44409   0.17027   0.00000  Uiso   1.00
H378   H     0.72881   0.40952   0.22528   0.00000  Uiso   1.00
H379   H     0.70814   0.41624   0.16939   0.00000  Uiso   1.00
H380   H     0.99231   0.54063   0.44008   0.00000  Uiso   1.00
H381   H     0.97810   0.59137   0.47058   0.00000  Uiso   1.00
H382   H     0.67026   0.55331   0.00214   0.00000  Uiso   1.00
H383   H     0.80228   0.57478   0.13525   0.00000  Uiso   1.00
H384   H     0.77746   0.57235   0.08163   0.00000  Uiso   1.00
H385   H     0.76352   0.53145   0.13038   0.00000  Uiso   1.00
H386   H     0.90566   0.37308   0.20228   0.00000  Uiso   1.00
H387   H     0.76043   0.62521   0.30142   0.00000  Uiso   1.00
H388   H     0.96641   0.44256   0.20896   0.00000  Uiso   1.00
H389   H     0.70034   0.55802   0.28990   0.00000  Uiso   1.00
H390   H     0.93205   0.56785   0.40837   0.00000  Uiso   1.00
H391   H     0.76102   0.48792   0.06409   0.00000  Uiso   1.00
H392   H     0.70347   0.46736   0.02105   0.00000  Uiso   1.00
H393   H     0.86746   0.55900   0.37118   0.00000  Uiso   1.00
N394   N     0.71426   0.50001   0.25001   0.00000  Uiso   1.00
N395   N     0.95239   0.49998   0.25001   0.00000  Uiso   1.00
N396   N     0.71075   0.38631   0.33445   0.00000  Uiso   1.00
N397   N     0.92916   0.60252   0.30244   0.00000  Uiso   1.00
N398   N     0.68268   0.45919   0.40069   0.00000  Uiso   1.00
O399   O     0.79512   0.56108   0.25000   0.00000  Uiso   1.00
O400   O     0.87157   0.56107   0.25000   0.00000  Uiso   1.00
O401   O     0.77613   0.50000   0.32681   0.00000  Uiso   1.00
O402   O     0.85258   0.49999   0.32681   0.00000  Uiso   1.00
O403   O     0.79510   0.43893   0.24999   0.00000  Uiso   1.00
O404   O     0.87154   0.43892   0.25000   0.00000  Uiso   1.00
O405   O     0.81409   0.50001   0.17319   0.00000  Uiso   1.00
O406   O     0.89053   0.50000   0.17319   0.00000  Uiso   1.00
Zn407  Zn    0.78229   0.50001   0.25000   0.00000  Uiso   1.00
Zn408  Zn    0.88438   0.49999   0.25000   0.00000  Uiso   1.00
C409   C     0.16711   0.91320   0.25033   0.00000  Uiso   1.00
C410   C     0.12403   0.83865   0.41127   0.00000  Uiso   1.00
C411   C     0.20836   0.97958   0.22461   0.00000  Uiso   1.00
C412   C     0.14052   0.83501   0.35211   0.00000  Uiso   1.00
C413   C     0.20715   0.68899   0.22430   0.00000  Uiso   1.00
C414   C     0.16491   0.70897   0.25152   0.00000  Uiso   1.00
C415   C     0.12363   0.68615   0.27985   0.00000  Uiso   1.00
C416   C     0.12522   0.97672   0.27970   0.00000  Uiso   1.00
C417   C     0.16728   0.95719   0.25196   0.00000  Uiso   1.00
C418   C     0.31419   0.80131   0.22716   0.00000  Uiso   1.00
C419   C     0.02899   0.80146   0.22574   0.00000  Uiso   1.00
C420   C     0.14448   0.85081   0.49347   0.00000  Uiso   1.00
C421   C     0.01922   0.86550   0.27240   0.00000  Uiso   1.00
C422   C     0.30539   0.86629   0.27106   0.00000  Uiso   1.00
C423   C     0.16588   0.75334   0.25072   0.00000  Uiso   1.00
C424   C     0.19232   0.83812   0.14888   0.00000  Uiso   1.00
C425   C     0.26265   0.87541   0.00908   0.00000  Uiso   1.00
C426   C     0.20550   0.85270   0.09342   0.00000  Uiso   1.00
C427   C     0.07998   0.82028   0.44212   0.00000  Uiso   1.00
C428   C     0.06959   0.81602   0.49736   0.00000  Uiso   1.00
C429   C     0.10217   0.82935   0.02236   0.00000  Uiso   1.00
C430   C     0.07968   0.70505   0.31023   0.00000  Uiso   1.00
C431   C     0.15465   0.85683   0.43796   0.00000  Uiso   1.00
C432   C     0.05855   0.76611   0.19630   0.00000  Uiso   1.00
C433   C     0.28079   0.90440   0.28862   0.00000  Uiso   1.00
C434   C     0.31207   0.89091   0.47882   0.00000  Uiso   1.00
C435   C     0.12556   0.88635   0.10703   0.00000  Uiso   1.00
C436   C     0.04479   0.80458   0.41882   0.00000  Uiso   1.00
C437   C     0.17909   0.86309   0.01763   0.00000  Uiso   1.00
C438   C     0.22547   0.87514   0.48591   0.00000  Uiso   1.00
C439   C     0.23230   0.88701   0.43287   0.00000  Uiso   1.00
C440   C     0.19593   0.88024   0.41055   0.00000  Uiso   1.00
C441   C     0.16897   0.86314   0.07293   0.00000  Uiso   1.00
C442   C     0.25279   0.85990   0.06156   0.00000  Uiso   1.00
H443   H     0.28125   0.85593   0.07846   0.00000  Uiso   1.00
H444   H     0.24077   0.96405   0.20274   0.00000  Uiso   1.00
H445   H     0.09355   0.77742   0.17027   0.00000  Uiso   1.00
H446   H     0.06214   0.74285   0.22528   0.00000  Uiso   1.00
H447   H     0.04148   0.74957   0.16939   0.00000  Uiso   1.00
H448   H     0.32564   0.87396   0.44008   0.00000  Uiso   1.00
H449   H     0.31144   0.92470   0.47058   0.00000  Uiso   1.00
H450   H     0.00360   0.88665   0.00214   0.00000  Uiso   1.00
H451   H     0.13561   0.90811   0.13525   0.00000  Uiso   1.00
H452   H     0.11079   0.90568   0.08163   0.00000  Uiso   1.00
H453   H     0.09686   0.86478   0.13038   0.00000  Uiso   1.00
H454   H     0.23900   0.70642   0.20228   0.00000  Uiso   1.00
H455   H     0.09377   0.95855   0.30142   0.00000  Uiso   1.00
H456   H     0.29974   0.77590   0.20896   0.00000  Uiso   1.00
H457   H     0.03368   0.89136   0.28990   0.00000  Uiso   1.00
H458   H     0.26538   0.90119   0.40837   0.00000  Uiso   1.00
H459   H     0.09436   0.82125   0.06409   0.00000  Uiso   1.00
H460   H     0.03680   0.80069   0.02105   0.00000  Uiso   1.00
H461   H     0.20079   0.89233   0.37118   0.00000  Uiso   1.00
N462   N     0.04760   0.83334   0.25001   0.00000  Uiso   1.00
N463   N     0.28573   0.83331   0.25001   0.00000  Uiso   1.00
N464   N     0.04409   0.71964   0.33445   0.00000  Uiso   1.00
N465   N     0.26249   0.93586   0.30244   0.00000  Uiso   1.00
N466   N     0.01601   0.79253   0.40069   0.00000  Uiso   1.00
O467   O     0.12846   0.89442   0.25000   0.00000  Uiso   1.00
O468   O     0.20490   0.89441   0.25000   0.00000  Uiso   1.00
O469   O     0.10947   0.83333   0.32681   0.00000  Uiso   1.00
O470   O     0.18591   0.83332   0.32681   0.00000  Uiso   1.00
O471   O     0.12843   0.77226   0.24999   0.00000  Uiso   1.00
O472   O     0.20488   0.77225   0.25000   0.00000  Uiso   1.00
O473   O     0.14742   0.83335   0.17319   0.00000  Uiso   1.00
O474   O     0.22387   0.83334   0.17319   0.00000  Uiso   1.00
Zn475  Zn    0.11562   0.83334   0.25000   0.00000  Uiso   1.00
Zn476  Zn    0.21771   0.83333   0.25000   0.00000  Uiso   1.00
C477   C     0.50045   0.91320   0.25033   0.00000  Uiso   1.00
C478   C     0.45737   0.83865   0.41127   0.00000  Uiso   1.00
C479   C     0.54169   0.97958   0.22461   0.00000  Uiso   1.00
C480   C     0.47385   0.83501   0.35211   0.00000  Uiso   1.00
C481   C     0.54048   0.68899   0.22430   0.00000  Uiso   1.00
C482   C     0.49825   0.70897   0.25152   0.00000  Uiso   1.00
C483   C     0.45696   0.68615   0.27985   0.00000  Uiso   1.00
C484   C     0.45855   0.97672   0.27970   0.00000  Uiso   1.00
C485   C     0.50061   0.95719   0.25196   0.00000  Uiso   1.00
C486   C     0.64752   0.80131   0.22716   0.00000  Uiso   1.00
C487   C     0.36233   0.80146   0.22574   0.00000  Uiso   1.00
C488   C     0.47782   0.85081   0.49347   0.00000  Uiso   1.00
C489   C     0.35255   0.86550   0.27240   0.00000  Uiso   1.00
C490   C     0.63873   0.86629   0.27106   0.00000  Uiso   1.00
C491   C     0.49922   0.75334   0.25072   0.00000  Uiso   1.00
C492   C     0.52565   0.83812   0.14888   0.00000  Uiso   1.00
C493   C     0.59598   0.87541   0.00908   0.00000  Uiso   1.00
C494   C     0.53883   0.85270   0.09342   0.00000  Uiso   1.00
C495   C     0.41332   0.82028   0.44212   0.00000  Uiso   1.00
C496   C     0.40293   0.81602   0.49736   0.00000  Uiso   1.00
C497   C     0.43550   0.82935   0.02236   0.00000  Uiso   1.00
C498   C     0.41301   0.70505   0.31023   0.00000  Uiso   1.00
C499   C     0.48798   0.85683   0.43796   0.00000  Uiso   1.00
C500   C     0.39188   0.76611   0.19630   0.00000  Uiso   1.00
C501   C     0.61413   0.90440   0.28862   0.00000  Uiso   1.00
C502   C     0.64540   0.89091   0.47882   0.00000  Uiso   1.00
C503   C     0.45889   0.88635   0.10703   0.00000  Uiso   1.00
C504   C     0.37812   0.80458   0.41882   0.00000  Uiso   1.00
C505   C     0.51242   0.86309   0.01763   0.00000  Uiso   1.00
C506   C     0.55881   0.87514   0.48591   0.00000  Uiso   1.00
C507   C     0.56563   0.88701   0.43287   0.00000  Uiso   1.00
C508   C     0.52927   0.88024   0.41055   0.00000  Uiso   1.00
C509   C     0.50230   0.86314   0.07293   0.00000  Uiso   1.00
C510   C     0.58612   0.85990   0.06156   0.00000  Uiso   1.00
H511   H     0.61458   0.85593   0.07846   0.00000  Uiso   1.00
H512   H     0.57410   0.96405   0.20274   0.00000  Uiso   1.00
H513   H     0.42689   0.77742   0.17027   0.00000  Uiso   1.00
H514   H     0.39548   0.74285   0.22528   0.00000  Uiso   1.00
H515   H     0.37481   0.74957   0.16939   0.00000  Uiso   1.00
H516   H     0.65898   0.87396   0.44008   0.00000  Uiso   1.00
H517   H     0.64477   0.92470   0.47058   0.00000  Uiso   1.00
H518   H     0.33693   0.88665   0.00214   0.00000  Uiso   1.00
H519   H     0.46895   0.90811   0.13525   0.00000  Uiso   1.00
H520   H     0.44413   0.90568   0.08163   0.00000  Uiso   1.00
H521   H     0.43019   0.86478   0.13038   0.00000  Uiso   1.00
H522   H     0.57233   0.70642   0.20228   0.00000  Uiso   1.00
H523   H     0.42710   0.95855   0.30142   0.00000  Uiso   1.00
H524   H     0.63307   0.77590   0.20896   0.00000  Uiso   1.00
H525   H     0.36701   0.89136   0.28990   0.00000  Uiso   1.00
H526   H     0.59872   0.90119   0.40837   0.00000  Uiso   1.00
H527   H     0.42769   0.82125   0.06409   0.00000  Uiso   1.00
H528   H     0.37014   0.80069   0.02105   0.00000  Uiso   1.00
H529   H     0.53413   0.89233   0.37118   0.00000  Uiso   1.00
N530   N     0.38093   0.83334   0.25001   0.00000  Uiso   1.00
N531   N     0.61906   0.83331   0.25001   0.00000  Uiso   1.00
N532   N     0.37742   0.71964   0.33445   0.00000  Uiso   1.00
N533   N     0.59583   0.93586   0.30244   0.00000  Uiso   1.00
N534   N     0.34935   0.79253   0.40069   0.00000  Uiso   1.00
O535   O     0.46179   0.89442   0.25000   0.00000  Uiso   1.00
O536   O     0.53823   0.89441   0.25000   0.00000  Uiso   1.00
O537   O     0.44280   0.83333   0.32681   0.00000  Uiso   1.00
O538   O     0.51924   0.83332   0.32681   0.00000  Uiso   1.00
O539   O     0.46177   0.77226   0.24999   0.00000  Uiso   1.00
O540   O     0.53821   0.77225   0.25000   0.00000  Uiso   1.00
O541   O     0.48076   0.83335   0.17319   0.00000  Uiso   1.00
O542   O     0.55720   0.83334   0.17319   0.00000  Uiso   1.00
Zn543  Zn    0.44896   0.83334   0.25000   0.00000  Uiso   1.00
Zn544  Zn    0.55104   0.83333   0.25000   0.00000  Uiso   1.00
C545   C     0.83378   0.91320   0.25033   0.00000  Uiso   1.00
C546   C     0.79070   0.83865   0.41127   0.00000  Uiso   1.00
C547   C     0.87503   0.97958   0.22461   0.00000  Uiso   1.00
C548   C     0.80719   0.83501   0.35211   0.00000  Uiso   1.00
C549   C     0.87381   0.68899   0.22430   0.00000  Uiso   1.00
C550   C     0.83158   0.70897   0.25152   0.00000  Uiso   1.00
C551   C     0.79029   0.68615   0.27985   0.00000  Uiso   1.00
C552   C     0.79188   0.97672   0.27970   0.00000  Uiso   1.00
C553   C     0.83394   0.95719   0.25196   0.00000  Uiso   1.00
C554   C     0.98085   0.80131   0.22716   0.00000  Uiso   1.00
C555   C     0.69566   0.80146   0.22574   0.00000  Uiso   1.00
C556   C     0.81115   0.85081   0.49347   0.00000  Uiso   1.00
C557   C     0.68588   0.86550   0.27240   0.00000  Uiso   1.00
C558   C     0.97206   0.86629   0.27106   0.00000  Uiso   1.00
C559   C     0.83255   0.75334   0.25072   0.00000  Uiso   1.00
C560   C     0.85899   0.83812   0.14888   0.00000  Uiso   1.00
C561   C     0.92932   0.87541   0.00908   0.00000  Uiso   1.00
C562   C     0.87217   0.85270   0.09342   0.00000  Uiso   1.00
C563   C     0.74665   0.82028   0.44212   0.00000  Uiso   1.00
C564   C     0.73626   0.81602   0.49736   0.00000  Uiso   1.00
C565   C     0.76883   0.82935   0.02236   0.00000  Uiso   1.00
C566   C     0.74635   0.70505   0.31023   0.00000  Uiso   1.00
C567   C     0.82131   0.85683   0.43796   0.00000  Uiso   1.00
C568   C     0.72521   0.76611   0.19630   0.00000  Uiso   1.00
C569   C     0.94746   0.90440   0.28862   0.00000  Uiso   1.00
C570   C     0.97873   0.89091   0.47882   0.00000  Uiso   1.00
C571   C     0.79223   0.88635   0.10703   0.00000  Uiso   1.00
C572   C     0.71146   0.80458   0.41882   0.00000  Uiso   1.00
C573   C     0.84576   0.86309   0.01763   0.00000  Uiso   1.00
C574   C     0.89214   0.87514   0.48591   0.00000  Uiso   1.00
C575   C     0.89896   0.88701   0.43287   0.00000  Uiso   1.00
C576   C     0.86260   0.88024   0.41055   0.00000  Uiso   1.00
C577   C     0.83564   0.86314   0.07293   0.00000  Uiso   1.00
C578   C     0.91945   0.85990   0.06156   0.00000  Uiso   1.00
H579   H     0.94792   0.85593   0.07846   0.00000  Uiso   1.00
H580   H     0.90744   0.96405   0.20274   0.00000  Uiso   1.00
H581   H     0.76022   0.77742   0.17027   0.00000  Uiso   1.00
H582   H     0.72881   0.74285   0.22528   0.00000  Uiso   1.00
H583   H     0.70814   0.74957   0.16939   0.00000  Uiso   1.00
H584   H     0.99231   0.87396   0.44008   0.00000  Uiso   1.00
H585   H     0.97810   0.92470   0.47058   0.00000  Uiso   1.00
H586   H     0.67026   0.88665   0.00214   0.00000  Uiso   1.00
H587   H     0.80228   0.90811   0.13525   0.00000  Uiso   1.00
H588   H     0.77746   0.90568   0.08163   0.00000  Uiso   1.00
H589   H     0.76352   0.86478   0.13038   0.00000  Uiso   1.00
H590   H     0.90566   0.70642   0.20228   0.00000  Uiso   1.00
H591   H     0.76043   0.95855   0.30142   0.00000  Uiso   1.00
H592   H     0.96641   0.77590   0.20896   0.00000  Uiso   1.00
H593   H     0.70034   0.89136   0.28990   0.00000  Uiso   1.00
H594   H     0.93205   0.90119   0.40837   0.00000  Uiso   1.00
H595   H     0.76102   0.82125   0.06409   0.00000  Uiso   1.00
H596   H     0.70347   0.80069   0.02105   0.00000  Uiso   1.00
H597   H     0.86746   0.89233   0.37118   0.00000  Uiso   1.00
N598   N     0.71426   0.83334   0.25001   0.00000  Uiso   1.00
N599   N     0.95239   0.83331   0.25001   0.00000  Uiso   1.00
N600   N     0.71075   0.71964   0.33445   0.00000  Uiso   1.00
N601   N     0.92916   0.93586   0.30244   0.00000  Uiso   1.00
N602   N     0.68268   0.79253   0.40069   0.00000  Uiso   1.00
O603   O     0.79512   0.89442   0.25000   0.00000  Uiso   1.00
O604   O     0.87157   0.89441   0.25000   0.00000  Uiso   1.00
O605   O     0.77613   0.83333   0.32681   0.00000  Uiso   1.00
O606   O     0.85258   0.83332   0.32681   0.00000  Uiso   1.00
O607   O     0.79510   0.77226   0.24999   0.00000  Uiso   1.00
O608   O     0.87154   0.77225   0.25000   0.00000  Uiso   1.00
O609   O     0.81409   0.83335   0.17319   0.00000  Uiso   1.00
O610   O     0.89053   0.83334   0.17319   0.00000  Uiso   1.00
Zn611  Zn    0.78229   0.83334   0.25000   0.00000  Uiso   1.00
Zn612  Zn    0.88438   0.83333   0.25000   0.00000  Uiso   1.00
C613   C     0.16711   0.24653   0.75033   0.00000  Uiso   1.00
C614   C     0.12403   0.17198   0.91127   0.00000  Uiso   1.00
C615   C     0.20836   0.31292   0.72461   0.00000  Uiso   1.00
C616   C     0.14052   0.16834   0.85211   0.00000  Uiso   1.00
C617   C     0.20715   0.02232   0.72430   0.00000  Uiso   1.00
C618   C     0.16491   0.04230   0.75152   0.00000  Uiso   1.00
C619   C     0.12363   0.01949   0.77985   0.00000  Uiso   1.00
C620   C     0.12522   0.31006   0.77970   0.00000  Uiso   1.00
C621   C     0.16728   0.29053   0.75196   0.00000  Uiso   1.00
C622   C     0.31419   0.13464   0.72716   0.00000  Uiso   1.00
C623   C     0.02899   0.13480   0.72574   0.00000  Uiso   1.00
C624   C     0.14448   0.18415   0.99347   0.00000  Uiso   1.00
C625   C     0.01922   0.19884   0.77240   0.00000  Uiso   1.00
C626   C     0.30539   0.19962   0.77106   0.00000  Uiso   1.00
C627   C     0.16588   0.08668   0.75072   0.00000  Uiso   1.00
C628   C     0.19232   0.17145   0.64888   0.00000  Uiso   1.00
C629   C     0.26265   0.20874   0.50908   0.00000  Uiso   1.00
C630   C     0.20550   0.18604   0.59342   0.00000  Uiso   1.00
C631   C     0.07998   0.15361   0.94212   0.00000  Uiso   1.00
C632   C     0.06959   0.14935   0.99736   0.00000  Uiso   1.00
C633   C     0.10217   0.16268   0.52236   0.00000  Uiso   1.00
C634   C     0.07968   0.03839   0.81023   0.00000  Uiso   1.00
C635   C     0.15465   0.19016   0.93796   0.00000  Uiso   1.00
C636   C     0.05855   0.09945   0.69630   0.00000  Uiso   1.00
C637   C     0.28079   0.23773   0.78862   0.00000  Uiso   1.00
C638   C     0.31207   0.22424   0.97882   0.00000  Uiso   1.00
C639   C     0.12556   0.21968   0.60703   0.00000  Uiso   1.00
C640   C     0.04479   0.13792   0.91882   0.00000  Uiso   1.00
C641   C     0.17909   0.19643   0.51763   0.00000  Uiso   1.00
C642   C     0.22547   0.20848   0.98591   0.00000  Uiso   1.00
C643   C     0.23230   0.22035   0.93287   0.00000  Uiso   1.00
C644   C     0.19593   0.21357   0.91055   0.00000  Uiso   1.00
C645   C     0.16897   0.19648   0.57293   0.00000  Uiso   1.00
C646   C     0.25279   0.19323   0.56156   0.00000  Uiso   1.00
H647   H     0.28125   0.18927   0.57846   0.00000  Uiso   1.00
H648   H     0.24077   0.29738   0.70274   0.00000  Uiso   1.00
H649   H     0.09355   0.11075   0.67027   0.00000  Uiso   1.00
H650   H     0.06214   0.07618   0.72528   0.00000  Uiso   1.00
H651   H     0.04148   0.08291   0.66939   0.00000  Uiso   1.00
H652   H     0.32564   0.20730   0.94008   0.00000  Uiso   1.00
H653   H     0.31144   0.25804   0.97058   0.00000  Uiso   1.00
H654   H     0.00360   0.21998   0.50214   0.00000  Uiso   1.00
H655   H     0.13561   0.24145   0.63525   0.00000  Uiso   1.00
H656   H     0.11079   0.23902   0.58163   0.00000  Uiso   1.00
H657   H     0.09686   0.19812   0.63038   0.00000  Uiso   1.00
H658   H     0.23900   0.03975   0.70228   0.00000  Uiso   1.00
H659   H     0.09377   0.29188   0.80142   0.00000  Uiso   1.00
H660   H     0.29974   0.10923   0.70896   0.00000  Uiso   1.00
H661   H     0.03368   0.22469   0.78990   0.00000  Uiso   1.00
H662   H     0.26538   0.23452   0.90837   0.00000  Uiso   1.00
H663   H     0.09436   0.15458   0.56409   0.00000  Uiso   1.00
H664   H     0.03680   0.13403   0.52105   0.00000  Uiso   1.00
H665   H     0.20079   0.22567   0.87118   0.00000  Uiso   1.00
N666   N     0.04760   0.16668   0.75001   0.00000  Uiso   1.00
N667   N     0.28573   0.16665   0.75001   0.00000  Uiso   1.00
N668   N     0.04409   0.05297   0.83445   0.00000  Uiso   1.00
N669   N     0.26249   0.26919   0.80244   0.00000  Uiso   1.00
N670   N     0.01601   0.12586   0.90069   0.00000  Uiso   1.00
O671   O     0.12846   0.22775   0.75000   0.00000  Uiso   1.00
O672   O     0.20490   0.22774   0.75000   0.00000  Uiso   1.00
O673   O     0.10947   0.16666   0.82681   0.00000  Uiso   1.00
O674   O     0.18591   0.16665   0.82681   0.00000  Uiso   1.00
O675   O     0.12843   0.10559   0.74999   0.00000  Uiso   1.00
O676   O     0.20488   0.10558   0.75000   0.00000  Uiso   1.00
O677   O     0.14742   0.16668   0.67319   0.00000  Uiso   1.00
O678   O     0.22387   0.16667   0.67319   0.00000  Uiso   1.00
Zn679  Zn    0.11562   0.16667   0.75000   0.00000  Uiso   1.00
Zn680  Zn    0.21771   0.16666   0.75000   0.00000  Uiso   1.00
C681   C     0.50045   0.24653   0.75033   0.00000  Uiso   1.00
C682   C     0.45737   0.17198   0.91127   0.00000  Uiso   1.00
C683   C     0.54169   0.31292   0.72461   0.00000  Uiso   1.00
C684   C     0.47385   0.16834   0.85211   0.00000  Uiso   1.00
C685   C     0.54048   0.02232   0.72430   0.00000  Uiso   1.00
C686   C     0.49825   0.04230   0.75152   0.00000  Uiso   1.00
C687   C     0.45696   0.01949   0.77985   0.00000  Uiso   1.00
C688   C     0.45855   0.31006   0.77970   0.00000  Uiso   1.00
C689   C     0.50061   0.29053   0.75196   0.00000  Uiso   1.00
C690   C     0.64752   0.13464   0.72716   0.00000  Uiso   1.00
C691   C     0.36233   0.13480   0.72574   0.00000  Uiso   1.00
C692   C     0.47782   0.18415   0.99347   0.00000  Uiso   1.00
C693   C     0.35255   0.19884   0.77240   0.00000  Uiso   1.00
C694   C     0.63873   0.19962   0.77106   0.00000  Uiso   1.00
C695   C     0.49922   0.08668   0.75072   0.00000  Uiso   1.00
C696   C     0.52565   0.17145   0.64888   0.00000  Uiso   1.00
C697   C     0.59598   0.20874   0.50908   0.00000  Uiso   1.00
C698   C     0.53883   0.18604   0.59342   0.00000  Uiso   1.00
C699   C     0.41332   0.15361   0.94212   0.00000  Uiso   1.00
C700   C     0.40293   0.14935   0.99736   0.00000  Uiso   1.00
C701   C     0.43550   0.16268   0.52236   0.00000  Uiso   1.00
C702   C     0.41301   0.03839   0.81023   0.00000  Uiso   1.00
C703   C     0.48798   0.19016   0.93796   0.00000  Uiso   1.00
C704   C     0.39188   0.09945   0.69630   0.00000  Uiso   1.00
C705   C     0.61413   0.23773   0.78862   0.00000  Uiso   1.00
C706   C     0.64540   0.22424   0.97882   0.00000  Uiso   1.00
C707   C     0.45889   0.21968   0.60703   0.00000  Uiso   1.00
C708   C     0.37812   0.13792   0.91882   0.00000  Uiso   1.00
C709   C     0.51242   0.19643   0.51763   0.00000  Uiso   1.00
C710   C     0.55881   0.20848   0.98591   0.00000  Uiso   1.00
C711   C     0.56563   0.22035   0.93287   0.00000  Uiso   1.00
C712   C     0.52927   0.21357   0.91055   0.00000  Uiso   1.00
C713   C     0.50230   0.19648   0.57293   0.00000  Uiso   1.00
C714   C     0.58612   0.19323   0.56156   0.00000  Uiso   1.00
H715   H     0.61458   0.18927   0.57846   0.00000  Uiso   1.00
H716   H     0.57410   0.29738   0.70274   0.00000  Uiso   1.00
H717   H     0.42689   0.11075   0.67027   0.00000  Uiso   1.00
H718   H     0.39548   0.07618   0.72528   0.00000  Uiso   1.00
H719   H     0.37481   0.08291   0.66939   0.00000  Uiso   1.00
H720   H     0.65898   0.20730   0.94008   0.00000  Uiso   1.00
H721   H     0.64477   0.25804   0.97058   0.00000  Uiso   1.00
H722   H     0.33693   0.21998   0.50214   0.00000  Uiso   1.00
H723   H     0.46895   0.24145   0.63525   0.00000  Uiso   1.00
H724   H     0.44413   0.23902   0.58163   0.00000  Uiso   1.00
H725   H     0.43019   0.19812   0.63038   0.00000  Uiso   1.00
H726   H     0.57233   0.03975   0.70228   0.00000  Uiso   1.00
H727   H     0.42710   0.29188   0.80142   0.00000  Uiso   1.00
H728   H     0.63307   0.10923   0.70896   0.00000  Uiso   1.00
H729   H     0.36701   0.22469   0.78990   0.00000  Uiso   1.00
H730   H     0.59872   0.23452   0.90837   0.00000  Uiso   1.00
H731   H     0.42769   0.15458   0.56409   0.00000  Uiso   1.00
H732   H     0.37014   0.13403   0.52105   0.00000  Uiso   1.00
H733   H     0.53413   0.22567   0.87118   0.00000  Uiso   1.00
N734   N     0.38093   0.16668   0.75001   0.00000  Uiso   1.00
N735   N     0.61906   0.16665   0.75001   0.00000  Uiso   1.00
N736   N     0.37742   0.05297   0.83445   0.00000  Uiso   1.00
N737   N     0.59583   0.26919   0.80244   0.00000  Uiso   1.00
N738   N     0.34935   0.12586   0.90069   0.00000  Uiso   1.00
O739   O     0.46179   0.22775   0.75000   0.00000  Uiso   1.00
O740   O     0.53823   0.22774   0.75000   0.00000  Uiso   1.00
O741   O     0.44280   0.16666   0.82681   0.00000  Uiso   1.00
O742   O     0.51924   0.16665   0.82681   0.00000  Uiso   1.00
O743   O     0.46177   0.10559   0.74999   0.00000  Uiso   1.00
O744   O     0.53821   0.10558   0.75000   0.00000  Uiso   1.00
O745   O     0.48076   0.16668   0.67319   0.00000  Uiso   1.00
O746   O     0.55720   0.16667   0.67319   0.00000  Uiso   1.00
Zn747  Zn    0.44896   0.16667   0.75000   0.00000  Uiso   1.00
Zn748  Zn    0.55104   0.16666   0.75000   0.00000  Uiso   1.00
C749   C     0.83378   0.24653   0.75033   0.00000  Uiso   1.00
C750   C     0.79070   0.17198   0.91127   0.00000  Uiso   1.00
C751   C     0.87503   0.31292   0.72461   0.00000  Uiso   1.00
C752   C     0.80719   0.16834   0.85211   0.00000  Uiso   1.00
C753   C     0.87381   0.02232   0.72430   0.00000  Uiso   1.00
C754   C     0.83158   0.04230   0.75152   0.00000  Uiso   1.00
C755   C     0.79029   0.01949   0.77985   0.00000  Uiso   1.00
C756   C     0.79188   0.31006   0.77970   0.00000  Uiso   1.00
C757   C     0.83394   0.29053   0.75196   0.00000  Uiso   1.00
C758   C     0.98085   0.13464   0.72716   0.00000  Uiso   1.00
C759   C     0.69566   0.13480   0.72574   0.00000  Uiso   1.00
C760   C     0.81115   0.18415   0.99347   0.00000  Uiso   1.00
C761   C     0.68588   0.19884   0.77240   0.00000  Uiso   1.00
C762   C     0.97206   0.19962   0.77106   0.00000  Uiso   1.00
C763   C     0.83255   0.08668   0.75072   0.00000  Uiso   1.00
C764   C     0.85899   0.17145   0.64888   0.00000  Uiso   1.00
C765   C     0.92932   0.20874   0.50908   0.00000  Uiso   1.00
C766   C     0.87217   0.18604   0.59342   0.00000  Uiso   1.00
C767   C     0.74665   0.15361   0.94212   0.00000  Uiso   1.00
C768   C     0.73626   0.14935   0.99736   0.00000  Uiso   1.00
C769   C     0.76883   0.16268   0.52236   0.00000  Uiso   1.00
C770   C     0.74635   0.03839   0.81023   0.00000  Uiso   1.00
C771   C     0.82131   0.19016   0.93796   0.00000  Uiso   1.00
C772   C     0.72521   0.09945   0.69630   0.00000  Uiso   1.00
C773   C     0.94746   0.23773   0.78862   0.00000  Uiso   1.00
C774   C     0.97873   0.22424   0.97882   0.00000  Uiso   1.00
C775   C     0.79223   0.21968   0.60703   0.00000  Uiso   1.00
C776   C     0.71146   0.13792   0.91882   0.00000  Uiso   1.00
C777   C     0.84576   0.19643   0.51763   0.00000  Uiso   1.00
C778   C     0.89214   0.20848   0.98591   0.00000  Uiso   1.00
C779   C     0.89896   0.22035   0.93287   0.00000  Uiso   1.00
C780   C     0.86260   0.21357   0.91055   0.00000  Uiso   1.00
C781   C     0.83564   0.19648   0.57293   0.00000  Uiso   1.00
C782   C     0.91945   0.19323   0.56156   0.00000  Uiso   1.00
H783   H     0.94792   0.18927   0.57846   0.00000  Uiso   1.00
H784   H     0.90744   0.29738   0.70274   0.00000  Uiso   1.00
H785   H     0.76022   0.11075   0.67027   0.00000  Uiso   1.00
H786   H     0.72881   0.07618   0.72528   0.00000  Uiso   1.00
H787   H     0.70814   0.08291   0.66939   0.00000  Uiso   1.00
H788   H     0.99231   0.20730   0.94008   0.00000  Uiso   1.00
H789   H     0.97810   0.25804   0.97058   0.00000  Uiso   1.00
H790   H     0.67026   0.21998   0.50214   0.00000  Uiso   1.00
H791   H     0.80228   0.24145   0.63525   0.00000  Uiso   1.00
H792   H     0.77746   0.23902   0.58163   0.00000  Uiso   1.00
H793   H     0.76352   0.19812   0.63038   0.00000  Uiso   1.00
H794   H     0.90566   0.03975   0.70228   0.00000  Uiso   1.00
H795   H     0.76043   0.29188   0.80142   0.00000  Uiso   1.00
H796   H     0.96641   0.10923   0.70896   0.00000  Uiso   1.00
H797   H     0.70034   0.22469   0.78990   0.00000  Uiso   1.00
H798   H     0.93205   0.23452   0.90837   0.00000  Uiso   1.00
H799   H     0.76102   0.15458   0.56409   0.00000  Uiso   1.00
H800   H     0.70347   0.13403   0.52105   0.00000  Uiso   1.00
H801   H     0.86746   0.22567   0.87118   0.00000  Uiso   1.00
N802   N     0.71426   0.16668   0.75001   0.00000  Uiso   1.00
N803   N     0.95239   0.16665   0.75001   0.00000  Uiso   1.00
N804   N     0.71075   0.05297   0.83445   0.00000  Uiso   1.00
N805   N     0.92916   0.26919   0.80244   0.00000  Uiso   1.00
N806   N     0.68268   0.12586   0.90069   0.00000  Uiso   1.00
O807   O     0.79512   0.22775   0.75000   0.00000  Uiso   1.00
O808   O     0.87157   0.22774   0.75000   0.00000  Uiso   1.00
O809   O     0.77613   0.16666   0.82681   0.00000  Uiso   1.00
O810   O     0.85258   0.16665   0.82681   0.00000  Uiso   1.00
O811   O     0.79510   0.10559   0.74999   0.00000  Uiso   1.00
O812   O     0.87154   0.10558   0.75000   0.00000  Uiso   1.00
O813   O     0.81409   0.16668   0.67319   0.00000  Uiso   1.00
O814   O     0.89053   0.16667   0.67319   0.00000  Uiso   1.00
Zn815  Zn    0.78229   0.16667   0.75000   0.00000  Uiso   1.00
Zn816  Zn    0.88438   0.16666   0.75000   0.00000  Uiso   1.00
C817   C     0.16711   0.57986   0.75033   0.00000  Uiso   1.00
C818   C     0.12403   0.50531   0.91127   0.00000  Uiso   1.00
C819   C     0.20836   0.64625   0.72461   0.00000  Uiso   1.00
C820   C     0.14052   0.50167   0.85211   0.00000  Uiso   1.00
C821   C     0.20715   0.35565   0.72430   0.00000  Uiso   1.00
C822   C     0.16491   0.37564   0.75152   0.00000  Uiso   1.00
C823   C     0.12363   0.35282   0.77985   0.00000  Uiso   1.00
C824   C     0.12522   0.64339   0.77970   0.00000  Uiso   1.00
C825   C     0.16728   0.62386   0.75196   0.00000  Uiso   1.00
C826   C     0.31419   0.46797   0.72716   0.00000  Uiso   1.00
C827   C     0.02899   0.46813   0.72574   0.00000  Uiso   1.00
C828   C     0.14448   0.51748   0.99347   0.00000  Uiso   1.00
C829   C     0.01922   0.53217   0.77240   0.00000  Uiso   1.00
C830   C     0.30539   0.53295   0.77106   0.00000  Uiso   1.00
C831   C     0.16588   0.42001   0.75072   0.00000  Uiso   1.00
C832   C     0.19232   0.50478   0.64888   0.00000  Uiso   1.00
C833   C     0.26265   0.54208   0.50908   0.00000  Uiso   1.00
C834   C     0.20550   0.51937   0.59342   0.00000  Uiso   1.00
C835   C     0.07998   0.48694   0.94212   0.00000  Uiso   1.00
C836   C     0.06959   0.48269   0.99736   0.00000  Uiso   1.00
C837   C     0.10217   0.49601   0.52236   0.00000  Uiso   1.00
C838   C     0.07968   0.37172   0.81023   0.00000  Uiso   1.00
C839   C     0.15465   0.52350   0.93796   0.00000  Uiso   1.00
C840   C     0.05855   0.43278   0.69630   0.00000  Uiso   1.00
C841   C     0.28079   0.57106   0.78862   0.00000  Uiso   1.00
C842   C     0.31207   0.55757   0.97882   0.00000  Uiso   1.00
C843   C     0.12556   0.55301   0.60703   0.00000  Uiso   1.00
C844   C     0.04479   0.47125   0.91882   0.00000  Uiso   1.00
C845   C     0.17909   0.52976   0.51763   0.00000  Uiso   1.00
C846   C     0.22547   0.54181   0.98591   0.00000  Uiso   1.00
C847   C     0.23230   0.55368   0.93287   0.00000  Uiso   1.00
C848   C     0.19593   0.54690   0.91055   0.00000  Uiso   1.00
C849   C     0.16897   0.52981   0.57293   0.00000  Uiso   1.00
C850   C     0.25279   0.52657   0.56156   0.00000  Uiso   1.00
H851   H     0.28125   0.52260   0.57846   0.00000  Uiso   1.00
H852   H     0.24077   0.63072   0.70274   0.00000  Uiso   1.00
H853   H     0.09355   0.44409   0.67027   0.00000  Uiso   1.00
H854   H     0.06214   0.40952   0.72528   0.00000  Uiso   1.00
H855   H     0.04148   0.41624   0.66939   0.00000  Uiso   1.00
H856   H     0.32564   0.54063   0.94008   0.00000  Uiso   1.00
H857   H     0.31144   0.59137   0.97058   0.00000  Uiso   1.00
H858   H     0.00360   0.55331   0.50214   0.00000  Uiso   1.00
H859   H     0.13561   0.57478   0.63525   0.00000  Uiso   1.00
H860   H     0.11079   0.57235   0.58163   0.00000  Uiso   1.00
H861   H     0.09686   0.53145   0.63038   0.00000  Uiso   1.00
H862   H     0.23900   0.37308   0.70228   0.00000  Uiso   1.00
H863   H     0.09377   0.62521   0.80142   0.00000  Uiso   1.00
H864   H     0.29974   0.44256   0.70896   0.00000  Uiso   1.00
H865   H     0.03368   0.55802   0.78990   0.00000  Uiso   1.00
H866   H     0.26538   0.56785   0.90837   0.00000  Uiso   1.00
H867   H     0.09436   0.48792   0.56409   0.00000  Uiso   1.00
H868   H     0.03680   0.46736   0.52105   0.00000  Uiso   1.00
H869   H     0.20079   0.55900   0.87118   0.00000  Uiso   1.00
N870   N     0.04760   0.50001   0.75001   0.00000  Uiso   1.00
N871   N     0.28573   0.49998   0.75001   0.00000  Uiso   1.00
N872   N     0.04409   0.38631   0.83445   0.00000  Uiso   1.00
N873   N     0.26249   0.60252   0.80244   0.00000  Uiso   1.00
N874   N     0.01601   0.45919   0.90069   0.00000  Uiso   1.00
O875   O     0.12846   0.56108   0.75000   0.00000  Uiso   1.00
O876   O     0.20490   0.56107   0.75000   0.00000  Uiso   1.00
O877   O     0.10947   0.50000   0.82681   0.00000  Uiso   1.00
O878   O     0.18591   0.49999   0.82681   0.00000  Uiso   1.00
O879   O     0.12843   0.43893   0.74999   0.00000  Uiso   1.00
O880   O     0.20488   0.43892   0.75000   0.00000  Uiso   1.00
O881   O     0.14742   0.50001   0.67319   0.00000  Uiso   1.00
O882   O     0.22387   0.50000   0.67319   0.00000  Uiso   1.00
Zn883  Zn    0.11562   0.50001   0.75000   0.00000  Uiso   1.00
Zn884  Zn    0.21771   0.49999   0.75000   0.00000  Uiso   1.00
C885   C     0.50045   0.57986   0.75033   0.00000  Uiso   1.00
C886   C     0.45737   0.50531   0.91127   0.00000  Uiso   1.00
C887   C     0.54169   0.64625   0.72461   0.00000  Uiso   1.00
C888   C     0.47385   0.50167   0.85211   0.00000  Uiso   1.00
C889   C     0.54048   0.35565   0.72430   0.00000  Uiso   1.00
C890   C     0.49825   0.37564   0.75152   0.00000  Uiso   1.00
C891   C     0.45696   0.35282   0.77985   0.00000  Uiso   1.00
C892   C     0.45855   0.64339   0.77970   0.00000  Uiso   1.00
C893   C     0.50061   0.62386   0.75196   0.00000  Uiso   1.00
C894   C     0.64752   0.46797   0.72716   0.00000  Uiso   1.00
C895   C     0.36233   0.46813   0.72574   0.00000  Uiso   1.00
C896   C     0.47782   0.51748   0.99347   0.00000  Uiso   1.00
C897   C     0.35255   0.53217   0.77240   0.00000  Uiso   1.00
C898   C     0.63873   0.53295   0.77106   0.00000  Uiso   1.00
C899   C     0.49922   0.42001   0.75072   0.00000  Uiso   1.00
C900   C     0.52565   0.50478   0.64888   0.00000  Uiso   1.00
C901   C     0.59598   0.54208   0.50908   0.00000  Uiso   1.00
C902   C     0.53883   0.51937   0.59342   0.00000  Uiso   1.00
C903   C     0.41332   0.48694   0.94212   0.00000  Uiso   1.00
C904   C     0.40293   0.48269   0.99736   0.00000  Uiso   1.00
C905   C     0.43550   0.49601   0.52236   0.00000  Uiso   1.00
C906   C     0.41301   0.37172   0.81023   0.00000  Uiso   1.00
C907   C     0.48798   0.52350   0.93796   0.00000  Uiso   1.00
C908   C     0.39188   0.43278   0.69630   0.00000  Uiso   1.00
C909   C     0.61413   0.57106   0.78862   0.00000  Uiso   1.00
C910   C     0.64540   0.55757   0.97882   0.00000  Uiso   1.00
C911   C     0.45889   0.55301   0.60703   0.00000  Uiso   1.00
C912   C     0.37812   0.47125   0.91882   0.00000  Uiso   1.00
C913   C     0.51242   0.52976   0.51763   0.00000  Uiso   1.00
C914   C     0.55881   0.54181   0.98591   0.00000  Uiso   1.00
C915   C     0.56563   0.55368   0.93287   0.00000  Uiso   1.00
C916   C     0.52927   0.54690   0.91055   0.00000  Uiso   1.00
C917   C     0.50230   0.52981   0.57293   0.00000  Uiso   1.00
C918   C     0.58612   0.52657   0.56156   0.00000  Uiso   1.00
H919   H     0.61458   0.52260   0.57846   0.00000  Uiso   1.00
H920   H     0.57410   0.63072   0.70274   0.00000  Uiso   1.00
H921   H     0.42689   0.44409   0.67027   0.00000  Uiso   1.00
H922   H     0.39548   0.40952   0.72528   0.00000  Uiso   1.00
H923   H     0.37481   0.41624   0.66939   0.00000  Uiso   1.00
H924   H     0.65898   0.54063   0.94008   0.00000  Uiso   1.00
H925   H     0.64477   0.59137   0.97058   0.00000  Uiso   1.00
H926   H     0.33693   0.55331   0.50214   0.00000  Uiso   1.00
H927   H     0.46895   0.57478   0.63525   0.00000  Uiso   1.00
H928   H     0.44413   0.57235   0.58163   0.00000  Uiso   1.00
H929   H     0.43019   0.53145   0.63038   0.00000  Uiso   1.00
H930   H     0.57233   0.37308   0.70228   0.00000  Uiso   1.00
H931   H     0.42710   0.62521   0.80142   0.00000  Uiso   1.00
H932   H     0.63307   0.44256   0.70896   0.00000  Uiso   1.00
H933   H     0.36701   0.55802   0.78990   0.00000  Uiso   1.00
H934   H     0.59872   0.56785   0.90837   0.00000  Uiso   1.00
H935   H     0.42769   0.48792   0.56409   0.00000  Uiso   1.00
H936   H     0.37014   0.46736   0.52105   0.00000  Uiso   1.00
H937   H     0.53413   0.55900   0.87118   0.00000  Uiso   1.00
N938   N     0.38093   0.50001   0.75001   0.00000  Uiso   1.00
N939   N     0.61906   0.49998   0.75001   0.00000  Uiso   1.00
N940   N     0.37742   0.38631   0.83445   0.00000  Uiso   1.00
N941   N     0.59583   0.60252   0.80244   0.00000  Uiso   1.00
N942   N     0.34935   0.45919   0.90069   0.00000  Uiso   1.00
O943   O     0.46179   0.56108   0.75000   0.00000  Uiso   1.00
O944   O     0.53823   0.56107   0.75000   0.00000  Uiso   1.00
O945   O     0.44280   0.50000   0.82681   0.00000  Uiso   1.00
O946   O     0.51924   0.49999   0.82681   0.00000  Uiso   1.00
O947   O     0.46177   0.43893   0.74999   0.00000  Uiso   1.00
O948   O     0.53821   0.43892   0.75000   0.00000  Uiso   1.00
O949   O     0.48076   0.50001   0.67319   0.00000  Uiso   1.00
O950   O     0.55720   0.50000   0.67319   0.00000  Uiso   1.00
Zn951  Zn    0.44896   0.50001   0.75000   0.00000  Uiso   1.00
Zn952  Zn    0.55104   0.49999   0.75000   0.00000  Uiso   1.00
C953   C     0.83378   0.57986   0.75033   0.00000  Uiso   1.00
C954   C     0.79070   0.50531   0.91127   0.00000  Uiso   1.00
C955   C     0.87503   0.64625   0.72461   0.00000  Uiso   1.00
C956   C     0.80719   0.50167   0.85211   0.00000  Uiso   1.00
C957   C     0.87381   0.35565   0.72430   0.00000  Uiso   1.00
C958   C     0.83158   0.37564   0.75152   0.00000  Uiso   1.00
C959   C     0.79029   0.35282   0.77985   0.00000  Uiso   1.00
C960   C     0.79188   0.64339   0.77970   0.00000  Uiso   1.00
C961   C     0.83394   0.62386   0.75196   0.00000  Uiso   1.00
C962   C     0.98085   0.46797   0.72716   0.00000  Uiso   1.00
C963   C     0.69566   0.46813   0.72574   0.00000  Uiso   1.00
C964   C     0.81115   0.51748   0.99347   0.00000  Uiso   1.00
C965   C     0.68588   0.53217   0.77240   0.00000  Uiso   1.00
C966   C     0.97206   0.53295   0.77106   0.00000  Uiso   1.00
C967   C     0.83255   0.42001   0.75072   0.00000  Uiso   1.00
C968   C     0.85899   0.50478   0.64888   0.00000  Uiso   1.00
C969   C     0.92932   0.54208   0.50908   0.00000  Uiso   1.00
C970   C     0.87217   0.51937   0.59342   0.00000  Uiso   1.00
C971   C     0.74665   0.48694   0.94212   0.00000  Uiso   1.00
C972   C     0.73626   0.48269   0.99736   0.00000  Uiso   1.00
C973   C     0.76883   0.49601   0.52236   0.00000  Uiso   1.00
C974   C     0.74635   0.37172   0.81023   0.00000  Uiso   1.00
C975   C     0.82131   0.52350   0.93796   0.00000  Uiso   1.00
C976   C     0.72521   0.43278   0.69630   0.00000  Uiso   1.00
C977   C     0.94746   0.57106   0.78862   0.00000  Uiso   1.00
C978   C     0.97873   0.55757   0.97882   0.00000  Uiso   1.00
C979   C     0.79223   0.55301   0.60703   0.00000  Uiso   1.00
C980   C     0.71146   0.47125   0.91882   0.00000  Uiso   1.00
C981   C     0.84576   0.52976   0.51763   0.00000  Uiso   1.00
C982   C     0.89214   0.54181   0.98591   0.00000  Uiso   1.00
C983   C     0.89896   0.55368   0.93287   0.00000  Uiso   1.00
C984   C     0.86260   0.54690   0.91055   0.00000  Uiso   1.00
C985   C     0.83564   0.52981   0.57293   0.00000  Uiso   1.00
C986   C     0.91945   0.52657   0.56156   0.00000  Uiso   1.00
H987   H     0.94792   0.52260   0.57846   0.00000  Uiso   1.00
H988   H     0.90744   0.63072   0.70274   0.00000  Uiso   1.00
H989   H     0.76022   0.44409   0.67027   0.00000  Uiso   1.00
H990   H     0.72881   0.40952   0.72528   0.00000  Uiso   1.00
H991   H     0.70814   0.41624   0.66939   0.00000  Uiso   1.00
H992   H     0.99231   0.54063   0.94008   0.00000  Uiso   1.00
H993   H     0.97810   0.59137   0.97058   0.00000  Uiso   1.00
H994   H     0.67026   0.55331   0.50214   0.00000  Uiso   1.00
H995   H     0.80228   0.57478   0.63525   0.00000  Uiso   1.00
H996   H     0.77746   0.57235   0.58163   0.00000  Uiso   1.00
H997   H     0.76352   0.53145   0.63038   0.00000  Uiso   1.00
H998   H     0.90566   0.37308   0.70228   0.00000  Uiso   1.00
H999   H     0.76043   0.62521   0.80142   0.00000  Uiso   1.00
H1000  H     0.96641   0.44256   0.70896   0.00000  Uiso   1.00
H1001  H     0.70034   0.55802   0.78990   0.00000  Uiso   1.00
H1002  H     0.93205   0.56785   0.90837   0.00000  Uiso   1.00
H1003  H     0.76102   0.48792   0.56409   0.00000  Uiso   1.00
H1004  H     0.70347   0.46736   0.52105   0.00000  Uiso   1.00
H1005  H     0.86746   0.55900   0.87118   0.00000  Uiso   1.00
N1006  N     0.71426   0.50001   0.75001   0.00000  Uiso   1.00
N1007  N     0.95239   0.49998   0.75001   0.00000  Uiso   1.00
N1008  N     0.71075   0.38631   0.83445   0.00000  Uiso   1.00
N1009  N     0.92916   0.60252   0.80244   0.00000  Uiso   1.00
N1010  N     0.68268   0.45919   0.90069   0.00000  Uiso   1.00
O1011  O     0.79512   0.56108   0.75000   0.00000  Uiso   1.00
O1012  O     0.87157   0.56107   0.75000   0.00000  Uiso   1.00
O1013  O     0.77613   0.50000   0.82681   0.00000  Uiso   1.00
O1014  O     0.85258   0.49999   0.82681   0.00000  Uiso   1.00
O1015  O     0.79510   0.43893   0.74999   0.00000  Uiso   1.00
O1016  O     0.87154   0.43892   0.75000   0.00000  Uiso   1.00
O1017  O     0.81409   0.50001   0.67319   0.00000  Uiso   1.00
O1018  O     0.89053   0.50000   0.67319   0.00000  Uiso   1.00
Zn1019 Zn    0.78229   0.50001   0.75000   0.00000  Uiso   1.00
Zn1020 Zn    0.88438   0.49999   0.75000   0.00000  Uiso   1.00
C1021  C     0.16711   0.91320   0.75033   0.00000  Uiso   1.00
C1022  C     0.12403   0.83865   0.91127   0.00000  Uiso   1.00
C1023  C     0.20836   0.97958   0.72461   0.00000  Uiso   1.00
C1024  C     0.14052   0.83501   0.85211   0.00000  Uiso   1.00
C1025  C     0.20715   0.68899   0.72430   0.00000  Uiso   1.00
C1026  C     0.16491   0.70897   0.75152   0.00000  Uiso   1.00
C1027  C     0.12363   0.68615   0.77985   0.00000  Uiso   1.00
C1028  C     0.12522   0.97672   0.77970   0.00000  Uiso   1.00
C1029  C     0.16728   0.95719   0.75196   0.00000  Uiso   1.00
C1030  C     0.31419   0.80131   0.72716   0.00000  Uiso   1.00
C1031  C     0.02899   0.80146   0.72574   0.00000  Uiso   1.00
C1032  C     0.14448   0.85081   0.99347   0.00000  Uiso   1.00
C1033  C     0.01922   0.86550   0.77240   0.00000  Uiso   1.00
C1034  C     0.30539   0.86629   0.77106   0.00000  Uiso   1.00
C1035  C     0.16588   0.75334   0.75072   0.00000  Uiso   1.00
C1036  C     0.19232   0.83812   0.64888   0.00000  Uiso   1.00
C1037  C     0.26265   0.87541   0.50908   0.00000  Uiso   1.00
C1038  C     0.20550   0.85270   0.59342   0.00000  Uiso   1.00
C1039  C     0.07998   0.82028   0.94212   0.00000  Uiso   1.00
C1040  C     0.06959   0.81602   0.99736   0.00000  Uiso   1.00
C1041  C     0.10217   0.82935   0.52236   0.00000  Uiso   1.00
C1042  C     0.07968   0.70505   0.81023   0.00000  Uiso   1.00
C1043  C     0.15465   0.85683   0.93796   0.00000  Uiso   1.00
C1044  C     0.05855   0.76611   0.69630   0.00000  Uiso   1.00
C1045  C     0.28079   0.90440   0.78862   0.00000  Uiso   1.00
C1046  C     0.31207   0.89091   0.97882   0.00000  Uiso   1.00
C1047  C     0.12556   0.88635   0.60703   0.00000  Uiso   1.00
C1048  C     0.04479   0.80458   0.91882   0.00000  Uiso   1.00
C1049  C     0.17909   0.86309   0.51763   0.00000  Uiso   1.00
C1050  C     0.22547   0.87514   0.98591   0.00000  Uiso   1.00
C1051  C     0.23230   0.88701   0.93287   0.00000  Uiso   1.00
C1052  C     0.19593   0.88024   0.91055   0.00000  Uiso   1.00
C1053  C     0.16897   0.86314   0.57293   0.00000  Uiso   1.00
C1054  C     0.25279   0.85990   0.56156   0.00000  Uiso   1.00
H1055  H     0.28125   0.85593   0.57846   0.00000  Uiso   1.00
H1056  H     0.24077   0.96405   0.70274   0.00000  Uiso   1.00
H1057  H     0.09355   0.77742   0.67027   0.00000  Uiso   1.00
H1058  H     0.06214   0.74285   0.72528   0.00000  Uiso   1.00
H1059  H     0.04148   0.74957   0.66939   0.00000  Uiso   1.00
H1060  H     0.32564   0.87396   0.94008   0.00000  Uiso   1.00
H1061  H     0.31144   0.92470   0.97058   0.00000  Uiso   1.00
H1062  H     0.00360   0.88665   0.50214   0.00000  Uiso   1.00
H1063  H     0.13561   0.90811   0.63525   0.00000  Uiso   1.00
H1064  H     0.11079   0.90568   0.58163   0.00000  Uiso   1.00
H1065  H     0.09686   0.86478   0.63038   0.00000  Uiso   1.00
H1066  H     0.23900   0.70642   0.70228   0.00000  Uiso   1.00
H1067  H     0.09377   0.95855   0.80142   0.00000  Uiso   1.00
H1068  H     0.29974   0.77590   0.70896   0.00000  Uiso   1.00
H1069  H     0.03368   0.89136   0.78990   0.00000  Uiso   1.00
H1070  H     0.26538   0.90119   0.90837   0.00000  Uiso   1.00
H1071  H     0.09436   0.82125   0.56409   0.00000  Uiso   1.00
H1072  H     0.03680   0.80069   0.52105   0.00000  Uiso   1.00
H1073  H     0.20079   0.89233   0.87118   0.00000  Uiso   1.00
N1074  N     0.04760   0.83334   0.75001   0.00000  Uiso   1.00
N1075  N     0.28573   0.83331   0.75001   0.00000  Uiso   1.00
N1076  N     0.04409   0.71964   0.83445   0.00000  Uiso   1.00
N1077  N     0.26249   0.93586   0.80244   0.00000  Uiso   1.00
N1078  N     0.01601   0.79253   0.90069   0.00000  Uiso   1.00
O1079  O     0.12846   0.89442   0.75000   0.00000  Uiso   1.00
O1080  O     0.20490   0.89441   0.75000   0.00000  Uiso   1.00
O1081  O     0.10947   0.83333   0.82681   0.00000  Uiso   1.00
O1082  O     0.18591   0.83332   0.82681   0.00000  Uiso   1.00
O1083  O     0.12843   0.77226   0.74999   0.00000  Uiso   1.00
O1084  O     0.20488   0.77225   0.75000   0.00000  Uiso   1.00
O1085  O     0.14742   0.83335   0.67319   0.00000  Uiso   1.00
O1086  O     0.22387   0.83334   0.67319   0.00000  Uiso   1.00
Zn1087 Zn    0.11562   0.83334   0.75000   0.00000  Uiso   1.00
Zn1088 Zn    0.21771   0.83333   0.75000   0.00000  Uiso   1.00
C1089  C     0.50045   0.91320   0.75033   0.00000  Uiso   1.00
C1090  C     0.45737   0.83865   0.91127   0.00000  Uiso   1.00
C1091  C     0.54169   0.97958   0.72461   0.00000  Uiso   1.00
C1092  C     0.47385   0.83501   0.85211   0.00000  Uiso   1.00
C1093  C     0.54048   0.68899   0.72430   0.00000  Uiso   1.00
C1094  C     0.49825   0.70897   0.75152   0.00000  Uiso   1.00
C1095  C     0.45696   0.68615   0.77985   0.00000  Uiso   1.00
C1096  C     0.45855   0.97672   0.77970   0.00000  Uiso   1.00
C1097  C     0.50061   0.95719   0.75196   0.00000  Uiso   1.00
C1098  C     0.64752   0.80131   0.72716   0.00000  Uiso   1.00
C1099  C     0.36233   0.80146   0.72574   0.00000  Uiso   1.00
C1100  C     0.47782   0.85081   0.99347   0.00000  Uiso   1.00
C1101  C     0.35255   0.86550   0.77240   0.00000  Uiso   1.00
C1102  C     0.63873   0.86629   0.77106   0.00000  Uiso   1.00
C1103  C     0.49922   0.75334   0.75072   0.00000  Uiso   1.00
C1104  C     0.52565   0.83812   0.64888   0.00000  Uiso   1.00
C1105  C     0.59598   0.87541   0.50908   0.00000  Uiso   1.00
C1106  C     0.53883   0.85270   0.59342   0.00000  Uiso   1.00
C1107  C     0.41332   0.82028   0.94212   0.00000  Uiso   1.00
C1108  C     0.40293   0.81602   0.99736   0.00000  Uiso   1.00
C1109  C     0.43550   0.82935   0.52236   0.00000  Uiso   1.00
C1110  C     0.41301   0.70505   0.81023   0.00000  Uiso   1.00
C1111  C     0.48798   0.85683   0.93796   0.00000  Uiso   1.00
C1112  C     0.39188   0.76611   0.69630   0.00000  Uiso   1.00
C1113  C     0.61413   0.90440   0.78862   0.00000  Uiso   1.00
C1114  C     0.64540   0.89091   0.97882   0.00000  Uiso   1.00
C1115  C     0.45889   0.88635   0.60703   0.00000  Uiso   1.00
C1116  C     0.37812   0.80458   0.91882   0.00000  Uiso   1.00
C1117  C     0.51242   0.86309   0.51763   0.00000  Uiso   1.00
C1118  C     0.55881   0.87514   0.98591   0.00000  Uiso   1.00
C1119  C     0.56563   0.88701   0.93287   0.00000  Uiso   1.00
C1120  C     0.52927   0.88024   0.91055   0.00000  Uiso   1.00
C1121  C     0.50230   0.86314   0.57293   0.00000  Uiso   1.00
C1122  C     0.58612   0.85990   0.56156   0.00000  Uiso   1.00
H1123  H     0.61458   0.85593   0.57846   0.00000  Uiso   1.00
H1124  H     0.57410   0.96405   0.70274   0.00000  Uiso   1.00
H1125  H     0.42689   0.77742   0.67027   0.00000  Uiso   1.00
H1126  H     0.39548   0.74285   0.72528   0.00000  Uiso   1.00
H1127  H     0.37481   0.74957   0.66939   0.00000  Uiso   1.00
H1128  H     0.65898   0.87396   0.94008   0.00000  Uiso   1.00
H1129  H     0.64477   0.92470   0.97058   0.00000  Uiso   1.00
H1130  H     0.33693   0.88665   0.50214   0.00000  Uiso   1.00
H1131  H     0.46895   0.90811   0.63525   0.00000  Uiso   1.00
H1132  H     0.44413   0.90568   0.58163   0.00000  Uiso   1.00
H1133  H     0.43019   0.86478   0.63038   0.00000  Uiso   1.00
H1134  H     0.57233   0.70642   0.70228   0.00000  Uiso   1.00
H1135  H     0.42710   0.95855   0.80142   0.00000  Uiso   1.00
H1136  H     0.63307   0.77590   0.70896   0.00000  Uiso   1.00
H1137  H     0.36701   0.89136   0.78990   0.00000  Uiso   1.00
H1138  H     0.59872   0.90119   0.90837   0.00000  Uiso   1.00
H1139  H     0.42769   0.82125   0.56409   0.00000  Uiso   1.00
H1140  H     0.37014   0.80069   0.52105   0.00000  Uiso   1.00
H1141  H     0.53413   0.89233   0.87118   0.00000  Uiso   1.00
N1142  N     0.38093   0.83334   0.75001   0.00000  Uiso   1.00
N1143  N     0.61906   0.83331   0.75001   0.00000  Uiso   1.00
N1144  N     0.37742   0.71964   0.83445   0.00000  Uiso   1.00
N1145  N     0.59583   0.93586   0.80244   0.00000  Uiso   1.00
N1146  N     0.34935   0.79253   0.90069   0.00000  Uiso   1.00
O1147  O     0.46179   0.89442   0.75000   0.00000  Uiso   1.00
O1148  O     0.53823   0.89441   0.75000   0.00000  Uiso   1.00
O1149  O     0.44280   0.83333   0.82681   0.00000  Uiso   1.00
O1150  O     0.51924   0.83332   0.82681   0.00000  Uiso   1.00
O1151  O     0.46177   0.77226   0.74999   0.00000  Uiso   1.00
O1152  O     0.53821   0.77225   0.75000   0.00000  Uiso   1.00
O1153  O     0.48076   0.83335   0.67319   0.00000  Uiso   1.00
O1154  O     0.55720   0.83334   0.67319   0.00000  Uiso   1.00
Zn1155 Zn    0.44896   0.83334   0.75000   0.00000  Uiso   1.00
Zn1156 Zn    0.55104   0.83333   0.75000   0.00000  Uiso   1.00
C1157  C     0.83378   0.91320   0.75033   0.00000  Uiso   1.00
C1158  C     0.79070   0.83865   0.91127   0.00000  Uiso   1.00
C1159  C     0.87503   0.97958   0.72461   0.00000  Uiso   1.00
C1160  C     0.80719   0.83501   0.85211   0.00000  Uiso   1.00
C1161  C     0.87381   0.68899   0.72430   0.00000  Uiso   1.00
C1162  C     0.83158   0.70897   0.75152   0.00000  Uiso   1.00
C1163  C     0.79029   0.68615   0.77985   0.00000  Uiso   1.00
C1164  C     0.79188   0.97672   0.77970   0.00000  Uiso   1.00
C1165  C     0.83394   0.95719   0.75196   0.00000  Uiso   1.00
C1166  C     0.98085   0.80131   0.72716   0.00000  Uiso   1.00
C1167  C     0.69566   0.80146   0.72574   0.00000  Uiso   1.00
C1168  C     0.81115   0.85081   0.99347   0.00000  Uiso   1.00
C1169  C     0.68588   0.86550   0.77240   0.00000  Uiso   1.00
C1170  C     0.97206   0.86629   0.77106   0.00000  Uiso   1.00
C1171  C     0.83255   0.75334   0.75072   0.00000  Uiso   1.00
C1172  C     0.85899   0.83812   0.64888   0.00000  Uiso   1.00
C1173  C     0.92932   0.87541   0.50908   0.00000  Uiso   1.00
C1174  C     0.87217   0.85270   0.59342   0.00000  Uiso   1.00
C1175  C     0.74665   0.82028   0.94212   0.00000  Uiso   1.00
C1176  C     0.73626   0.81602   0.99736   0.00000  Uiso   1.00
C1177  C     0.76883   0.82935   0.52236   0.00000  Uiso   1.00
C1178  C     0.74635   0.70505   0.81023   0.00000  Uiso   1.00
C1179  C     0.82131   0.85683   0.93796   0.00000  Uiso   1.00
C1180  C     0.72521   0.76611   0.69630   0.00000  Uiso   1.00
C1181  C     0.94746   0.90440   0.78862   0.00000  Uiso   1.00
C1182  C     0.97873   0.89091   0.97882   0.00000  Uiso   1.00
C1183  C     0.79223   0.88635   0.60703   0.00000  Uiso   1.00
C1184  C     0.71146   0.80458   0.91882   0.00000  Uiso   1.00
C1185  C     0.84576   0.86309   0.51763   0.00000  Uiso   1.00
C1186  C     0.89214   0.87514   0.98591   0.00000  Uiso   1.00
C1187  C     0.89896   0.88701   0.93287   0.00000  Uiso   1.00
C1188  C     0.86260   0.88024   0.91055   0.00000  Uiso   1.00
C1189  C     0.83564   0.86314   0.57293   0.00000  Uiso   1.00
C1190  C     0.91945   0.85990   0.56156   0.00000  Uiso   1.00
H1191  H     0.94792   0.85593   0.57846   0.00000  Uiso   1.00
H1192  H     0.90744   0.96405   0.70274   0.00000  Uiso   1.00
H1193  H     0.76022   0.77742   0.67027   0.00000  Uiso   1.00
H1194  H     0.72881   0.74285   0.72528   0.00000  Uiso   1.00
H1195  H     0.70814   0.74957   0.66939   0.00000  Uiso   1.00
H1196  H     0.99231   0.87396   0.94008   0.00000  Uiso   1.00
H1197  H     0.97810   0.92470   0.97058   0.00000  Uiso   1.00
H1198  H     0.67026   0.88665   0.50214   0.00000  Uiso   1.00
H1199  H     0.80228   0.90811   0.63525   0.00000  Uiso   1.00
H1200  H     0.77746   0.90568   0.58163   0.00000  Uiso   1.00
H1201  H     0.76352   0.86478   0.63038   0.00000  Uiso   1.00
H1202  H     0.90566   0.70642   0.70228   0.00000  Uiso   1.00
H1203  H     0.76043   0.95855   0.80142   0.00000  Uiso   1.00
H1204  H     0.96641   0.77590   0.70896   0.00000  Uiso   1.00
H1205  H     0.70034   0.89136   0.78990   0.00000  Uiso   1.00
H1206  H     0.93205   0.90119   0.90837   0.00000  Uiso   1.00
H1207  H     0.76102   0.82125   0.56409   0.00000  Uiso   1.00
H1208  H     0.70347   0.80069   0.52105   0.00000  Uiso   1.00
H1209  H     0.86746   0.89233   0.87118   0.00000  Uiso   1.00
N1210  N     0.71426   0.83334   0.75001   0.00000  Uiso   1.00
N1211  N     0.95239   0.83331   0.75001   0.00000  Uiso   1.00
N1212  N     0.71075   0.71964   0.83445   0.00000  Uiso   1.00
N1213  N     0.92916   0.93586   0.80244   0.00000  Uiso   1.00
N1214  N     0.68268   0.79253   0.90069   0.00000  Uiso   1.00
O1215  O     0.79512   0.89442   0.75000   0.00000  Uiso   1.00
O1216  O     0.87157   0.89441   0.75000   0.00000  Uiso   1.00
O1217  O     0.77613   0.83333   0.82681   0.00000  Uiso   1.00
O1218  O     0.85258   0.83332   0.82681   0.00000  Uiso   1.00
O1219  O     0.79510   0.77226   0.74999   0.00000  Uiso   1.00
O1220  O     0.87154   0.77225   0.75000   0.00000  Uiso   1.00
O1221  O     0.81409   0.83335   0.67319   0.00000  Uiso   1.00
O1222  O     0.89053   0.83334   0.67319   0.00000  Uiso   1.00
Zn1223 Zn    0.78229   0.83334   0.75000   0.00000  Uiso   1.00
Zn1224 Zn    0.88438   0.83333   0.75000   0.00000  Uiso   1.00
loop_
_geom_bond_atom_site_label_1
_geom_bond_atom_site_label_2
_geom_bond_distance
_geom_bond_site_symmetry_2
_ccdc_geom_bond_type
C1     C9      1.410   .     S
C1     O59     1.284   .     A
C1     O60     1.288   .     A
C2     C19     1.420   .     A
C2     C4      1.476   .     S
C2     C23     1.420   .     A
C3     C9      1.390   .     A
C3     H36     1.084   .     S
C3     C209    1.372   .     S
C4     O62     1.304   .     A
C4     O61     1.296   .     A
C5     H46     1.084   .     S
C5     C6      1.401   .     A
C5     C411    1.372   1_545 S
C6     C7      1.408   .     A
C6     C15     1.422   .     S
C7     C22     1.443   .     S
C7     C416    1.373   1_545 S
C8     H47     1.086   .     S
C8     C9      1.393   .     A
C8     C211    1.373   .     S
C10    N55     1.356   .     A
C10    H48     1.082   .     S
C10    C79     1.420   .     S
C11    N54     1.387   .     A
C11    C24     1.501   .     S
C11    C146    1.420   1_455 S
C12    C23     1.405   .     A
C12    C633    1.412   .     S
C12    C641    1.412   .     S
C13    N54     1.356   .     A
C13    H49     1.083   .     S
C13    C150    1.414   1_455 S
C14    N55     1.383   .     A
C14    C25     1.436   .     S
C14    C81     1.414   .     S
C15    O64     1.287   .     A
C15    O63     1.289   .     A
C16    O65     1.290   .     A
C16    O66     1.304   .     A
C16    C18     1.463   .     S
C17    C34     1.409   .     A
C17    C638    1.506   1_554 S
C17    C642    1.419   1_554 S
C18    C34     1.404   .     A
C18    C33     1.406   .     A
C19    C28     1.444   .     S
C19    C20     1.390   .     A
C20    C633    1.385   .     S
C20    H664    1.084   .     S
C21    H51     1.079   .     S
C21    C632    1.385   1_554 S
C21    C624    1.412   1_554 S
C22    N56     1.156   .     T
C23    C32     1.411   .     A
C24    H38     1.104   .     S
C24    H37     1.103   .     S
C24    H39     1.111   .     S
C25    N57     1.158   .     T
C26    H40     1.107   .     S
C26    H41     1.110   .     S
C26    C629    1.506   .     S
C26    H722    1.111   .     S
C27    H45     1.109   .     S
C27    C33     1.524   .     S
C27    H43     1.111   .     S
C27    H44     1.111   .     S
C28    N58     1.157   .     T
C29    C33     1.385   .     A
C29    C624    1.412   1_554 S
C29    C642    1.413   1_554 S
C30    C31     1.398   .     A
C30    C629    1.419   .     S
C30    C641    1.413   .     S
C31    C32     1.393   .     A
C31    H50     1.082   .     S
C32    H53     1.074   .     S
C34    H35     1.084   .     S
H42    C774    1.111   1_454 S
H52    C632    1.084   1_554 S
N54    Zn67    2.022   .     S
N55    Zn68    2.022   .     S
O59    Zn67    1.983   .     S
O60    Zn68    2.006   .     S
O61    Zn67    1.964   .     S
O62    Zn68    1.936   .     S
O63    Zn67    2.006   .     S
O64    Zn68    1.983   .     S
O65    Zn67    1.936   .     S
O66    Zn68    1.964   .     S
C69    C77     1.410   .     S
C69    O127    1.284   .     A
C69    O128    1.288   .     A
C70    C87     1.420   .     A
C70    C72     1.476   .     S
C70    C91     1.420   .     A
C71    C77     1.390   .     A
C71    H104    1.084   .     S
C71    C277    1.372   .     S
C72    O130    1.304   .     A
C72    O129    1.296   .     A
C73    H114    1.084   .     S
C73    C74     1.401   .     A
C73    C479    1.372   1_545 S
C74    C75     1.408   .     A
C74    C83     1.422   .     S
C75    C90     1.443   .     S
C75    C484    1.373   1_545 S
C76    H115    1.086   .     S
C76    C77     1.393   .     A
C76    C279    1.373   .     S
C78    N123    1.356   .     A
C78    H116    1.082   .     S
C78    C147    1.420   .     S
C79    N122    1.387   .     A
C79    C92     1.501   .     S
C80    C91     1.405   .     A
C80    C701    1.412   .     S
C80    C709    1.412   .     S
C81    N122    1.356   .     A
C81    H117    1.083   .     S
C82    N123    1.383   .     A
C82    C93     1.436   .     S
C82    C149    1.414   .     S
C83    O132    1.287   .     A
C83    O131    1.289   .     A
C84    O133    1.290   .     A
C84    O134    1.304   .     A
C84    C86     1.463   .     S
C85    C102    1.409   .     A
C85    C706    1.506   1_554 S
C85    C710    1.419   1_554 S
C86    C102    1.404   .     A
C86    C101    1.406   .     A
C87    C96     1.444   .     S
C87    C88     1.390   .     A
C88    C701    1.385   .     S
C88    H732    1.084   .     S
C89    H119    1.079   .     S
C89    C700    1.385   1_554 S
C89    C692    1.412   1_554 S
C90    N124    1.156   .     T
C91    C100    1.411   .     A
C92    H106    1.104   .     S
C92    H105    1.103   .     S
C92    H107    1.111   .     S
C93    N125    1.158   .     T
C94    H108    1.107   .     S
C94    H109    1.110   .     S
C94    C697    1.506   .     S
C94    H790    1.111   .     S
C95    H113    1.109   .     S
C95    C101    1.524   .     S
C95    H111    1.111   .     S
C95    H112    1.111   .     S
C96    N126    1.157   .     T
C97    C101    1.385   .     A
C97    C692    1.412   1_554 S
C97    C710    1.413   1_554 S
C98    C99     1.398   .     A
C98    C697    1.419   .     S
C98    C709    1.413   .     S
C99    C100    1.393   .     A
C99    H118    1.082   .     S
C100   H121    1.074   .     S
C102   H103    1.084   .     S
H110   C638    1.111   1_554 S
H120   C700    1.084   1_554 S
N122   Zn135   2.022   .     S
N123   Zn136   2.022   .     S
O127   Zn135   1.983   .     S
O128   Zn136   2.006   .     S
O129   Zn135   1.964   .     S
O130   Zn136   1.936   .     S
O131   Zn135   2.006   .     S
O132   Zn136   1.983   .     S
O133   Zn135   1.936   .     S
O134   Zn136   1.964   .     S
C137   C145    1.410   .     S
C137   O195    1.284   .     A
C137   O196    1.288   .     A
C138   C155    1.420   .     A
C138   C140    1.476   .     S
C138   C159    1.420   .     A
C139   C145    1.390   .     A
C139   H172    1.084   .     S
C139   C345    1.372   .     S
C140   O198    1.304   .     A
C140   O197    1.296   .     A
C141   H182    1.084   .     S
C141   C142    1.401   .     A
C141   C547    1.372   1_545 S
C142   C143    1.408   .     A
C142   C151    1.422   .     S
C143   C158    1.443   .     S
C143   C552    1.373   1_545 S
C144   H183    1.086   .     S
C144   C145    1.393   .     A
C144   C347    1.373   .     S
C146   N191    1.356   .     A
C146   H184    1.082   .     S
C146   C11     1.420   1_655 S
C147   N190    1.387   .     A
C147   C160    1.501   .     S
C148   C159    1.405   .     A
C148   C769    1.412   .     S
C148   C777    1.412   .     S
C149   N190    1.356   .     A
C149   H185    1.083   .     S
C150   N191    1.383   .     A
C150   C161    1.436   .     S
C150   C13     1.414   1_655 S
C151   O200    1.287   .     A
C151   O199    1.289   .     A
C152   O201    1.290   .     A
C152   O202    1.304   .     A
C152   C154    1.463   .     S
C153   C170    1.409   .     A
C153   C774    1.506   1_554 S
C153   C778    1.419   1_554 S
C154   C170    1.404   .     A
C154   C169    1.406   .     A
C155   C164    1.444   .     S
C155   C156    1.390   .     A
C156   C769    1.385   .     S
C156   H800    1.084   .     S
C157   H187    1.079   .     S
C157   C768    1.385   1_554 S
C157   C760    1.412   1_554 S
C158   N192    1.156   .     T
C159   C168    1.411   .     A
C160   H174    1.104   .     S
C160   H173    1.103   .     S
C160   H175    1.111   .     S
C161   N193    1.158   .     T
C162   H176    1.107   .     S
C162   H177    1.110   .     S
C162   C765    1.506   .     S
C162   H654    1.111   1_655 S
C163   H181    1.109   .     S
C163   C169    1.524   .     S
C163   H179    1.111   .     S
C163   H180    1.111   .     S
C164   N194    1.157   .     T
C165   C169    1.385   .     A
C165   C760    1.412   1_554 S
C165   C778    1.413   1_554 S
C166   C167    1.398   .     A
C166   C765    1.419   .     S
C166   C777    1.413   .     S
C167   C168    1.393   .     A
C167   H186    1.082   .     S
C168   H189    1.074   .     S
C170   H171    1.084   .     S
H178   C706    1.111   1_554 S
H188   C768    1.084   1_554 S
N190   Zn203   2.022   .     S
N191   Zn204   2.022   .     S
O195   Zn203   1.983   .     S
O196   Zn204   2.006   .     S
O197   Zn203   1.964   .     S
O198   Zn204   1.936   .     S
O199   Zn203   2.006   .     S
O200   Zn204   1.983   .     S
O201   Zn203   1.936   .     S
O202   Zn204   1.964   .     S
C205   C213    1.410   .     S
C205   O263    1.284   .     A
C205   O264    1.288   .     A
C206   C223    1.420   .     A
C206   C208    1.476   .     S
C206   C227    1.420   .     A
C207   C213    1.390   .     A
C207   H240    1.084   .     S
C207   C413    1.372   .     S
C208   O266    1.304   .     A
C208   O265    1.296   .     A
C209   H250    1.084   .     S
C209   C210    1.401   .     A
C210   C211    1.408   .     A
C210   C219    1.422   .     S
C211   C226    1.443   .     S
C212   H251    1.086   .     S
C212   C213    1.393   .     A
C212   C415    1.373   .     S
C214   N259    1.356   .     A
C214   H252    1.082   .     S
C214   C283    1.420   .     S
C215   N258    1.387   .     A
C215   C228    1.501   .     S
C215   C350    1.420   1_455 S
C216   C227    1.405   .     A
C216   C837    1.412   .     S
C216   C845    1.412   .     S
C217   N258    1.356   .     A
C217   H253    1.083   .     S
C217   C354    1.414   1_455 S
C218   N259    1.383   .     A
C218   C229    1.436   .     S
C218   C285    1.414   .     S
C219   O268    1.287   .     A
C219   O267    1.289   .     A
C220   O269    1.290   .     A
C220   O270    1.304   .     A
C220   C222    1.463   .     S
C221   C238    1.409   .     A
C221   C842    1.506   1_554 S
C221   C846    1.419   1_554 S
C222   C238    1.404   .     A
C222   C237    1.406   .     A
C223   C232    1.444   .     S
C223   C224    1.390   .     A
C224   C837    1.385   .     S
C224   H868    1.084   .     S
C225   H255    1.079   .     S
C225   C836    1.385   1_554 S
C225   C828    1.412   1_554 S
C226   N260    1.156   .     T
C227   C236    1.411   .     A
C228   H242    1.104   .     S
C228   H241    1.103   .     S
C228   H243    1.111   .     S
C229   N261    1.158   .     T
C230   H244    1.107   .     S
C230   H245    1.110   .     S
C230   C833    1.506   .     S
C230   H926    1.111   .     S
C231   H249    1.109   .     S
C231   C237    1.524   .     S
C231   H247    1.111   .     S
C231   H248    1.111   .     S
C232   N262    1.157   .     T
C233   C237    1.385   .     A
C233   C828    1.412   1_554 S
C233   C846    1.413   1_554 S
C234   C235    1.398   .     A
C234   C833    1.419   .     S
C234   C845    1.413   .     S
C235   C236    1.393   .     A
C235   H254    1.082   .     S
C236   H257    1.074   .     S
C238   H239    1.084   .     S
H246   C978    1.111   1_454 S
H256   C836    1.084   1_554 S
N258   Zn271   2.022   .     S
N259   Zn272   2.022   .     S
O263   Zn271   1.983   .     S
O264   Zn272   2.006   .     S
O265   Zn271   1.964   .     S
O266   Zn272   1.936   .     S
O267   Zn271   2.006   .     S
O268   Zn272   1.983   .     S
O269   Zn271   1.936   .     S
O270   Zn272   1.964   .     S
C273   C281    1.410   .     S
C273   O331    1.284   .     A
C273   O332    1.288   .     A
C274   C291    1.420   .     A
C274   C276    1.476   .     S
C274   C295    1.420   .     A
C275   C281    1.390   .     A
C275   H308    1.084   .     S
C275   C481    1.372   .     S
C276   O334    1.304   .     A
C276   O333    1.296   .     A
C277   H318    1.084   .     S
C277   C278    1.401   .     A
C278   C279    1.408   .     A
C278   C287    1.422   .     S
C279   C294    1.443   .     S
C280   H319    1.086   .     S
C280   C281    1.393   .     A
C280   C483    1.373   .     S
C282   N327    1.356   .     A
C282   H320    1.082   .     S
C282   C351    1.420   .     S
C283   N326    1.387   .     A
C283   C296    1.501   .     S
C284   C295    1.405   .     A
C284   C905    1.412   .     S
C284   C913    1.412   .     S
C285   N326    1.356   .     A
C285   H321    1.083   .     S
C286   N327    1.383   .     A
C286   C297    1.436   .     S
C286   C353    1.414   .     S
C287   O336    1.287   .     A
C287   O335    1.289   .     A
C288   O337    1.290   .     A
C288   O338    1.304   .     A
C288   C290    1.463   .     S
C289   C306    1.409   .     A
C289   C910    1.506   1_554 S
C289   C914    1.419   1_554 S
C290   C306    1.404   .     A
C290   C305    1.406   .     A
C291   C300    1.444   .     S
C291   C292    1.390   .     A
C292   C905    1.385   .     S
C292   H936    1.084   .     S
C293   H323    1.079   .     S
C293   C904    1.385   1_554 S
C293   C896    1.412   1_554 S
C294   N328    1.156   .     T
C295   C304    1.411   .     A
C296   H310    1.104   .     S
C296   H309    1.103   .     S
C296   H311    1.111   .     S
C297   N329    1.158   .     T
C298   H312    1.107   .     S
C298   H313    1.110   .     S
C298   C901    1.506   .     S
C298   H994    1.111   .     S
C299   H317    1.109   .     S
C299   C305    1.524   .     S
C299   H315    1.111   .     S
C299   H316    1.111   .     S
C300   N330    1.157   .     T
C301   C305    1.385   .     A
C301   C896    1.412   1_554 S
C301   C914    1.413   1_554 S
C302   C303    1.398   .     A
C302   C901    1.419   .     S
C302   C913    1.413   .     S
C303   C304    1.393   .     A
C303   H322    1.082   .     S
C304   H325    1.074   .     S
C306   H307    1.084   .     S
H314   C842    1.111   1_554 S
H324   C904    1.084   1_554 S
N326   Zn339   2.022   .     S
N327   Zn340   2.022   .     S
O331   Zn339   1.983   .     S
O332   Zn340   2.006   .     S
O333   Zn339   1.964   .     S
O334   Zn340   1.936   .     S
O335   Zn339   2.006   .     S
O336   Zn340   1.983   .     S
O337   Zn339   1.936   .     S
O338   Zn340   1.964   .     S
C341   C349    1.410   .     S
C341   O399    1.284   .     A
C341   O400    1.288   .     A
C342   C359    1.420   .     A
C342   C344    1.476   .     S
C342   C363    1.420   .     A
C343   C349    1.390   .     A
C343   H376    1.084   .     S
C343   C549    1.372   .     S
C344   O402    1.304   .     A
C344   O401    1.296   .     A
C345   H386    1.084   .     S
C345   C346    1.401   .     A
C346   C347    1.408   .     A
C346   C355    1.422   .     S
C347   C362    1.443   .     S
C348   H387    1.086   .     S
C348   C349    1.393   .     A
C348   C551    1.373   .     S
C350   N395    1.356   .     A
C350   H388    1.082   .     S
C350   C215    1.420   1_655 S
C351   N394    1.387   .     A
C351   C364    1.501   .     S
C352   C363    1.405   .     A
C352   C973    1.412   .     S
C352   C981    1.412   .     S
C353   N394    1.356   .     A
C353   H389    1.083   .     S
C354   N395    1.383   .     A
C354   C365    1.436   .     S
C354   C217    1.414   1_655 S
C355   O404    1.287   .     A
C355   O403    1.289   .     A
C356   O405    1.290   .     A
C356   O406    1.304   .     A
C356   C358    1.463   .     S
C357   C374    1.409   .     A
C357   C978    1.506   1_554 S
C357   C982    1.419   1_554 S
C358   C374    1.404   .     A
C358   C373    1.406   .     A
C359   C368    1.444   .     S
C359   C360    1.390   .     A
C360   C973    1.385   .     S
C360   H1004   1.084   .     S
C361   H391    1.079   .     S
C361   C972    1.385   1_554 S
C361   C964    1.412   1_554 S
C362   N396    1.156   .     T
C363   C372    1.411   .     A
C364   H378    1.104   .     S
C364   H377    1.103   .     S
C364   H379    1.111   .     S
C365   N397    1.158   .     T
C366   H380    1.107   .     S
C366   H381    1.110   .     S
C366   C969    1.506   .     S
C366   H858    1.111   1_655 S
C367   H385    1.109   .     S
C367   C373    1.524   .     S
C367   H383    1.111   .     S
C367   H384    1.111   .     S
C368   N398    1.157   .     T
C369   C373    1.385   .     A
C369   C964    1.412   1_554 S
C369   C982    1.413   1_554 S
C370   C371    1.398   .     A
C370   C969    1.419   .     S
C370   C981    1.413   .     S
C371   C372    1.393   .     A
C371   H390    1.082   .     S
C372   H393    1.074   .     S
C374   H375    1.084   .     S
H382   C910    1.111   1_554 S
H392   C972    1.084   1_554 S
N394   Zn407   2.022   .     S
N395   Zn408   2.022   .     S
O399   Zn407   1.983   .     S
O400   Zn408   2.006   .     S
O401   Zn407   1.964   .     S
O402   Zn408   1.936   .     S
O403   Zn407   2.006   .     S
O404   Zn408   1.983   .     S
O405   Zn407   1.936   .     S
O406   Zn408   1.964   .     S
C409   C417    1.410   .     S
C409   O467    1.284   .     A
C409   O468    1.288   .     A
C410   C427    1.420   .     A
C410   C412    1.476   .     S
C410   C431    1.420   .     A
C411   C417    1.390   .     A
C411   H444    1.084   .     S
C411   C5      1.372   1_565 S
C412   O470    1.304   .     A
C412   O469    1.296   .     A
C413   H454    1.084   .     S
C413   C414    1.401   .     A
C414   C415    1.408   .     A
C414   C423    1.422   .     S
C415   C430    1.443   .     S
C416   H455    1.086   .     S
C416   C417    1.393   .     A
C416   C7      1.373   1_565 S
C418   N463    1.356   .     A
C418   H456    1.082   .     S
C418   C487    1.420   .     S
C419   N462    1.387   .     A
C419   C432    1.501   .     S
C419   C554    1.420   1_455 S
C420   C431    1.405   .     A
C420   C1041   1.412   .     S
C420   C1049   1.412   .     S
C421   N462    1.356   .     A
C421   H457    1.083   .     S
C421   C558    1.414   1_455 S
C422   N463    1.383   .     A
C422   C433    1.436   .     S
C422   C489    1.414   .     S
C423   O472    1.287   .     A
C423   O471    1.289   .     A
C424   O473    1.290   .     A
C424   O474    1.304   .     A
C424   C426    1.463   .     S
C425   C442    1.409   .     A
C425   C1046   1.506   1_554 S
C425   C1050   1.419   1_554 S
C426   C442    1.404   .     A
C426   C441    1.406   .     A
C427   C436    1.444   .     S
C427   C428    1.390   .     A
C428   C1041   1.385   .     S
C428   H1072   1.084   .     S
C429   H459    1.079   .     S
C429   C1040   1.385   1_554 S
C429   C1032   1.412   1_554 S
C430   N464    1.156   .     T
C431   C440    1.411   .     A
C432   H446    1.104   .     S
C432   H445    1.103   .     S
C432   H447    1.111   .     S
C433   N465    1.158   .     T
C434   H448    1.107   .     S
C434   H449    1.110   .     S
C434   C1037   1.506   .     S
C434   H1130   1.111   .     S
C435   H453    1.109   .     S
C435   C441    1.524   .     S
C435   H451    1.111   .     S
C435   H452    1.111   .     S
C436   N466    1.157   .     T
C437   C441    1.385   .     A
C437   C1032   1.412   1_554 S
C437   C1050   1.413   1_554 S
C438   C439    1.398   .     A
C438   C1037   1.419   .     S
C438   C1049   1.413   .     S
C439   C440    1.393   .     A
C439   H458    1.082   .     S
C440   H461    1.074   .     S
C442   H443    1.084   .     S
H450   C1182   1.111   1_454 S
H460   C1040   1.084   1_554 S
N462   Zn475   2.022   .     S
N463   Zn476   2.022   .     S
O467   Zn475   1.983   .     S
O468   Zn476   2.006   .     S
O469   Zn475   1.964   .     S
O470   Zn476   1.936   .     S
O471   Zn475   2.006   .     S
O472   Zn476   1.983   .     S
O473   Zn475   1.936   .     S
O474   Zn476   1.964   .     S
C477   C485    1.410   .     S
C477   O535    1.284   .     A
C477   O536    1.288   .     A
C478   C495    1.420   .     A
C478   C480    1.476   .     S
C478   C499    1.420   .     A
C479   C485    1.390   .     A
C479   H512    1.084   .     S
C479   C73     1.372   1_565 S
C480   O538    1.304   .     A
C480   O537    1.296   .     A
C481   H522    1.084   .     S
C481   C482    1.401   .     A
C482   C483    1.408   .     A
C482   C491    1.422   .     S
C483   C498    1.443   .     S
C484   H523    1.086   .     S
C484   C485    1.393   .     A
C484   C75     1.373   1_565 S
C486   N531    1.356   .     A
C486   H524    1.082   .     S
C486   C555    1.420   .     S
C487   N530    1.387   .     A
C487   C500    1.501   .     S
C488   C499    1.405   .     A
C488   C1109   1.412   .     S
C488   C1117   1.412   .     S
C489   N530    1.356   .     A
C489   H525    1.083   .     S
C490   N531    1.383   .     A
C490   C501    1.436   .     S
C490   C557    1.414   .     S
C491   O540    1.287   .     A
C491   O539    1.289   .     A
C492   O541    1.290   .     A
C492   O542    1.304   .     A
C492   C494    1.463   .     S
C493   C510    1.409   .     A
C493   C1114   1.506   1_554 S
C493   C1118   1.419   1_554 S
C494   C510    1.404   .     A
C494   C509    1.406   .     A
C495   C504    1.444   .     S
C495   C496    1.390   .     A
C496   C1109   1.385   .     S
C496   H1140   1.084   .     S
C497   H527    1.079   .     S
C497   C1108   1.385   1_554 S
C497   C1100   1.412   1_554 S
C498   N532    1.156   .     T
C499   C508    1.411   .     A
C500   H514    1.104   .     S
C500   H513    1.103   .     S
C500   H515    1.111   .     S
C501   N533    1.158   .     T
C502   H516    1.107   .     S
C502   H517    1.110   .     S
C502   C1105   1.506   .     S
C502   H1198   1.111   .     S
C503   H521    1.109   .     S
C503   C509    1.524   .     S
C503   H519    1.111   .     S
C503   H520    1.111   .     S
C504   N534    1.157   .     T
C505   C509    1.385   .     A
C505   C1100   1.412   1_554 S
C505   C1118   1.413   1_554 S
C506   C507    1.398   .     A
C506   C1105   1.419   .     S
C506   C1117   1.413   .     S
C507   C508    1.393   .     A
C507   H526    1.082   .     S
C508   H529    1.074   .     S
C510   H511    1.084   .     S
H518   C1046   1.111   1_554 S
H528   C1108   1.084   1_554 S
N530   Zn543   2.022   .     S
N531   Zn544   2.022   .     S
O535   Zn543   1.983   .     S
O536   Zn544   2.006   .     S
O537   Zn543   1.964   .     S
O538   Zn544   1.936   .     S
O539   Zn543   2.006   .     S
O540   Zn544   1.983   .     S
O541   Zn543   1.936   .     S
O542   Zn544   1.964   .     S
C545   C553    1.410   .     S
C545   O603    1.284   .     A
C545   O604    1.288   .     A
C546   C563    1.420   .     A
C546   C548    1.476   .     S
C546   C567    1.420   .     A
C547   C553    1.390   .     A
C547   H580    1.084   .     S
C547   C141    1.372   1_565 S
C548   O606    1.304   .     A
C548   O605    1.296   .     A
C549   H590    1.084   .     S
C549   C550    1.401   .     A
C550   C551    1.408   .     A
C550   C559    1.422   .     S
C551   C566    1.443   .     S
C552   H591    1.086   .     S
C552   C553    1.393   .     A
C552   C143    1.373   1_565 S
C554   N599    1.356   .     A
C554   H592    1.082   .     S
C554   C419    1.420   1_655 S
C555   N598    1.387   .     A
C555   C568    1.501   .     S
C556   C567    1.405   .     A
C556   C1177   1.412   .     S
C556   C1185   1.412   .     S
C557   N598    1.356   .     A
C557   H593    1.083   .     S
C558   N599    1.383   .     A
C558   C569    1.436   .     S
C558   C421    1.414   1_655 S
C559   O608    1.287   .     A
C559   O607    1.289   .     A
C560   O609    1.290   .     A
C560   O610    1.304   .     A
C560   C562    1.463   .     S
C561   C578    1.409   .     A
C561   C1182   1.506   1_554 S
C561   C1186   1.419   1_554 S
C562   C578    1.404   .     A
C562   C577    1.406   .     A
C563   C572    1.444   .     S
C563   C564    1.390   .     A
C564   C1177   1.385   .     S
C564   H1208   1.084   .     S
C565   H595    1.079   .     S
C565   C1176   1.385   1_554 S
C565   C1168   1.412   1_554 S
C566   N600    1.156   .     T
C567   C576    1.411   .     A
C568   H582    1.104   .     S
C568   H581    1.103   .     S
C568   H583    1.111   .     S
C569   N601    1.158   .     T
C570   H584    1.107   .     S
C570   H585    1.110   .     S
C570   C1173   1.506   .     S
C570   H1062   1.111   1_655 S
C571   H589    1.109   .     S
C571   C577    1.524   .     S
C571   H587    1.111   .     S
C571   H588    1.111   .     S
C572   N602    1.157   .     T
C573   C577    1.385   .     A
C573   C1168   1.412   1_554 S
C573   C1186   1.413   1_554 S
C574   C575    1.398   .     A
C574   C1173   1.419   .     S
C574   C1185   1.413   .     S
C575   C576    1.393   .     A
C575   H594    1.082   .     S
C576   H597    1.074   .     S
C578   H579    1.084   .     S
H586   C1114   1.111   1_554 S
H596   C1176   1.084   1_554 S
N598   Zn611   2.022   .     S
N599   Zn612   2.022   .     S
O603   Zn611   1.983   .     S
O604   Zn612   2.006   .     S
O605   Zn611   1.964   .     S
O606   Zn612   1.936   .     S
O607   Zn611   2.006   .     S
O608   Zn612   1.983   .     S
O609   Zn611   1.936   .     S
O610   Zn612   1.964   .     S
C613   C621    1.410   .     S
C613   O671    1.284   .     A
C613   O672    1.288   .     A
C614   C631    1.420   .     A
C614   C616    1.476   .     S
C614   C635    1.420   .     A
C615   C621    1.390   .     A
C615   H648    1.084   .     S
C615   C821    1.372   .     S
C616   O674    1.304   .     A
C616   O673    1.296   .     A
C617   H658    1.084   .     S
C617   C618    1.401   .     A
C617   C1023   1.372   1_545 S
C618   C619    1.408   .     A
C618   C627    1.422   .     S
C619   C634    1.443   .     S
C619   C1028   1.373   1_545 S
C620   H659    1.086   .     S
C620   C621    1.393   .     A
C620   C823    1.373   .     S
C622   N667    1.356   .     A
C622   H660    1.082   .     S
C622   C691    1.420   .     S
C623   N666    1.387   .     A
C623   C636    1.501   .     S
C623   C758    1.420   1_455 S
C624   C635    1.405   .     A
C624   C21     1.412   1_556 S
C624   C29     1.412   1_556 S
C625   N666    1.356   .     A
C625   H661    1.083   .     S
C625   C762    1.414   1_455 S
C626   N667    1.383   .     A
C626   C637    1.436   .     S
C626   C693    1.414   .     S
C627   O676    1.287   .     A
C627   O675    1.289   .     A
C628   O677    1.290   .     A
C628   O678    1.304   .     A
C628   C630    1.463   .     S
C629   C646    1.409   .     A
C630   C646    1.404   .     A
C630   C645    1.406   .     A
C631   C640    1.444   .     S
C631   C632    1.390   .     A
C632   C21     1.385   1_556 S
C632   H52     1.084   1_556 S
C633   H663    1.079   .     S
C634   N668    1.156   .     T
C635   C644    1.411   .     A
C636   H650    1.104   .     S
C636   H649    1.103   .     S
C636   H651    1.111   .     S
C637   N669    1.158   .     T
C638   H652    1.107   .     S
C638   H653    1.110   .     S
C638   C17     1.506   1_556 S
C638   H110    1.111   1_556 S
C639   H657    1.109   .     S
C639   C645    1.524   .     S
C639   H655    1.111   .     S
C639   H656    1.111   .     S
C640   N670    1.157   .     T
C641   C645    1.385   .     A
C642   C643    1.398   .     A
C642   C17     1.419   1_556 S
C642   C29     1.413   1_556 S
C643   C644    1.393   .     A
C643   H662    1.082   .     S
C644   H665    1.074   .     S
C646   H647    1.084   .     S
H654   C162    1.111   1_455 S
N666   Zn679   2.022   .     S
N667   Zn680   2.022   .     S
O671   Zn679   1.983   .     S
O672   Zn680   2.006   .     S
O673   Zn679   1.964   .     S
O674   Zn680   1.936   .     S
O675   Zn679   2.006   .     S
O676   Zn680   1.983   .     S
O677   Zn679   1.936   .     S
O678   Zn680   1.964   .     S
C681   C689    1.410   .     S
C681   O739    1.284   .     A
C681   O740    1.288   .     A
C682   C699    1.420   .     A
C682   C684    1.476   .     S
C682   C703    1.420   .     A
C683   C689    1.390   .     A
C683   H716    1.084   .     S
C683   C889    1.372   .     S
C684   O742    1.304   .     A
C684   O741    1.296   .     A
C685   H726    1.084   .     S
C685   C686    1.401   .     A
C685   C1091   1.372   1_545 S
C686   C687    1.408   .     A
C686   C695    1.422   .     S
C687   C702    1.443   .     S
C687   C1096   1.373   1_545 S
C688   H727    1.086   .     S
C688   C689    1.393   .     A
C688   C891    1.373   .     S
C690   N735    1.356   .     A
C690   H728    1.082   .     S
C690   C759    1.420   .     S
C691   N734    1.387   .     A
C691   C704    1.501   .     S
C692   C703    1.405   .     A
C692   C89     1.412   1_556 S
C692   C97     1.412   1_556 S
C693   N734    1.356   .     A
C693   H729    1.083   .     S
C694   N735    1.383   .     A
C694   C705    1.436   .     S
C694   C761    1.414   .     S
C695   O744    1.287   .     A
C695   O743    1.289   .     A
C696   O745    1.290   .     A
C696   O746    1.304   .     A
C696   C698    1.463   .     S
C697   C714    1.409   .     A
C698   C714    1.404   .     A
C698   C713    1.406   .     A
C699   C708    1.444   .     S
C699   C700    1.390   .     A
C700   C89     1.385   1_556 S
C700   H120    1.084   1_556 S
C701   H731    1.079   .     S
C702   N736    1.156   .     T
C703   C712    1.411   .     A
C704   H718    1.104   .     S
C704   H717    1.103   .     S
C704   H719    1.111   .     S
C705   N737    1.158   .     T
C706   H720    1.107   .     S
C706   H721    1.110   .     S
C706   C85     1.506   1_556 S
C706   H178    1.111   1_556 S
C707   H725    1.109   .     S
C707   C713    1.524   .     S
C707   H723    1.111   .     S
C707   H724    1.111   .     S
C708   N738    1.157   .     T
C709   C713    1.385   .     A
C710   C711    1.398   .     A
C710   C85     1.419   1_556 S
C710   C97     1.413   1_556 S
C711   C712    1.393   .     A
C711   H730    1.082   .     S
C712   H733    1.074   .     S
C714   H715    1.084   .     S
N734   Zn747   2.022   .     S
N735   Zn748   2.022   .     S
O739   Zn747   1.983   .     S
O740   Zn748   2.006   .     S
O741   Zn747   1.964   .     S
O742   Zn748   1.936   .     S
O743   Zn747   2.006   .     S
O744   Zn748   1.983   .     S
O745   Zn747   1.936   .     S
O746   Zn748   1.964   .     S
C749   C757    1.410   .     S
C749   O807    1.284   .     A
C749   O808    1.288   .     A
C750   C767    1.420   .     A
C750   C752    1.476   .     S
C750   C771    1.420   .     A
C751   C757    1.390   .     A
C751   H784    1.084   .     S
C751   C957    1.372   .     S
C752   O810    1.304   .     A
C752   O809    1.296   .     A
C753   H794    1.084   .     S
C753   C754    1.401   .     A
C753   C1159   1.372   1_545 S
C754   C755    1.408   .     A
C754   C763    1.422   .     S
C755   C770    1.443   .     S
C755   C1164   1.373   1_545 S
C756   H795    1.086   .     S
C756   C757    1.393   .     A
C756   C959    1.373   .     S
C758   N803    1.356   .     A
C758   H796    1.082   .     S
C758   C623    1.420   1_655 S
C759   N802    1.387   .     A
C759   C772    1.501   .     S
C760   C771    1.405   .     A
C760   C157    1.412   1_556 S
C760   C165    1.412   1_556 S
C761   N802    1.356   .     A
C761   H797    1.083   .     S
C762   N803    1.383   .     A
C762   C773    1.436   .     S
C762   C625    1.414   1_655 S
C763   O812    1.287   .     A
C763   O811    1.289   .     A
C764   O813    1.290   .     A
C764   O814    1.304   .     A
C764   C766    1.463   .     S
C765   C782    1.409   .     A
C766   C782    1.404   .     A
C766   C781    1.406   .     A
C767   C776    1.444   .     S
C767   C768    1.390   .     A
C768   C157    1.385   1_556 S
C768   H188    1.084   1_556 S
C769   H799    1.079   .     S
C770   N804    1.156   .     T
C771   C780    1.411   .     A
C772   H786    1.104   .     S
C772   H785    1.103   .     S
C772   H787    1.111   .     S
C773   N805    1.158   .     T
C774   H788    1.107   .     S
C774   H789    1.110   .     S
C774   C153    1.506   1_556 S
C774   H42     1.111   1_656 S
C775   H793    1.109   .     S
C775   C781    1.524   .     S
C775   H791    1.111   .     S
C775   H792    1.111   .     S
C776   N806    1.157   .     T
C777   C781    1.385   .     A
C778   C779    1.398   .     A
C778   C153    1.419   1_556 S
C778   C165    1.413   1_556 S
C779   C780    1.393   .     A
C779   H798    1.082   .     S
C780   H801    1.074   .     S
C782   H783    1.084   .     S
N802   Zn815   2.022   .     S
N803   Zn816   2.022   .     S
O807   Zn815   1.983   .     S
O808   Zn816   2.006   .     S
O809   Zn815   1.964   .     S
O810   Zn816   1.936   .     S
O811   Zn815   2.006   .     S
O812   Zn816   1.983   .     S
O813   Zn815   1.936   .     S
O814   Zn816   1.964   .     S
C817   C825    1.410   .     S
C817   O875    1.284   .     A
C817   O876    1.288   .     A
C818   C835    1.420   .     A
C818   C820    1.476   .     S
C818   C839    1.420   .     A
C819   C825    1.390   .     A
C819   H852    1.084   .     S
C819   C1025   1.372   .     S
C820   O878    1.304   .     A
C820   O877    1.296   .     A
C821   H862    1.084   .     S
C821   C822    1.401   .     A
C822   C823    1.408   .     A
C822   C831    1.422   .     S
C823   C838    1.443   .     S
C824   H863    1.086   .     S
C824   C825    1.393   .     A
C824   C1027   1.373   .     S
C826   N871    1.356   .     A
C826   H864    1.082   .     S
C826   C895    1.420   .     S
C827   N870    1.387   .     A
C827   C840    1.501   .     S
C827   C962    1.420   1_455 S
C828   C839    1.405   .     A
C828   C225    1.412   1_556 S
C828   C233    1.412   1_556 S
C829   N870    1.356   .     A
C829   H865    1.083   .     S
C829   C966    1.414   1_455 S
C830   N871    1.383   .     A
C830   C841    1.436   .     S
C830   C897    1.414   .     S
C831   O880    1.287   .     A
C831   O879    1.289   .     A
C832   O881    1.290   .     A
C832   O882    1.304   .     A
C832   C834    1.463   .     S
C833   C850    1.409   .     A
C834   C850    1.404   .     A
C834   C849    1.406   .     A
C835   C844    1.444   .     S
C835   C836    1.390   .     A
C836   C225    1.385   1_556 S
C836   H256    1.084   1_556 S
C837   H867    1.079   .     S
C838   N872    1.156   .     T
C839   C848    1.411   .     A
C840   H854    1.104   .     S
C840   H853    1.103   .     S
C840   H855    1.111   .     S
C841   N873    1.158   .     T
C842   H856    1.107   .     S
C842   H857    1.110   .     S
C842   C221    1.506   1_556 S
C842   H314    1.111   1_556 S
C843   H861    1.109   .     S
C843   C849    1.524   .     S
C843   H859    1.111   .     S
C843   H860    1.111   .     S
C844   N874    1.157   .     T
C845   C849    1.385   .     A
C846   C847    1.398   .     A
C846   C221    1.419   1_556 S
C846   C233    1.413   1_556 S
C847   C848    1.393   .     A
C847   H866    1.082   .     S
C848   H869    1.074   .     S
C850   H851    1.084   .     S
H858   C366    1.111   1_455 S
N870   Zn883   2.022   .     S
N871   Zn884   2.022   .     S
O875   Zn883   1.983   .     S
O876   Zn884   2.006   .     S
O877   Zn883   1.964   .     S
O878   Zn884   1.936   .     S
O879   Zn883   2.006   .     S
O880   Zn884   1.983   .     S
O881   Zn883   1.936   .     S
O882   Zn884   1.964   .     S
C885   C893    1.410   .     S
C885   O943    1.284   .     A
C885   O944    1.288   .     A
C886   C903    1.420   .     A
C886   C888    1.476   .     S
C886   C907    1.420   .     A
C887   C893    1.390   .     A
C887   H920    1.084   .     S
C887   C1093   1.372   .     S
C888   O946    1.304   .     A
C888   O945    1.296   .     A
C889   H930    1.084   .     S
C889   C890    1.401   .     A
C890   C891    1.408   .     A
C890   C899    1.422   .     S
C891   C906    1.443   .     S
C892   H931    1.086   .     S
C892   C893    1.393   .     A
C892   C1095   1.373   .     S
C894   N939    1.356   .     A
C894   H932    1.082   .     S
C894   C963    1.420   .     S
C895   N938    1.387   .     A
C895   C908    1.501   .     S
C896   C907    1.405   .     A
C896   C293    1.412   1_556 S
C896   C301    1.412   1_556 S
C897   N938    1.356   .     A
C897   H933    1.083   .     S
C898   N939    1.383   .     A
C898   C909    1.436   .     S
C898   C965    1.414   .     S
C899   O948    1.287   .     A
C899   O947    1.289   .     A
C900   O949    1.290   .     A
C900   O950    1.304   .     A
C900   C902    1.463   .     S
C901   C918    1.409   .     A
C902   C918    1.404   .     A
C902   C917    1.406   .     A
C903   C912    1.444   .     S
C903   C904    1.390   .     A
C904   C293    1.385   1_556 S
C904   H324    1.084   1_556 S
C905   H935    1.079   .     S
C906   N940    1.156   .     T
C907   C916    1.411   .     A
C908   H922    1.104   .     S
C908   H921    1.103   .     S
C908   H923    1.111   .     S
C909   N941    1.158   .     T
C910   H924    1.107   .     S
C910   H925    1.110   .     S
C910   C289    1.506   1_556 S
C910   H382    1.111   1_556 S
C911   H929    1.109   .     S
C911   C917    1.524   .     S
C911   H927    1.111   .     S
C911   H928    1.111   .     S
C912   N942    1.157   .     T
C913   C917    1.385   .     A
C914   C915    1.398   .     A
C914   C289    1.419   1_556 S
C914   C301    1.413   1_556 S
C915   C916    1.393   .     A
C915   H934    1.082   .     S
C916   H937    1.074   .     S
C918   H919    1.084   .     S
N938   Zn951   2.022   .     S
N939   Zn952   2.022   .     S
O943   Zn951   1.983   .     S
O944   Zn952   2.006   .     S
O945   Zn951   1.964   .     S
O946   Zn952   1.936   .     S
O947   Zn951   2.006   .     S
O948   Zn952   1.983   .     S
O949   Zn951   1.936   .     S
O950   Zn952   1.964   .     S
C953   C961    1.410   .     S
C953   O1011   1.284   .     A
C953   O1012   1.288   .     A
C954   C971    1.420   .     A
C954   C956    1.476   .     S
C954   C975    1.420   .     A
C955   C961    1.390   .     A
C955   H988    1.084   .     S
C955   C1161   1.372   .     S
C956   O1014   1.304   .     A
C956   O1013   1.296   .     A
C957   H998    1.084   .     S
C957   C958    1.401   .     A
C958   C959    1.408   .     A
C958   C967    1.422   .     S
C959   C974    1.443   .     S
C960   H999    1.086   .     S
C960   C961    1.393   .     A
C960   C1163   1.373   .     S
C962   N1007   1.356   .     A
C962   H1000   1.082   .     S
C962   C827    1.420   1_655 S
C963   N1006   1.387   .     A
C963   C976    1.501   .     S
C964   C975    1.405   .     A
C964   C361    1.412   1_556 S
C964   C369    1.412   1_556 S
C965   N1006   1.356   .     A
C965   H1001   1.083   .     S
C966   N1007   1.383   .     A
C966   C977    1.436   .     S
C966   C829    1.414   1_655 S
C967   O1016   1.287   .     A
C967   O1015   1.289   .     A
C968   O1017   1.290   .     A
C968   O1018   1.304   .     A
C968   C970    1.463   .     S
C969   C986    1.409   .     A
C970   C986    1.404   .     A
C970   C985    1.406   .     A
C971   C980    1.444   .     S
C971   C972    1.390   .     A
C972   C361    1.385   1_556 S
C972   H392    1.084   1_556 S
C973   H1003   1.079   .     S
C974   N1008   1.156   .     T
C975   C984    1.411   .     A
C976   H990    1.104   .     S
C976   H989    1.103   .     S
C976   H991    1.111   .     S
C977   N1009   1.158   .     T
C978   H992    1.107   .     S
C978   H993    1.110   .     S
C978   C357    1.506   1_556 S
C978   H246    1.111   1_656 S
C979   H997    1.109   .     S
C979   C985    1.524   .     S
C979   H995    1.111   .     S
C979   H996    1.111   .     S
C980   N1010   1.157   .     T
C981   C985    1.385   .     A
C982   C983    1.398   .     A
C982   C357    1.419   1_556 S
C982   C369    1.413   1_556 S
C983   C984    1.393   .     A
C983   H1002   1.082   .     S
C984   H1005   1.074   .     S
C986   H987    1.084   .     S
N1006  Zn1019  2.022   .     S
N1007  Zn1020  2.022   .     S
O1011  Zn1019  1.983   .     S
O1012  Zn1020  2.006   .     S
O1013  Zn1019  1.964   .     S
O1014  Zn1020  1.936   .     S
O1015  Zn1019  2.006   .     S
O1016  Zn1020  1.983   .     S
O1017  Zn1019  1.936   .     S
O1018  Zn1020  1.964   .     S
C1021  C1029   1.410   .     S
C1021  O1079   1.284   .     A
C1021  O1080   1.288   .     A
C1022  C1039   1.420   .     A
C1022  C1024   1.476   .     S
C1022  C1043   1.420   .     A
C1023  C1029   1.390   .     A
C1023  H1056   1.084   .     S
C1023  C617    1.372   1_565 S
C1024  O1082   1.304   .     A
C1024  O1081   1.296   .     A
C1025  H1066   1.084   .     S
C1025  C1026   1.401   .     A
C1026  C1027   1.408   .     A
C1026  C1035   1.422   .     S
C1027  C1042   1.443   .     S
C1028  H1067   1.086   .     S
C1028  C1029   1.393   .     A
C1028  C619    1.373   1_565 S
C1030  N1075   1.356   .     A
C1030  H1068   1.082   .     S
C1030  C1099   1.420   .     S
C1031  N1074   1.387   .     A
C1031  C1044   1.501   .     S
C1031  C1166   1.420   1_455 S
C1032  C1043   1.405   .     A
C1032  C429    1.412   1_556 S
C1032  C437    1.412   1_556 S
C1033  N1074   1.356   .     A
C1033  H1069   1.083   .     S
C1033  C1170   1.414   1_455 S
C1034  N1075   1.383   .     A
C1034  C1045   1.436   .     S
C1034  C1101   1.414   .     S
C1035  O1084   1.287   .     A
C1035  O1083   1.289   .     A
C1036  O1085   1.290   .     A
C1036  O1086   1.304   .     A
C1036  C1038   1.463   .     S
C1037  C1054   1.409   .     A
C1038  C1054   1.404   .     A
C1038  C1053   1.406   .     A
C1039  C1048   1.444   .     S
C1039  C1040   1.390   .     A
C1040  C429    1.385   1_556 S
C1040  H460    1.084   1_556 S
C1041  H1071   1.079   .     S
C1042  N1076   1.156   .     T
C1043  C1052   1.411   .     A
C1044  H1058   1.104   .     S
C1044  H1057   1.103   .     S
C1044  H1059   1.111   .     S
C1045  N1077   1.158   .     T
C1046  H1060   1.107   .     S
C1046  H1061   1.110   .     S
C1046  C425    1.506   1_556 S
C1046  H518    1.111   1_556 S
C1047  H1065   1.109   .     S
C1047  C1053   1.524   .     S
C1047  H1063   1.111   .     S
C1047  H1064   1.111   .     S
C1048  N1078   1.157   .     T
C1049  C1053   1.385   .     A
C1050  C1051   1.398   .     A
C1050  C425    1.419   1_556 S
C1050  C437    1.413   1_556 S
C1051  C1052   1.393   .     A
C1051  H1070   1.082   .     S
C1052  H1073   1.074   .     S
C1054  H1055   1.084   .     S
H1062  C570    1.111   1_455 S
N1074  Zn1087  2.022   .     S
N1075  Zn1088  2.022   .     S
O1079  Zn1087  1.983   .     S
O1080  Zn1088  2.006   .     S
O1081  Zn1087  1.964   .     S
O1082  Zn1088  1.936   .     S
O1083  Zn1087  2.006   .     S
O1084  Zn1088  1.983   .     S
O1085  Zn1087  1.936   .     S
O1086  Zn1088  1.964   .     S
C1089  C1097   1.410   .     S
C1089  O1147   1.284   .     A
C1089  O1148   1.288   .     A
C1090  C1107   1.420   .     A
C1090  C1092   1.476   .     S
C1090  C1111   1.420   .     A
C1091  C1097   1.390   .     A
C1091  H1124   1.084   .     S
C1091  C685    1.372   1_565 S
C1092  O1150   1.304   .     A
C1092  O1149   1.296   .     A
C1093  H1134   1.084   .     S
C1093  C1094   1.401   .     A
C1094  C1095   1.408   .     A
C1094  C1103   1.422   .     S
C1095  C1110   1.443   .     S
C1096  H1135   1.086   .     S
C1096  C1097   1.393   .     A
C1096  C687    1.373   1_565 S
C1098  N1143   1.356   .     A
C1098  H1136   1.082   .     S
C1098  C1167   1.420   .     S
C1099  N1142   1.387   .     A
C1099  C1112   1.501   .     S
C1100  C1111   1.405   .     A
C1100  C497    1.412   1_556 S
C1100  C505    1.412   1_556 S
C1101  N1142   1.356   .     A
C1101  H1137   1.083   .     S
C1102  N1143   1.383   .     A
C1102  C1113   1.436   .     S
C1102  C1169   1.414   .     S
C1103  O1152   1.287   .     A
C1103  O1151   1.289   .     A
C1104  O1153   1.290   .     A
C1104  O1154   1.304   .     A
C1104  C1106   1.463   .     S
C1105  C1122   1.409   .     A
C1106  C1122   1.404   .     A
C1106  C1121   1.406   .     A
C1107  C1116   1.444   .     S
C1107  C1108   1.390   .     A
C1108  C497    1.385   1_556 S
C1108  H528    1.084   1_556 S
C1109  H1139   1.079   .     S
C1110  N1144   1.156   .     T
C1111  C1120   1.411   .     A
C1112  H1126   1.104   .     S
C1112  H1125   1.103   .     S
C1112  H1127   1.111   .     S
C1113  N1145   1.158   .     T
C1114  H1128   1.107   .     S
C1114  H1129   1.110   .     S
C1114  C493    1.506   1_556 S
C1114  H586    1.111   1_556 S
C1115  H1133   1.109   .     S
C1115  C1121   1.524   .     S
C1115  H1131   1.111   .     S
C1115  H1132   1.111   .     S
C1116  N1146   1.157   .     T
C1117  C1121   1.385   .     A
C1118  C1119   1.398   .     A
C1118  C493    1.419   1_556 S
C1118  C505    1.413   1_556 S
C1119  C1120   1.393   .     A
C1119  H1138   1.082   .     S
C1120  H1141   1.074   .     S
C1122  H1123   1.084   .     S
N1142  Zn1155  2.022   .     S
N1143  Zn1156  2.022   .     S
O1147  Zn1155  1.983   .     S
O1148  Zn1156  2.006   .     S
O1149  Zn1155  1.964   .     S
O1150  Zn1156  1.936   .     S
O1151  Zn1155  2.006   .     S
O1152  Zn1156  1.983   .     S
O1153  Zn1155  1.936   .     S
O1154  Zn1156  1.964   .     S
C1157  C1165   1.410   .     S
C1157  O1215   1.284   .     A
C1157  O1216   1.288   .     A
C1158  C1175   1.420   .     A
C1158  C1160   1.476   .     S
C1158  C1179   1.420   .     A
C1159  C1165   1.390   .     A
C1159  H1192   1.084   .     S
C1159  C753    1.372   1_565 S
C1160  O1218   1.304   .     A
C1160  O1217   1.296   .     A
C1161  H1202   1.084   .     S
C1161  C1162   1.401   .     A
C1162  C1163   1.408   .     A
C1162  C1171   1.422   .     S
C1163  C1178   1.443   .     S
C1164  H1203   1.086   .     S
C1164  C1165   1.393   .     A
C1164  C755    1.373   1_565 S
C1166  N1211   1.356   .     A
C1166  H1204   1.082   .     S
C1166  C1031   1.420   1_655 S
C1167  N1210   1.387   .     A
C1167  C1180   1.501   .     S
C1168  C1179   1.405   .     A
C1168  C565    1.412   1_556 S
C1168  C573    1.412   1_556 S
C1169  N1210   1.356   .     A
C1169  H1205   1.083   .     S
C1170  N1211   1.383   .     A
C1170  C1181   1.436   .     S
C1170  C1033   1.414   1_655 S
C1171  O1220   1.287   .     A
C1171  O1219   1.289   .     A
C1172  O1221   1.290   .     A
C1172  O1222   1.304   .     A
C1172  C1174   1.463   .     S
C1173  C1190   1.409   .     A
C1174  C1190   1.404   .     A
C1174  C1189   1.406   .     A
C1175  C1184   1.444   .     S
C1175  C1176   1.390   .     A
C1176  C565    1.385   1_556 S
C1176  H596    1.084   1_556 S
C1177  H1207   1.079   .     S
C1178  N1212   1.156   .     T
C1179  C1188   1.411   .     A
C1180  H1194   1.104   .     S
C1180  H1193   1.103   .     S
C1180  H1195   1.111   .     S
C1181  N1213   1.158   .     T
C1182  H1196   1.107   .     S
C1182  H1197   1.110   .     S
C1182  C561    1.506   1_556 S
C1182  H450    1.111   1_656 S
C1183  H1201   1.109   .     S
C1183  C1189   1.524   .     S
C1183  H1199   1.111   .     S
C1183  H1200   1.111   .     S
C1184  N1214   1.157   .     T
C1185  C1189   1.385   .     A
C1186  C1187   1.398   .     A
C1186  C561    1.419   1_556 S
C1186  C573    1.413   1_556 S
C1187  C1188   1.393   .     A
C1187  H1206   1.082   .     S
C1188  H1209   1.074   .     S
C1190  H1191   1.084   .     S
N1210  Zn1223  2.022   .     S
N1211  Zn1224  2.022   .     S
O1215  Zn1223  1.983   .     S
O1216  Zn1224  2.006   .     S
O1217  Zn1223  1.964   .     S
O1218  Zn1224  1.936   .     S
O1219  Zn1223  2.006   .     S
O1220  Zn1224  1.983   .     S
O1221  Zn1223  1.936   .     S
O1222  Zn1224  1.964   .     S
