data_str_m3_o2_o5_pcu_sym.37
_audit_creation_date              2020-01-03
_audit_creation_method            'Materials Studio'
_symmetry_space_group_name_H-M    'P1'
_symmetry_Int_Tables_number       1
_symmetry_cell_setting            triclinic
loop_
_symmetry_equiv_pos_as_xyz
  x,y,z
_cell_length_a                    30.0026
_cell_length_b                    28.4395
_cell_length_c                    26.6503
_cell_angle_alpha                 90.0015
_cell_angle_beta                  90.4741
_cell_angle_gamma                 90.0012
loop_
_atom_site_label
_atom_site_type_symbol
_atom_site_fract_x
_atom_site_fract_y
_atom_site_fract_z
_atom_site_U_iso_or_equiv
_atom_site_adp_type
_atom_site_occupancy
C1     C     0.16393   0.24998   0.16657   0.00000  Uiso   1.00
C2     C     0.21740   0.44735   0.14024   0.00000  Uiso   1.00
C3     C     0.25000   0.25000   0.07290   0.00000  Uiso   1.00
C4     C     0.25000   0.25000   0.26044   0.00000  Uiso   1.00
C5     C     0.25001   0.02648   0.16667   0.00000  Uiso   1.00
C6     C     0.25001   0.47319   0.16667   0.00000  Uiso   1.00
C7     C     0.25000   0.24998   0.02181   0.00000  Uiso   1.00
C8     C     0.24999   0.24998   0.31152   0.00000  Uiso   1.00
C9     C     0.04683   0.28911   0.14899   0.00000  Uiso   1.00
C10    C     0.45268   0.20990   0.14965   0.00000  Uiso   1.00
C11    C     0.45318   0.28912   0.18421   0.00000  Uiso   1.00
C12    C     0.33607   0.24998   0.16676   0.00000  Uiso   1.00
C13    C     0.04731   0.20991   0.18361   0.00000  Uiso   1.00
C14    C     0.09283   0.28941   0.14934   0.00000  Uiso   1.00
C15    C     0.40669   0.20995   0.14999   0.00000  Uiso   1.00
C16    C     0.40718   0.28942   0.18390   0.00000  Uiso   1.00
C17    C     0.09330   0.20995   0.18330   0.00000  Uiso   1.00
C18    C     0.11604   0.24981   0.16641   0.00000  Uiso   1.00
C19    C     0.38396   0.24981   0.16688   0.00000  Uiso   1.00
C20    C     0.02406   0.24947   0.16641   0.00000  Uiso   1.00
C21    C     0.47594   0.24948   0.16680   0.00000  Uiso   1.00
C22    C     0.16704   0.13135   0.09284   0.00000  Uiso   1.00
C23    C     0.23144   0.10193   0.12725   0.00000  Uiso   1.00
C24    C     0.14179   0.09898   0.05663   0.00000  Uiso   1.00
C25    C     0.09170   0.10825   0.05829   0.00000  Uiso   1.00
C26    C     0.30977   0.38005   0.27185   0.00000  Uiso   1.00
C27    C     0.34069   0.34596   0.29964   0.00000  Uiso   1.00
C28    C     0.33672   0.35123   0.02309   0.00000  Uiso   1.00
C29    C     0.33297   0.13130   0.24054   0.00000  Uiso   1.00
C30    C     0.35815   0.09905   0.27693   0.00000  Uiso   1.00
C31    C     0.40825   0.10822   0.27528   0.00000  Uiso   1.00
C32    C     0.19027   0.38003   0.06148   0.00000  Uiso   1.00
C33    C     0.15932   0.34598   0.03368   0.00000  Uiso   1.00
C34    C     0.28129   0.39762   0.19421   0.00000  Uiso   1.00
C35    C     0.16334   0.35122   0.31023   0.00000  Uiso   1.00
C36    C     0.26856   0.10194   0.20608   0.00000  Uiso   1.00
C37    C     0.21871   0.39762   0.13913   0.00000  Uiso   1.00
C38    C     0.23255   0.05234   0.12606   0.00000  Uiso   1.00
C39    C     0.28260   0.44735   0.19310   0.00000  Uiso   1.00
C40    C     0.26747   0.05235   0.20728   0.00000  Uiso   1.00
H41    H     0.02906   0.31958   0.13487   0.00000  Uiso   1.00
H42    H     0.30953   0.46539   0.21226   0.00000  Uiso   1.00
H43    H     0.27999   0.03447   0.24030   0.00000  Uiso   1.00
H44    H     0.19048   0.46539   0.12108   0.00000  Uiso   1.00
H45    H     0.15861   0.16830   0.08311   0.00000  Uiso   1.00
H46    H     0.15514   0.12541   0.13200   0.00000  Uiso   1.00
H47    H     0.15378   0.10490   0.01778   0.00000  Uiso   1.00
H48    H     0.14805   0.06171   0.06685   0.00000  Uiso   1.00
H49    H     0.07889   0.10205   0.09673   0.00000  Uiso   1.00
H50    H     0.07422   0.08415   0.03191   0.00000  Uiso   1.00
H51    H     0.08435   0.14508   0.04705   0.00000  Uiso   1.00
H52    H     0.47005   0.17932   0.13548   0.00000  Uiso   1.00
H53    H     0.27491   0.37377   0.28442   0.00000  Uiso   1.00
H54    H     0.31981   0.41656   0.28181   0.00000  Uiso   1.00
H55    H     0.33223   0.30924   0.28894   0.00000  Uiso   1.00
H56    H     0.37574   0.35282   0.28862   0.00000  Uiso   1.00
H57    H     0.34635   0.38732   0.03484   0.00000  Uiso   1.00
H58    H     0.35914   0.32565   0.04211   0.00000  Uiso   1.00
H59    H     0.30201   0.34420   0.03498   0.00000  Uiso   1.00
H60    H     0.34143   0.16828   0.25015   0.00000  Uiso   1.00
H61    H     0.34492   0.12521   0.20143   0.00000  Uiso   1.00
H62    H     0.34612   0.10514   0.31573   0.00000  Uiso   1.00
H63    H     0.47096   0.31960   0.19831   0.00000  Uiso   1.00
H64    H     0.35183   0.06174   0.26687   0.00000  Uiso   1.00
H65    H     0.42109   0.10181   0.23690   0.00000  Uiso   1.00
H66    H     0.42566   0.08422   0.30182   0.00000  Uiso   1.00
H67    H     0.41564   0.14509   0.28633   0.00000  Uiso   1.00
H68    H     0.22513   0.37369   0.04895   0.00000  Uiso   1.00
H69    H     0.18030   0.41656   0.05150   0.00000  Uiso   1.00
H70    H     0.16771   0.30925   0.04441   0.00000  Uiso   1.00
H71    H     0.12426   0.35291   0.04467   0.00000  Uiso   1.00
H72    H     0.15380   0.38734   0.29846   0.00000  Uiso   1.00
H73    H     0.14086   0.32568   0.29121   0.00000  Uiso   1.00
H74    H     0.02993   0.17933   0.19778   0.00000  Uiso   1.00
H75    H     0.19805   0.34410   0.29838   0.00000  Uiso   1.00
H76    H     0.11013   0.32025   0.13581   0.00000  Uiso   1.00
H77    H     0.38898   0.17924   0.13635   0.00000  Uiso   1.00
H78    H     0.38989   0.32027   0.19744   0.00000  Uiso   1.00
H79    H     0.11100   0.17926   0.19697   0.00000  Uiso   1.00
H80    H     0.22004   0.03446   0.09303   0.00000  Uiso   1.00
N81    N     0.25000   0.12623   0.16667   0.00000  Uiso   1.00
N82    N     0.25000   0.37376   0.16667   0.00000  Uiso   1.00
O83    O     0.18453   0.28974   0.16667   0.00000  Uiso   1.00
O84    O     0.31376   0.37244   0.21968   0.00000  Uiso   1.00
O85    O     0.28638   0.12592   0.24654   0.00000  Uiso   1.00
O86    O     0.18624   0.37245   0.11365   0.00000  Uiso   1.00
O87    O     0.31547   0.21026   0.16666   0.00000  Uiso   1.00
O88    O     0.31547   0.28974   0.16666   0.00000  Uiso   1.00
O89    O     0.18453   0.21026   0.16667   0.00000  Uiso   1.00
O90    O     0.25000   0.28973   0.09511   0.00000  Uiso   1.00
O91    O     0.25000   0.21027   0.23822   0.00000  Uiso   1.00
O92    O     0.25000   0.28973   0.23822   0.00000  Uiso   1.00
O93    O     0.25000   0.21027   0.09511   0.00000  Uiso   1.00
O94    O     0.21362   0.12590   0.08679   0.00000  Uiso   1.00
Zn95   Zn    0.25000   0.30307   0.16667   0.00000  Uiso   1.00
Zn96   Zn    0.25000   0.19693   0.16667   0.00000  Uiso   1.00
C97    C     0.66393   0.24998   0.16657   0.00000  Uiso   1.00
C98    C     0.71740   0.44735   0.14024   0.00000  Uiso   1.00
C99    C     0.75000   0.25000   0.07290   0.00000  Uiso   1.00
C100   C     0.75000   0.25000   0.26044   0.00000  Uiso   1.00
C101   C     0.75001   0.02648   0.16667   0.00000  Uiso   1.00
C102   C     0.75001   0.47319   0.16667   0.00000  Uiso   1.00
C103   C     0.75000   0.24998   0.02181   0.00000  Uiso   1.00
C104   C     0.74999   0.24998   0.31152   0.00000  Uiso   1.00
C105   C     0.54683   0.28911   0.14899   0.00000  Uiso   1.00
C106   C     0.95268   0.20990   0.14965   0.00000  Uiso   1.00
C107   C     0.95318   0.28912   0.18421   0.00000  Uiso   1.00
C108   C     0.83607   0.24998   0.16676   0.00000  Uiso   1.00
C109   C     0.54731   0.20991   0.18361   0.00000  Uiso   1.00
C110   C     0.59283   0.28941   0.14934   0.00000  Uiso   1.00
C111   C     0.90669   0.20995   0.14999   0.00000  Uiso   1.00
C112   C     0.90718   0.28942   0.18390   0.00000  Uiso   1.00
C113   C     0.59330   0.20995   0.18330   0.00000  Uiso   1.00
C114   C     0.61604   0.24981   0.16641   0.00000  Uiso   1.00
C115   C     0.88396   0.24981   0.16688   0.00000  Uiso   1.00
C116   C     0.52406   0.24947   0.16641   0.00000  Uiso   1.00
C117   C     0.97594   0.24948   0.16680   0.00000  Uiso   1.00
C118   C     0.66704   0.13135   0.09284   0.00000  Uiso   1.00
C119   C     0.73144   0.10193   0.12725   0.00000  Uiso   1.00
C120   C     0.64179   0.09898   0.05663   0.00000  Uiso   1.00
C121   C     0.59170   0.10825   0.05829   0.00000  Uiso   1.00
C122   C     0.80977   0.38005   0.27185   0.00000  Uiso   1.00
C123   C     0.84069   0.34596   0.29964   0.00000  Uiso   1.00
C124   C     0.83672   0.35123   0.02309   0.00000  Uiso   1.00
C125   C     0.83297   0.13130   0.24054   0.00000  Uiso   1.00
C126   C     0.85815   0.09905   0.27693   0.00000  Uiso   1.00
C127   C     0.90825   0.10822   0.27528   0.00000  Uiso   1.00
C128   C     0.69027   0.38003   0.06148   0.00000  Uiso   1.00
C129   C     0.65932   0.34598   0.03368   0.00000  Uiso   1.00
C130   C     0.78129   0.39762   0.19421   0.00000  Uiso   1.00
C131   C     0.66334   0.35122   0.31023   0.00000  Uiso   1.00
C132   C     0.76856   0.10194   0.20608   0.00000  Uiso   1.00
C133   C     0.71871   0.39762   0.13913   0.00000  Uiso   1.00
C134   C     0.73255   0.05234   0.12606   0.00000  Uiso   1.00
C135   C     0.78260   0.44735   0.19310   0.00000  Uiso   1.00
C136   C     0.76747   0.05235   0.20728   0.00000  Uiso   1.00
H137   H     0.52906   0.31958   0.13487   0.00000  Uiso   1.00
H138   H     0.80953   0.46539   0.21226   0.00000  Uiso   1.00
H139   H     0.77999   0.03447   0.24030   0.00000  Uiso   1.00
H140   H     0.69048   0.46539   0.12108   0.00000  Uiso   1.00
H141   H     0.65861   0.16830   0.08311   0.00000  Uiso   1.00
H142   H     0.65514   0.12541   0.13200   0.00000  Uiso   1.00
H143   H     0.65378   0.10490   0.01778   0.00000  Uiso   1.00
H144   H     0.64805   0.06171   0.06685   0.00000  Uiso   1.00
H145   H     0.57889   0.10205   0.09673   0.00000  Uiso   1.00
H146   H     0.57422   0.08415   0.03191   0.00000  Uiso   1.00
H147   H     0.58435   0.14508   0.04705   0.00000  Uiso   1.00
H148   H     0.97005   0.17932   0.13548   0.00000  Uiso   1.00
H149   H     0.77491   0.37377   0.28442   0.00000  Uiso   1.00
H150   H     0.81981   0.41656   0.28181   0.00000  Uiso   1.00
H151   H     0.83223   0.30924   0.28894   0.00000  Uiso   1.00
H152   H     0.87574   0.35282   0.28862   0.00000  Uiso   1.00
H153   H     0.84635   0.38732   0.03484   0.00000  Uiso   1.00
H154   H     0.85914   0.32565   0.04211   0.00000  Uiso   1.00
H155   H     0.80201   0.34420   0.03498   0.00000  Uiso   1.00
H156   H     0.84143   0.16828   0.25015   0.00000  Uiso   1.00
H157   H     0.84492   0.12521   0.20143   0.00000  Uiso   1.00
H158   H     0.84612   0.10514   0.31573   0.00000  Uiso   1.00
H159   H     0.97096   0.31960   0.19831   0.00000  Uiso   1.00
H160   H     0.85183   0.06174   0.26687   0.00000  Uiso   1.00
H161   H     0.92109   0.10181   0.23690   0.00000  Uiso   1.00
H162   H     0.92566   0.08422   0.30182   0.00000  Uiso   1.00
H163   H     0.91564   0.14509   0.28633   0.00000  Uiso   1.00
H164   H     0.72513   0.37369   0.04895   0.00000  Uiso   1.00
H165   H     0.68030   0.41656   0.05150   0.00000  Uiso   1.00
H166   H     0.66771   0.30925   0.04441   0.00000  Uiso   1.00
H167   H     0.62426   0.35291   0.04467   0.00000  Uiso   1.00
H168   H     0.65380   0.38734   0.29846   0.00000  Uiso   1.00
H169   H     0.64086   0.32568   0.29121   0.00000  Uiso   1.00
H170   H     0.52993   0.17933   0.19778   0.00000  Uiso   1.00
H171   H     0.69805   0.34410   0.29838   0.00000  Uiso   1.00
H172   H     0.61013   0.32025   0.13581   0.00000  Uiso   1.00
H173   H     0.88898   0.17924   0.13635   0.00000  Uiso   1.00
H174   H     0.88989   0.32027   0.19744   0.00000  Uiso   1.00
H175   H     0.61100   0.17926   0.19697   0.00000  Uiso   1.00
H176   H     0.72004   0.03446   0.09303   0.00000  Uiso   1.00
N177   N     0.75000   0.12623   0.16667   0.00000  Uiso   1.00
N178   N     0.75000   0.37376   0.16667   0.00000  Uiso   1.00
O179   O     0.68453   0.28974   0.16667   0.00000  Uiso   1.00
O180   O     0.81376   0.37244   0.21968   0.00000  Uiso   1.00
O181   O     0.78638   0.12592   0.24654   0.00000  Uiso   1.00
O182   O     0.68624   0.37245   0.11365   0.00000  Uiso   1.00
O183   O     0.81547   0.21026   0.16666   0.00000  Uiso   1.00
O184   O     0.81547   0.28974   0.16666   0.00000  Uiso   1.00
O185   O     0.68453   0.21026   0.16667   0.00000  Uiso   1.00
O186   O     0.75000   0.28973   0.09511   0.00000  Uiso   1.00
O187   O     0.75000   0.21027   0.23822   0.00000  Uiso   1.00
O188   O     0.75000   0.28973   0.23822   0.00000  Uiso   1.00
O189   O     0.75000   0.21027   0.09511   0.00000  Uiso   1.00
O190   O     0.71362   0.12590   0.08679   0.00000  Uiso   1.00
Zn191  Zn    0.75000   0.30307   0.16667   0.00000  Uiso   1.00
Zn192  Zn    0.75000   0.19693   0.16667   0.00000  Uiso   1.00
C193   C     0.16393   0.74998   0.16657   0.00000  Uiso   1.00
C194   C     0.21740   0.94735   0.14024   0.00000  Uiso   1.00
C195   C     0.25000   0.75000   0.07290   0.00000  Uiso   1.00
C196   C     0.25000   0.75000   0.26044   0.00000  Uiso   1.00
C197   C     0.25001   0.52648   0.16667   0.00000  Uiso   1.00
C198   C     0.25001   0.97319   0.16667   0.00000  Uiso   1.00
C199   C     0.25000   0.74998   0.02181   0.00000  Uiso   1.00
C200   C     0.24999   0.74998   0.31152   0.00000  Uiso   1.00
C201   C     0.04683   0.78911   0.14899   0.00000  Uiso   1.00
C202   C     0.45268   0.70990   0.14965   0.00000  Uiso   1.00
C203   C     0.45318   0.78912   0.18421   0.00000  Uiso   1.00
C204   C     0.33607   0.74998   0.16676   0.00000  Uiso   1.00
C205   C     0.04731   0.70991   0.18361   0.00000  Uiso   1.00
C206   C     0.09283   0.78941   0.14934   0.00000  Uiso   1.00
C207   C     0.40669   0.70995   0.14999   0.00000  Uiso   1.00
C208   C     0.40718   0.78942   0.18390   0.00000  Uiso   1.00
C209   C     0.09330   0.70995   0.18330   0.00000  Uiso   1.00
C210   C     0.11604   0.74981   0.16641   0.00000  Uiso   1.00
C211   C     0.38396   0.74981   0.16688   0.00000  Uiso   1.00
C212   C     0.02406   0.74947   0.16641   0.00000  Uiso   1.00
C213   C     0.47594   0.74948   0.16680   0.00000  Uiso   1.00
C214   C     0.16704   0.63135   0.09284   0.00000  Uiso   1.00
C215   C     0.23144   0.60193   0.12725   0.00000  Uiso   1.00
C216   C     0.14179   0.59898   0.05663   0.00000  Uiso   1.00
C217   C     0.09170   0.60825   0.05829   0.00000  Uiso   1.00
C218   C     0.30977   0.88005   0.27185   0.00000  Uiso   1.00
C219   C     0.34069   0.84596   0.29964   0.00000  Uiso   1.00
C220   C     0.33672   0.85123   0.02309   0.00000  Uiso   1.00
C221   C     0.33297   0.63130   0.24054   0.00000  Uiso   1.00
C222   C     0.35815   0.59905   0.27693   0.00000  Uiso   1.00
C223   C     0.40825   0.60822   0.27528   0.00000  Uiso   1.00
C224   C     0.19027   0.88003   0.06148   0.00000  Uiso   1.00
C225   C     0.15932   0.84598   0.03368   0.00000  Uiso   1.00
C226   C     0.28129   0.89762   0.19421   0.00000  Uiso   1.00
C227   C     0.16334   0.85122   0.31023   0.00000  Uiso   1.00
C228   C     0.26856   0.60194   0.20608   0.00000  Uiso   1.00
C229   C     0.21871   0.89762   0.13913   0.00000  Uiso   1.00
C230   C     0.23255   0.55234   0.12606   0.00000  Uiso   1.00
C231   C     0.28260   0.94735   0.19310   0.00000  Uiso   1.00
C232   C     0.26747   0.55235   0.20728   0.00000  Uiso   1.00
H233   H     0.02906   0.81958   0.13487   0.00000  Uiso   1.00
H234   H     0.30953   0.96539   0.21226   0.00000  Uiso   1.00
H235   H     0.27999   0.53447   0.24030   0.00000  Uiso   1.00
H236   H     0.19048   0.96539   0.12108   0.00000  Uiso   1.00
H237   H     0.15861   0.66830   0.08311   0.00000  Uiso   1.00
H238   H     0.15514   0.62541   0.13200   0.00000  Uiso   1.00
H239   H     0.15378   0.60490   0.01778   0.00000  Uiso   1.00
H240   H     0.14805   0.56171   0.06685   0.00000  Uiso   1.00
H241   H     0.07889   0.60205   0.09673   0.00000  Uiso   1.00
H242   H     0.07422   0.58415   0.03191   0.00000  Uiso   1.00
H243   H     0.08435   0.64508   0.04705   0.00000  Uiso   1.00
H244   H     0.47005   0.67932   0.13548   0.00000  Uiso   1.00
H245   H     0.27491   0.87377   0.28442   0.00000  Uiso   1.00
H246   H     0.31981   0.91656   0.28181   0.00000  Uiso   1.00
H247   H     0.33223   0.80924   0.28894   0.00000  Uiso   1.00
H248   H     0.37574   0.85282   0.28862   0.00000  Uiso   1.00
H249   H     0.34635   0.88732   0.03484   0.00000  Uiso   1.00
H250   H     0.35914   0.82565   0.04211   0.00000  Uiso   1.00
H251   H     0.30201   0.84420   0.03498   0.00000  Uiso   1.00
H252   H     0.34143   0.66828   0.25015   0.00000  Uiso   1.00
H253   H     0.34492   0.62521   0.20143   0.00000  Uiso   1.00
H254   H     0.34612   0.60514   0.31573   0.00000  Uiso   1.00
H255   H     0.47096   0.81960   0.19831   0.00000  Uiso   1.00
H256   H     0.35183   0.56174   0.26687   0.00000  Uiso   1.00
H257   H     0.42109   0.60181   0.23690   0.00000  Uiso   1.00
H258   H     0.42566   0.58422   0.30182   0.00000  Uiso   1.00
H259   H     0.41564   0.64509   0.28633   0.00000  Uiso   1.00
H260   H     0.22513   0.87369   0.04895   0.00000  Uiso   1.00
H261   H     0.18030   0.91656   0.05150   0.00000  Uiso   1.00
H262   H     0.16771   0.80925   0.04441   0.00000  Uiso   1.00
H263   H     0.12426   0.85291   0.04467   0.00000  Uiso   1.00
H264   H     0.15380   0.88734   0.29846   0.00000  Uiso   1.00
H265   H     0.14086   0.82568   0.29121   0.00000  Uiso   1.00
H266   H     0.02993   0.67933   0.19778   0.00000  Uiso   1.00
H267   H     0.19805   0.84410   0.29838   0.00000  Uiso   1.00
H268   H     0.11013   0.82025   0.13581   0.00000  Uiso   1.00
H269   H     0.38898   0.67924   0.13635   0.00000  Uiso   1.00
H270   H     0.38989   0.82027   0.19744   0.00000  Uiso   1.00
H271   H     0.11100   0.67926   0.19697   0.00000  Uiso   1.00
H272   H     0.22004   0.53446   0.09303   0.00000  Uiso   1.00
N273   N     0.25000   0.62623   0.16667   0.00000  Uiso   1.00
N274   N     0.25000   0.87376   0.16667   0.00000  Uiso   1.00
O275   O     0.18453   0.78974   0.16667   0.00000  Uiso   1.00
O276   O     0.31376   0.87244   0.21968   0.00000  Uiso   1.00
O277   O     0.28638   0.62592   0.24654   0.00000  Uiso   1.00
O278   O     0.18624   0.87245   0.11365   0.00000  Uiso   1.00
O279   O     0.31547   0.71026   0.16666   0.00000  Uiso   1.00
O280   O     0.31547   0.78974   0.16666   0.00000  Uiso   1.00
O281   O     0.18453   0.71026   0.16667   0.00000  Uiso   1.00
O282   O     0.25000   0.78973   0.09511   0.00000  Uiso   1.00
O283   O     0.25000   0.71027   0.23822   0.00000  Uiso   1.00
O284   O     0.25000   0.78973   0.23822   0.00000  Uiso   1.00
O285   O     0.25000   0.71027   0.09511   0.00000  Uiso   1.00
O286   O     0.21362   0.62590   0.08679   0.00000  Uiso   1.00
Zn287  Zn    0.25000   0.80307   0.16667   0.00000  Uiso   1.00
Zn288  Zn    0.25000   0.69693   0.16667   0.00000  Uiso   1.00
C289   C     0.66393   0.74998   0.16657   0.00000  Uiso   1.00
C290   C     0.71740   0.94735   0.14024   0.00000  Uiso   1.00
C291   C     0.75000   0.75000   0.07290   0.00000  Uiso   1.00
C292   C     0.75000   0.75000   0.26044   0.00000  Uiso   1.00
C293   C     0.75001   0.52648   0.16667   0.00000  Uiso   1.00
C294   C     0.75001   0.97319   0.16667   0.00000  Uiso   1.00
C295   C     0.75000   0.74998   0.02181   0.00000  Uiso   1.00
C296   C     0.74999   0.74998   0.31152   0.00000  Uiso   1.00
C297   C     0.54683   0.78911   0.14899   0.00000  Uiso   1.00
C298   C     0.95268   0.70990   0.14965   0.00000  Uiso   1.00
C299   C     0.95318   0.78912   0.18421   0.00000  Uiso   1.00
C300   C     0.83607   0.74998   0.16676   0.00000  Uiso   1.00
C301   C     0.54731   0.70991   0.18361   0.00000  Uiso   1.00
C302   C     0.59283   0.78941   0.14934   0.00000  Uiso   1.00
C303   C     0.90669   0.70995   0.14999   0.00000  Uiso   1.00
C304   C     0.90718   0.78942   0.18390   0.00000  Uiso   1.00
C305   C     0.59330   0.70995   0.18330   0.00000  Uiso   1.00
C306   C     0.61604   0.74981   0.16641   0.00000  Uiso   1.00
C307   C     0.88396   0.74981   0.16688   0.00000  Uiso   1.00
C308   C     0.52406   0.74947   0.16641   0.00000  Uiso   1.00
C309   C     0.97594   0.74948   0.16680   0.00000  Uiso   1.00
C310   C     0.66704   0.63135   0.09284   0.00000  Uiso   1.00
C311   C     0.73144   0.60193   0.12725   0.00000  Uiso   1.00
C312   C     0.64179   0.59898   0.05663   0.00000  Uiso   1.00
C313   C     0.59170   0.60825   0.05829   0.00000  Uiso   1.00
C314   C     0.80977   0.88005   0.27185   0.00000  Uiso   1.00
C315   C     0.84069   0.84596   0.29964   0.00000  Uiso   1.00
C316   C     0.83672   0.85123   0.02309   0.00000  Uiso   1.00
C317   C     0.83297   0.63130   0.24054   0.00000  Uiso   1.00
C318   C     0.85815   0.59905   0.27693   0.00000  Uiso   1.00
C319   C     0.90825   0.60822   0.27528   0.00000  Uiso   1.00
C320   C     0.69027   0.88003   0.06148   0.00000  Uiso   1.00
C321   C     0.65932   0.84598   0.03368   0.00000  Uiso   1.00
C322   C     0.78129   0.89762   0.19421   0.00000  Uiso   1.00
C323   C     0.66334   0.85122   0.31023   0.00000  Uiso   1.00
C324   C     0.76856   0.60194   0.20608   0.00000  Uiso   1.00
C325   C     0.71871   0.89762   0.13913   0.00000  Uiso   1.00
C326   C     0.73255   0.55234   0.12606   0.00000  Uiso   1.00
C327   C     0.78260   0.94735   0.19310   0.00000  Uiso   1.00
C328   C     0.76747   0.55235   0.20728   0.00000  Uiso   1.00
H329   H     0.52906   0.81958   0.13487   0.00000  Uiso   1.00
H330   H     0.80953   0.96539   0.21226   0.00000  Uiso   1.00
H331   H     0.77999   0.53447   0.24030   0.00000  Uiso   1.00
H332   H     0.69048   0.96539   0.12108   0.00000  Uiso   1.00
H333   H     0.65861   0.66830   0.08311   0.00000  Uiso   1.00
H334   H     0.65514   0.62541   0.13200   0.00000  Uiso   1.00
H335   H     0.65378   0.60490   0.01778   0.00000  Uiso   1.00
H336   H     0.64805   0.56171   0.06685   0.00000  Uiso   1.00
H337   H     0.57889   0.60205   0.09673   0.00000  Uiso   1.00
H338   H     0.57422   0.58415   0.03191   0.00000  Uiso   1.00
H339   H     0.58435   0.64508   0.04705   0.00000  Uiso   1.00
H340   H     0.97005   0.67932   0.13548   0.00000  Uiso   1.00
H341   H     0.77491   0.87377   0.28442   0.00000  Uiso   1.00
H342   H     0.81981   0.91656   0.28181   0.00000  Uiso   1.00
H343   H     0.83223   0.80924   0.28894   0.00000  Uiso   1.00
H344   H     0.87574   0.85282   0.28862   0.00000  Uiso   1.00
H345   H     0.84635   0.88732   0.03484   0.00000  Uiso   1.00
H346   H     0.85914   0.82565   0.04211   0.00000  Uiso   1.00
H347   H     0.80201   0.84420   0.03498   0.00000  Uiso   1.00
H348   H     0.84143   0.66828   0.25015   0.00000  Uiso   1.00
H349   H     0.84492   0.62521   0.20143   0.00000  Uiso   1.00
H350   H     0.84612   0.60514   0.31573   0.00000  Uiso   1.00
H351   H     0.97096   0.81960   0.19831   0.00000  Uiso   1.00
H352   H     0.85183   0.56174   0.26687   0.00000  Uiso   1.00
H353   H     0.92109   0.60181   0.23690   0.00000  Uiso   1.00
H354   H     0.92566   0.58422   0.30182   0.00000  Uiso   1.00
H355   H     0.91564   0.64509   0.28633   0.00000  Uiso   1.00
H356   H     0.72513   0.87369   0.04895   0.00000  Uiso   1.00
H357   H     0.68030   0.91656   0.05150   0.00000  Uiso   1.00
H358   H     0.66771   0.80925   0.04441   0.00000  Uiso   1.00
H359   H     0.62426   0.85291   0.04467   0.00000  Uiso   1.00
H360   H     0.65380   0.88734   0.29846   0.00000  Uiso   1.00
H361   H     0.64086   0.82568   0.29121   0.00000  Uiso   1.00
H362   H     0.52993   0.67933   0.19778   0.00000  Uiso   1.00
H363   H     0.69805   0.84410   0.29838   0.00000  Uiso   1.00
H364   H     0.61013   0.82025   0.13581   0.00000  Uiso   1.00
H365   H     0.88898   0.67924   0.13635   0.00000  Uiso   1.00
H366   H     0.88989   0.82027   0.19744   0.00000  Uiso   1.00
H367   H     0.61100   0.67926   0.19697   0.00000  Uiso   1.00
H368   H     0.72004   0.53446   0.09303   0.00000  Uiso   1.00
N369   N     0.75000   0.62623   0.16667   0.00000  Uiso   1.00
N370   N     0.75000   0.87376   0.16667   0.00000  Uiso   1.00
O371   O     0.68453   0.78974   0.16667   0.00000  Uiso   1.00
O372   O     0.81376   0.87244   0.21968   0.00000  Uiso   1.00
O373   O     0.78638   0.62592   0.24654   0.00000  Uiso   1.00
O374   O     0.68624   0.87245   0.11365   0.00000  Uiso   1.00
O375   O     0.81547   0.71026   0.16666   0.00000  Uiso   1.00
O376   O     0.81547   0.78974   0.16666   0.00000  Uiso   1.00
O377   O     0.68453   0.71026   0.16667   0.00000  Uiso   1.00
O378   O     0.75000   0.78973   0.09511   0.00000  Uiso   1.00
O379   O     0.75000   0.71027   0.23822   0.00000  Uiso   1.00
O380   O     0.75000   0.78973   0.23822   0.00000  Uiso   1.00
O381   O     0.75000   0.71027   0.09511   0.00000  Uiso   1.00
O382   O     0.71362   0.62590   0.08679   0.00000  Uiso   1.00
Zn383  Zn    0.75000   0.80307   0.16667   0.00000  Uiso   1.00
Zn384  Zn    0.75000   0.69693   0.16667   0.00000  Uiso   1.00
C385   C     0.16393   0.24998   0.49990   0.00000  Uiso   1.00
C386   C     0.21740   0.44735   0.47358   0.00000  Uiso   1.00
C387   C     0.25000   0.25000   0.40623   0.00000  Uiso   1.00
C388   C     0.25000   0.25000   0.59377   0.00000  Uiso   1.00
C389   C     0.25001   0.02648   0.50000   0.00000  Uiso   1.00
C390   C     0.25001   0.47319   0.50001   0.00000  Uiso   1.00
C391   C     0.25000   0.24998   0.35514   0.00000  Uiso   1.00
C392   C     0.24999   0.24998   0.64486   0.00000  Uiso   1.00
C393   C     0.04683   0.28911   0.48233   0.00000  Uiso   1.00
C394   C     0.45268   0.20990   0.48298   0.00000  Uiso   1.00
C395   C     0.45318   0.28912   0.51755   0.00000  Uiso   1.00
C396   C     0.33607   0.24998   0.50009   0.00000  Uiso   1.00
C397   C     0.04731   0.20991   0.51694   0.00000  Uiso   1.00
C398   C     0.09283   0.28941   0.48268   0.00000  Uiso   1.00
C399   C     0.40669   0.20995   0.48333   0.00000  Uiso   1.00
C400   C     0.40718   0.28942   0.51724   0.00000  Uiso   1.00
C401   C     0.09330   0.20995   0.51663   0.00000  Uiso   1.00
C402   C     0.11604   0.24981   0.49974   0.00000  Uiso   1.00
C403   C     0.38396   0.24981   0.50022   0.00000  Uiso   1.00
C404   C     0.02406   0.24947   0.49975   0.00000  Uiso   1.00
C405   C     0.47594   0.24948   0.50014   0.00000  Uiso   1.00
C406   C     0.16704   0.13135   0.42618   0.00000  Uiso   1.00
C407   C     0.23144   0.10193   0.46058   0.00000  Uiso   1.00
C408   C     0.14179   0.09898   0.38996   0.00000  Uiso   1.00
C409   C     0.09170   0.10825   0.39163   0.00000  Uiso   1.00
C410   C     0.30977   0.38005   0.60518   0.00000  Uiso   1.00
C411   C     0.34069   0.34596   0.63297   0.00000  Uiso   1.00
C412   C     0.33672   0.35123   0.35642   0.00000  Uiso   1.00
C413   C     0.33297   0.13130   0.57387   0.00000  Uiso   1.00
C414   C     0.35815   0.09905   0.61026   0.00000  Uiso   1.00
C415   C     0.40825   0.10822   0.60862   0.00000  Uiso   1.00
C416   C     0.19027   0.38003   0.39482   0.00000  Uiso   1.00
C417   C     0.15932   0.34598   0.36701   0.00000  Uiso   1.00
C418   C     0.28129   0.39762   0.52755   0.00000  Uiso   1.00
C419   C     0.16334   0.35122   0.64357   0.00000  Uiso   1.00
C420   C     0.26856   0.10194   0.53941   0.00000  Uiso   1.00
C421   C     0.21871   0.39762   0.47246   0.00000  Uiso   1.00
C422   C     0.23255   0.05234   0.45939   0.00000  Uiso   1.00
C423   C     0.28260   0.44735   0.52643   0.00000  Uiso   1.00
C424   C     0.26747   0.05235   0.54061   0.00000  Uiso   1.00
H425   H     0.02906   0.31958   0.46820   0.00000  Uiso   1.00
H426   H     0.30953   0.46539   0.54560   0.00000  Uiso   1.00
H427   H     0.27999   0.03447   0.57364   0.00000  Uiso   1.00
H428   H     0.19048   0.46539   0.45442   0.00000  Uiso   1.00
H429   H     0.15861   0.16830   0.41644   0.00000  Uiso   1.00
H430   H     0.15514   0.12541   0.46533   0.00000  Uiso   1.00
H431   H     0.15378   0.10490   0.35112   0.00000  Uiso   1.00
H432   H     0.14805   0.06171   0.40018   0.00000  Uiso   1.00
H433   H     0.07889   0.10205   0.43006   0.00000  Uiso   1.00
H434   H     0.07422   0.08415   0.36525   0.00000  Uiso   1.00
H435   H     0.08435   0.14508   0.38038   0.00000  Uiso   1.00
H436   H     0.47005   0.17932   0.46882   0.00000  Uiso   1.00
H437   H     0.27491   0.37377   0.61775   0.00000  Uiso   1.00
H438   H     0.31981   0.41656   0.61514   0.00000  Uiso   1.00
H439   H     0.33223   0.30924   0.62227   0.00000  Uiso   1.00
H440   H     0.37574   0.35282   0.62195   0.00000  Uiso   1.00
H441   H     0.34635   0.38732   0.36817   0.00000  Uiso   1.00
H442   H     0.35914   0.32565   0.37544   0.00000  Uiso   1.00
H443   H     0.30201   0.34420   0.36831   0.00000  Uiso   1.00
H444   H     0.34143   0.16828   0.58348   0.00000  Uiso   1.00
H445   H     0.34492   0.12521   0.53477   0.00000  Uiso   1.00
H446   H     0.34612   0.10514   0.64906   0.00000  Uiso   1.00
H447   H     0.47096   0.31960   0.53165   0.00000  Uiso   1.00
H448   H     0.35183   0.06174   0.60021   0.00000  Uiso   1.00
H449   H     0.42109   0.10181   0.57024   0.00000  Uiso   1.00
H450   H     0.42566   0.08422   0.63515   0.00000  Uiso   1.00
H451   H     0.41564   0.14509   0.61967   0.00000  Uiso   1.00
H452   H     0.22513   0.37369   0.38228   0.00000  Uiso   1.00
H453   H     0.18030   0.41656   0.38483   0.00000  Uiso   1.00
H454   H     0.16771   0.30925   0.37774   0.00000  Uiso   1.00
H455   H     0.12426   0.35291   0.37800   0.00000  Uiso   1.00
H456   H     0.15380   0.38734   0.63180   0.00000  Uiso   1.00
H457   H     0.14086   0.32568   0.62454   0.00000  Uiso   1.00
H458   H     0.02993   0.17933   0.53111   0.00000  Uiso   1.00
H459   H     0.19805   0.34410   0.63172   0.00000  Uiso   1.00
H460   H     0.11013   0.32025   0.46914   0.00000  Uiso   1.00
H461   H     0.38898   0.17924   0.46969   0.00000  Uiso   1.00
H462   H     0.38989   0.32027   0.53077   0.00000  Uiso   1.00
H463   H     0.11100   0.17926   0.53030   0.00000  Uiso   1.00
H464   H     0.22004   0.03446   0.42636   0.00000  Uiso   1.00
N465   N     0.25000   0.12623   0.50000   0.00000  Uiso   1.00
N466   N     0.25000   0.37376   0.50000   0.00000  Uiso   1.00
O467   O     0.18453   0.28974   0.50000   0.00000  Uiso   1.00
O468   O     0.31376   0.37244   0.55301   0.00000  Uiso   1.00
O469   O     0.28638   0.12592   0.57987   0.00000  Uiso   1.00
O470   O     0.18624   0.37245   0.44698   0.00000  Uiso   1.00
O471   O     0.31547   0.21026   0.50000   0.00000  Uiso   1.00
O472   O     0.31547   0.28974   0.50000   0.00000  Uiso   1.00
O473   O     0.18453   0.21026   0.50000   0.00000  Uiso   1.00
O474   O     0.25000   0.28973   0.42845   0.00000  Uiso   1.00
O475   O     0.25000   0.21027   0.57155   0.00000  Uiso   1.00
O476   O     0.25000   0.28973   0.57155   0.00000  Uiso   1.00
O477   O     0.25000   0.21027   0.42845   0.00000  Uiso   1.00
O478   O     0.21362   0.12590   0.42013   0.00000  Uiso   1.00
Zn479  Zn    0.25000   0.30307   0.50000   0.00000  Uiso   1.00
Zn480  Zn    0.25000   0.19693   0.50000   0.00000  Uiso   1.00
C481   C     0.66393   0.24998   0.49990   0.00000  Uiso   1.00
C482   C     0.71740   0.44735   0.47358   0.00000  Uiso   1.00
C483   C     0.75000   0.25000   0.40623   0.00000  Uiso   1.00
C484   C     0.75000   0.25000   0.59377   0.00000  Uiso   1.00
C485   C     0.75001   0.02648   0.50000   0.00000  Uiso   1.00
C486   C     0.75001   0.47319   0.50001   0.00000  Uiso   1.00
C487   C     0.75000   0.24998   0.35514   0.00000  Uiso   1.00
C488   C     0.74999   0.24998   0.64486   0.00000  Uiso   1.00
C489   C     0.54683   0.28911   0.48233   0.00000  Uiso   1.00
C490   C     0.95268   0.20990   0.48298   0.00000  Uiso   1.00
C491   C     0.95318   0.28912   0.51755   0.00000  Uiso   1.00
C492   C     0.83607   0.24998   0.50009   0.00000  Uiso   1.00
C493   C     0.54731   0.20991   0.51694   0.00000  Uiso   1.00
C494   C     0.59283   0.28941   0.48268   0.00000  Uiso   1.00
C495   C     0.90669   0.20995   0.48333   0.00000  Uiso   1.00
C496   C     0.90718   0.28942   0.51724   0.00000  Uiso   1.00
C497   C     0.59330   0.20995   0.51663   0.00000  Uiso   1.00
C498   C     0.61604   0.24981   0.49974   0.00000  Uiso   1.00
C499   C     0.88396   0.24981   0.50022   0.00000  Uiso   1.00
C500   C     0.52406   0.24947   0.49975   0.00000  Uiso   1.00
C501   C     0.97594   0.24948   0.50014   0.00000  Uiso   1.00
C502   C     0.66704   0.13135   0.42618   0.00000  Uiso   1.00
C503   C     0.73144   0.10193   0.46058   0.00000  Uiso   1.00
C504   C     0.64179   0.09898   0.38996   0.00000  Uiso   1.00
C505   C     0.59170   0.10825   0.39163   0.00000  Uiso   1.00
C506   C     0.80977   0.38005   0.60518   0.00000  Uiso   1.00
C507   C     0.84069   0.34596   0.63297   0.00000  Uiso   1.00
C508   C     0.83672   0.35123   0.35642   0.00000  Uiso   1.00
C509   C     0.83297   0.13130   0.57387   0.00000  Uiso   1.00
C510   C     0.85815   0.09905   0.61026   0.00000  Uiso   1.00
C511   C     0.90825   0.10822   0.60862   0.00000  Uiso   1.00
C512   C     0.69027   0.38003   0.39482   0.00000  Uiso   1.00
C513   C     0.65932   0.34598   0.36701   0.00000  Uiso   1.00
C514   C     0.78129   0.39762   0.52755   0.00000  Uiso   1.00
C515   C     0.66334   0.35122   0.64357   0.00000  Uiso   1.00
C516   C     0.76856   0.10194   0.53941   0.00000  Uiso   1.00
C517   C     0.71871   0.39762   0.47246   0.00000  Uiso   1.00
C518   C     0.73255   0.05234   0.45939   0.00000  Uiso   1.00
C519   C     0.78260   0.44735   0.52643   0.00000  Uiso   1.00
C520   C     0.76747   0.05235   0.54061   0.00000  Uiso   1.00
H521   H     0.52906   0.31958   0.46820   0.00000  Uiso   1.00
H522   H     0.80953   0.46539   0.54560   0.00000  Uiso   1.00
H523   H     0.77999   0.03447   0.57364   0.00000  Uiso   1.00
H524   H     0.69048   0.46539   0.45442   0.00000  Uiso   1.00
H525   H     0.65861   0.16830   0.41644   0.00000  Uiso   1.00
H526   H     0.65514   0.12541   0.46533   0.00000  Uiso   1.00
H527   H     0.65378   0.10490   0.35112   0.00000  Uiso   1.00
H528   H     0.64805   0.06171   0.40018   0.00000  Uiso   1.00
H529   H     0.57889   0.10205   0.43006   0.00000  Uiso   1.00
H530   H     0.57422   0.08415   0.36525   0.00000  Uiso   1.00
H531   H     0.58435   0.14508   0.38038   0.00000  Uiso   1.00
H532   H     0.97005   0.17932   0.46882   0.00000  Uiso   1.00
H533   H     0.77491   0.37377   0.61775   0.00000  Uiso   1.00
H534   H     0.81981   0.41656   0.61514   0.00000  Uiso   1.00
H535   H     0.83223   0.30924   0.62227   0.00000  Uiso   1.00
H536   H     0.87574   0.35282   0.62195   0.00000  Uiso   1.00
H537   H     0.84635   0.38732   0.36817   0.00000  Uiso   1.00
H538   H     0.85914   0.32565   0.37544   0.00000  Uiso   1.00
H539   H     0.80201   0.34420   0.36831   0.00000  Uiso   1.00
H540   H     0.84143   0.16828   0.58348   0.00000  Uiso   1.00
H541   H     0.84492   0.12521   0.53477   0.00000  Uiso   1.00
H542   H     0.84612   0.10514   0.64906   0.00000  Uiso   1.00
H543   H     0.97096   0.31960   0.53165   0.00000  Uiso   1.00
H544   H     0.85183   0.06174   0.60021   0.00000  Uiso   1.00
H545   H     0.92109   0.10181   0.57024   0.00000  Uiso   1.00
H546   H     0.92566   0.08422   0.63515   0.00000  Uiso   1.00
H547   H     0.91564   0.14509   0.61967   0.00000  Uiso   1.00
H548   H     0.72513   0.37369   0.38228   0.00000  Uiso   1.00
H549   H     0.68030   0.41656   0.38483   0.00000  Uiso   1.00
H550   H     0.66771   0.30925   0.37774   0.00000  Uiso   1.00
H551   H     0.62426   0.35291   0.37800   0.00000  Uiso   1.00
H552   H     0.65380   0.38734   0.63180   0.00000  Uiso   1.00
H553   H     0.64086   0.32568   0.62454   0.00000  Uiso   1.00
H554   H     0.52993   0.17933   0.53111   0.00000  Uiso   1.00
H555   H     0.69805   0.34410   0.63172   0.00000  Uiso   1.00
H556   H     0.61013   0.32025   0.46914   0.00000  Uiso   1.00
H557   H     0.88898   0.17924   0.46969   0.00000  Uiso   1.00
H558   H     0.88989   0.32027   0.53077   0.00000  Uiso   1.00
H559   H     0.61100   0.17926   0.53030   0.00000  Uiso   1.00
H560   H     0.72004   0.03446   0.42636   0.00000  Uiso   1.00
N561   N     0.75000   0.12623   0.50000   0.00000  Uiso   1.00
N562   N     0.75000   0.37376   0.50000   0.00000  Uiso   1.00
O563   O     0.68453   0.28974   0.50000   0.00000  Uiso   1.00
O564   O     0.81376   0.37244   0.55301   0.00000  Uiso   1.00
O565   O     0.78638   0.12592   0.57987   0.00000  Uiso   1.00
O566   O     0.68624   0.37245   0.44698   0.00000  Uiso   1.00
O567   O     0.81547   0.21026   0.50000   0.00000  Uiso   1.00
O568   O     0.81547   0.28974   0.50000   0.00000  Uiso   1.00
O569   O     0.68453   0.21026   0.50000   0.00000  Uiso   1.00
O570   O     0.75000   0.28973   0.42845   0.00000  Uiso   1.00
O571   O     0.75000   0.21027   0.57155   0.00000  Uiso   1.00
O572   O     0.75000   0.28973   0.57155   0.00000  Uiso   1.00
O573   O     0.75000   0.21027   0.42845   0.00000  Uiso   1.00
O574   O     0.71362   0.12590   0.42013   0.00000  Uiso   1.00
Zn575  Zn    0.75000   0.30307   0.50000   0.00000  Uiso   1.00
Zn576  Zn    0.75000   0.19693   0.50000   0.00000  Uiso   1.00
C577   C     0.16393   0.74998   0.49990   0.00000  Uiso   1.00
C578   C     0.21740   0.94735   0.47358   0.00000  Uiso   1.00
C579   C     0.25000   0.75000   0.40623   0.00000  Uiso   1.00
C580   C     0.25000   0.75000   0.59377   0.00000  Uiso   1.00
C581   C     0.25001   0.52648   0.50000   0.00000  Uiso   1.00
C582   C     0.25001   0.97319   0.50001   0.00000  Uiso   1.00
C583   C     0.25000   0.74998   0.35514   0.00000  Uiso   1.00
C584   C     0.24999   0.74998   0.64486   0.00000  Uiso   1.00
C585   C     0.04683   0.78911   0.48233   0.00000  Uiso   1.00
C586   C     0.45268   0.70990   0.48298   0.00000  Uiso   1.00
C587   C     0.45318   0.78912   0.51755   0.00000  Uiso   1.00
C588   C     0.33607   0.74998   0.50009   0.00000  Uiso   1.00
C589   C     0.04731   0.70991   0.51694   0.00000  Uiso   1.00
C590   C     0.09283   0.78941   0.48268   0.00000  Uiso   1.00
C591   C     0.40669   0.70995   0.48333   0.00000  Uiso   1.00
C592   C     0.40718   0.78942   0.51724   0.00000  Uiso   1.00
C593   C     0.09330   0.70995   0.51663   0.00000  Uiso   1.00
C594   C     0.11604   0.74981   0.49974   0.00000  Uiso   1.00
C595   C     0.38396   0.74981   0.50022   0.00000  Uiso   1.00
C596   C     0.02406   0.74947   0.49975   0.00000  Uiso   1.00
C597   C     0.47594   0.74948   0.50014   0.00000  Uiso   1.00
C598   C     0.16704   0.63135   0.42618   0.00000  Uiso   1.00
C599   C     0.23144   0.60193   0.46058   0.00000  Uiso   1.00
C600   C     0.14179   0.59898   0.38996   0.00000  Uiso   1.00
C601   C     0.09170   0.60825   0.39163   0.00000  Uiso   1.00
C602   C     0.30977   0.88005   0.60518   0.00000  Uiso   1.00
C603   C     0.34069   0.84596   0.63297   0.00000  Uiso   1.00
C604   C     0.33672   0.85123   0.35642   0.00000  Uiso   1.00
C605   C     0.33297   0.63130   0.57387   0.00000  Uiso   1.00
C606   C     0.35815   0.59905   0.61026   0.00000  Uiso   1.00
C607   C     0.40825   0.60822   0.60862   0.00000  Uiso   1.00
C608   C     0.19027   0.88003   0.39482   0.00000  Uiso   1.00
C609   C     0.15932   0.84598   0.36701   0.00000  Uiso   1.00
C610   C     0.28129   0.89762   0.52755   0.00000  Uiso   1.00
C611   C     0.16334   0.85122   0.64357   0.00000  Uiso   1.00
C612   C     0.26856   0.60194   0.53941   0.00000  Uiso   1.00
C613   C     0.21871   0.89762   0.47246   0.00000  Uiso   1.00
C614   C     0.23255   0.55234   0.45939   0.00000  Uiso   1.00
C615   C     0.28260   0.94735   0.52643   0.00000  Uiso   1.00
C616   C     0.26747   0.55235   0.54061   0.00000  Uiso   1.00
H617   H     0.02906   0.81958   0.46820   0.00000  Uiso   1.00
H618   H     0.30953   0.96539   0.54560   0.00000  Uiso   1.00
H619   H     0.27999   0.53447   0.57364   0.00000  Uiso   1.00
H620   H     0.19048   0.96539   0.45442   0.00000  Uiso   1.00
H621   H     0.15861   0.66830   0.41644   0.00000  Uiso   1.00
H622   H     0.15514   0.62541   0.46533   0.00000  Uiso   1.00
H623   H     0.15378   0.60490   0.35112   0.00000  Uiso   1.00
H624   H     0.14805   0.56171   0.40018   0.00000  Uiso   1.00
H625   H     0.07889   0.60205   0.43006   0.00000  Uiso   1.00
H626   H     0.07422   0.58415   0.36525   0.00000  Uiso   1.00
H627   H     0.08435   0.64508   0.38038   0.00000  Uiso   1.00
H628   H     0.47005   0.67932   0.46882   0.00000  Uiso   1.00
H629   H     0.27491   0.87377   0.61775   0.00000  Uiso   1.00
H630   H     0.31981   0.91656   0.61514   0.00000  Uiso   1.00
H631   H     0.33223   0.80924   0.62227   0.00000  Uiso   1.00
H632   H     0.37574   0.85282   0.62195   0.00000  Uiso   1.00
H633   H     0.34635   0.88732   0.36817   0.00000  Uiso   1.00
H634   H     0.35914   0.82565   0.37544   0.00000  Uiso   1.00
H635   H     0.30201   0.84420   0.36831   0.00000  Uiso   1.00
H636   H     0.34143   0.66828   0.58348   0.00000  Uiso   1.00
H637   H     0.34492   0.62521   0.53477   0.00000  Uiso   1.00
H638   H     0.34612   0.60514   0.64906   0.00000  Uiso   1.00
H639   H     0.47096   0.81960   0.53165   0.00000  Uiso   1.00
H640   H     0.35183   0.56174   0.60021   0.00000  Uiso   1.00
H641   H     0.42109   0.60181   0.57024   0.00000  Uiso   1.00
H642   H     0.42566   0.58422   0.63515   0.00000  Uiso   1.00
H643   H     0.41564   0.64509   0.61967   0.00000  Uiso   1.00
H644   H     0.22513   0.87369   0.38228   0.00000  Uiso   1.00
H645   H     0.18030   0.91656   0.38483   0.00000  Uiso   1.00
H646   H     0.16771   0.80925   0.37774   0.00000  Uiso   1.00
H647   H     0.12426   0.85291   0.37800   0.00000  Uiso   1.00
H648   H     0.15380   0.88734   0.63180   0.00000  Uiso   1.00
H649   H     0.14086   0.82568   0.62454   0.00000  Uiso   1.00
H650   H     0.02993   0.67933   0.53111   0.00000  Uiso   1.00
H651   H     0.19805   0.84410   0.63172   0.00000  Uiso   1.00
H652   H     0.11013   0.82025   0.46914   0.00000  Uiso   1.00
H653   H     0.38898   0.67924   0.46969   0.00000  Uiso   1.00
H654   H     0.38989   0.82027   0.53077   0.00000  Uiso   1.00
H655   H     0.11100   0.67926   0.53030   0.00000  Uiso   1.00
H656   H     0.22004   0.53446   0.42636   0.00000  Uiso   1.00
N657   N     0.25000   0.62623   0.50000   0.00000  Uiso   1.00
N658   N     0.25000   0.87376   0.50000   0.00000  Uiso   1.00
O659   O     0.18453   0.78974   0.50000   0.00000  Uiso   1.00
O660   O     0.31376   0.87244   0.55301   0.00000  Uiso   1.00
O661   O     0.28638   0.62592   0.57987   0.00000  Uiso   1.00
O662   O     0.18624   0.87245   0.44698   0.00000  Uiso   1.00
O663   O     0.31547   0.71026   0.50000   0.00000  Uiso   1.00
O664   O     0.31547   0.78974   0.50000   0.00000  Uiso   1.00
O665   O     0.18453   0.71026   0.50000   0.00000  Uiso   1.00
O666   O     0.25000   0.78973   0.42845   0.00000  Uiso   1.00
O667   O     0.25000   0.71027   0.57155   0.00000  Uiso   1.00
O668   O     0.25000   0.78973   0.57155   0.00000  Uiso   1.00
O669   O     0.25000   0.71027   0.42845   0.00000  Uiso   1.00
O670   O     0.21362   0.62590   0.42013   0.00000  Uiso   1.00
Zn671  Zn    0.25000   0.80307   0.50000   0.00000  Uiso   1.00
Zn672  Zn    0.25000   0.69693   0.50000   0.00000  Uiso   1.00
C673   C     0.66393   0.74998   0.49990   0.00000  Uiso   1.00
C674   C     0.71740   0.94735   0.47358   0.00000  Uiso   1.00
C675   C     0.75000   0.75000   0.40623   0.00000  Uiso   1.00
C676   C     0.75000   0.75000   0.59377   0.00000  Uiso   1.00
C677   C     0.75001   0.52648   0.50000   0.00000  Uiso   1.00
C678   C     0.75001   0.97319   0.50001   0.00000  Uiso   1.00
C679   C     0.75000   0.74998   0.35514   0.00000  Uiso   1.00
C680   C     0.74999   0.74998   0.64486   0.00000  Uiso   1.00
C681   C     0.54683   0.78911   0.48233   0.00000  Uiso   1.00
C682   C     0.95268   0.70990   0.48298   0.00000  Uiso   1.00
C683   C     0.95318   0.78912   0.51755   0.00000  Uiso   1.00
C684   C     0.83607   0.74998   0.50009   0.00000  Uiso   1.00
C685   C     0.54731   0.70991   0.51694   0.00000  Uiso   1.00
C686   C     0.59283   0.78941   0.48268   0.00000  Uiso   1.00
C687   C     0.90669   0.70995   0.48333   0.00000  Uiso   1.00
C688   C     0.90718   0.78942   0.51724   0.00000  Uiso   1.00
C689   C     0.59330   0.70995   0.51663   0.00000  Uiso   1.00
C690   C     0.61604   0.74981   0.49974   0.00000  Uiso   1.00
C691   C     0.88396   0.74981   0.50022   0.00000  Uiso   1.00
C692   C     0.52406   0.74947   0.49975   0.00000  Uiso   1.00
C693   C     0.97594   0.74948   0.50014   0.00000  Uiso   1.00
C694   C     0.66704   0.63135   0.42618   0.00000  Uiso   1.00
C695   C     0.73144   0.60193   0.46058   0.00000  Uiso   1.00
C696   C     0.64179   0.59898   0.38996   0.00000  Uiso   1.00
C697   C     0.59170   0.60825   0.39163   0.00000  Uiso   1.00
C698   C     0.80977   0.88005   0.60518   0.00000  Uiso   1.00
C699   C     0.84069   0.84596   0.63297   0.00000  Uiso   1.00
C700   C     0.83672   0.85123   0.35642   0.00000  Uiso   1.00
C701   C     0.83297   0.63130   0.57387   0.00000  Uiso   1.00
C702   C     0.85815   0.59905   0.61026   0.00000  Uiso   1.00
C703   C     0.90825   0.60822   0.60862   0.00000  Uiso   1.00
C704   C     0.69027   0.88003   0.39482   0.00000  Uiso   1.00
C705   C     0.65932   0.84598   0.36701   0.00000  Uiso   1.00
C706   C     0.78129   0.89762   0.52755   0.00000  Uiso   1.00
C707   C     0.66334   0.85122   0.64357   0.00000  Uiso   1.00
C708   C     0.76856   0.60194   0.53941   0.00000  Uiso   1.00
C709   C     0.71871   0.89762   0.47246   0.00000  Uiso   1.00
C710   C     0.73255   0.55234   0.45939   0.00000  Uiso   1.00
C711   C     0.78260   0.94735   0.52643   0.00000  Uiso   1.00
C712   C     0.76747   0.55235   0.54061   0.00000  Uiso   1.00
H713   H     0.52906   0.81958   0.46820   0.00000  Uiso   1.00
H714   H     0.80953   0.96539   0.54560   0.00000  Uiso   1.00
H715   H     0.77999   0.53447   0.57364   0.00000  Uiso   1.00
H716   H     0.69048   0.96539   0.45442   0.00000  Uiso   1.00
H717   H     0.65861   0.66830   0.41644   0.00000  Uiso   1.00
H718   H     0.65514   0.62541   0.46533   0.00000  Uiso   1.00
H719   H     0.65378   0.60490   0.35112   0.00000  Uiso   1.00
H720   H     0.64805   0.56171   0.40018   0.00000  Uiso   1.00
H721   H     0.57889   0.60205   0.43006   0.00000  Uiso   1.00
H722   H     0.57422   0.58415   0.36525   0.00000  Uiso   1.00
H723   H     0.58435   0.64508   0.38038   0.00000  Uiso   1.00
H724   H     0.97005   0.67932   0.46882   0.00000  Uiso   1.00
H725   H     0.77491   0.87377   0.61775   0.00000  Uiso   1.00
H726   H     0.81981   0.91656   0.61514   0.00000  Uiso   1.00
H727   H     0.83223   0.80924   0.62227   0.00000  Uiso   1.00
H728   H     0.87574   0.85282   0.62195   0.00000  Uiso   1.00
H729   H     0.84635   0.88732   0.36817   0.00000  Uiso   1.00
H730   H     0.85914   0.82565   0.37544   0.00000  Uiso   1.00
H731   H     0.80201   0.84420   0.36831   0.00000  Uiso   1.00
H732   H     0.84143   0.66828   0.58348   0.00000  Uiso   1.00
H733   H     0.84492   0.62521   0.53477   0.00000  Uiso   1.00
H734   H     0.84612   0.60514   0.64906   0.00000  Uiso   1.00
H735   H     0.97096   0.81960   0.53165   0.00000  Uiso   1.00
H736   H     0.85183   0.56174   0.60021   0.00000  Uiso   1.00
H737   H     0.92109   0.60181   0.57024   0.00000  Uiso   1.00
H738   H     0.92566   0.58422   0.63515   0.00000  Uiso   1.00
H739   H     0.91564   0.64509   0.61967   0.00000  Uiso   1.00
H740   H     0.72513   0.87369   0.38228   0.00000  Uiso   1.00
H741   H     0.68030   0.91656   0.38483   0.00000  Uiso   1.00
H742   H     0.66771   0.80925   0.37774   0.00000  Uiso   1.00
H743   H     0.62426   0.85291   0.37800   0.00000  Uiso   1.00
H744   H     0.65380   0.88734   0.63180   0.00000  Uiso   1.00
H745   H     0.64086   0.82568   0.62454   0.00000  Uiso   1.00
H746   H     0.52993   0.67933   0.53111   0.00000  Uiso   1.00
H747   H     0.69805   0.84410   0.63172   0.00000  Uiso   1.00
H748   H     0.61013   0.82025   0.46914   0.00000  Uiso   1.00
H749   H     0.88898   0.67924   0.46969   0.00000  Uiso   1.00
H750   H     0.88989   0.82027   0.53077   0.00000  Uiso   1.00
H751   H     0.61100   0.67926   0.53030   0.00000  Uiso   1.00
H752   H     0.72004   0.53446   0.42636   0.00000  Uiso   1.00
N753   N     0.75000   0.62623   0.50000   0.00000  Uiso   1.00
N754   N     0.75000   0.87376   0.50000   0.00000  Uiso   1.00
O755   O     0.68453   0.78974   0.50000   0.00000  Uiso   1.00
O756   O     0.81376   0.87244   0.55301   0.00000  Uiso   1.00
O757   O     0.78638   0.62592   0.57987   0.00000  Uiso   1.00
O758   O     0.68624   0.87245   0.44698   0.00000  Uiso   1.00
O759   O     0.81547   0.71026   0.50000   0.00000  Uiso   1.00
O760   O     0.81547   0.78974   0.50000   0.00000  Uiso   1.00
O761   O     0.68453   0.71026   0.50000   0.00000  Uiso   1.00
O762   O     0.75000   0.78973   0.42845   0.00000  Uiso   1.00
O763   O     0.75000   0.71027   0.57155   0.00000  Uiso   1.00
O764   O     0.75000   0.78973   0.57155   0.00000  Uiso   1.00
O765   O     0.75000   0.71027   0.42845   0.00000  Uiso   1.00
O766   O     0.71362   0.62590   0.42013   0.00000  Uiso   1.00
Zn767  Zn    0.75000   0.80307   0.50000   0.00000  Uiso   1.00
Zn768  Zn    0.75000   0.69693   0.50000   0.00000  Uiso   1.00
C769   C     0.16393   0.24998   0.83324   0.00000  Uiso   1.00
C770   C     0.21740   0.44735   0.80691   0.00000  Uiso   1.00
C771   C     0.25000   0.25000   0.73956   0.00000  Uiso   1.00
C772   C     0.25000   0.25000   0.92710   0.00000  Uiso   1.00
C773   C     0.25001   0.02648   0.83333   0.00000  Uiso   1.00
C774   C     0.25001   0.47319   0.83334   0.00000  Uiso   1.00
C775   C     0.25000   0.24998   0.68848   0.00000  Uiso   1.00
C776   C     0.24999   0.24998   0.97819   0.00000  Uiso   1.00
C777   C     0.04683   0.28911   0.81566   0.00000  Uiso   1.00
C778   C     0.45268   0.20990   0.81631   0.00000  Uiso   1.00
C779   C     0.45318   0.28912   0.85088   0.00000  Uiso   1.00
C780   C     0.33607   0.24998   0.83343   0.00000  Uiso   1.00
C781   C     0.04731   0.20991   0.85027   0.00000  Uiso   1.00
C782   C     0.09283   0.28941   0.81601   0.00000  Uiso   1.00
C783   C     0.40669   0.20995   0.81666   0.00000  Uiso   1.00
C784   C     0.40718   0.28942   0.85057   0.00000  Uiso   1.00
C785   C     0.09330   0.20995   0.84996   0.00000  Uiso   1.00
C786   C     0.11604   0.24981   0.83308   0.00000  Uiso   1.00
C787   C     0.38396   0.24981   0.83355   0.00000  Uiso   1.00
C788   C     0.02406   0.24947   0.83308   0.00000  Uiso   1.00
C789   C     0.47594   0.24948   0.83347   0.00000  Uiso   1.00
C790   C     0.16704   0.13135   0.75951   0.00000  Uiso   1.00
C791   C     0.23144   0.10193   0.79392   0.00000  Uiso   1.00
C792   C     0.14179   0.09898   0.72330   0.00000  Uiso   1.00
C793   C     0.09170   0.10825   0.72496   0.00000  Uiso   1.00
C794   C     0.30977   0.38005   0.93851   0.00000  Uiso   1.00
C795   C     0.34069   0.34596   0.96631   0.00000  Uiso   1.00
C796   C     0.33672   0.35123   0.68976   0.00000  Uiso   1.00
C797   C     0.33297   0.13130   0.90721   0.00000  Uiso   1.00
C798   C     0.35815   0.09905   0.94359   0.00000  Uiso   1.00
C799   C     0.40825   0.10822   0.94195   0.00000  Uiso   1.00
C800   C     0.19027   0.38003   0.72815   0.00000  Uiso   1.00
C801   C     0.15932   0.34598   0.70035   0.00000  Uiso   1.00
C802   C     0.28129   0.39762   0.86088   0.00000  Uiso   1.00
C803   C     0.16334   0.35122   0.97690   0.00000  Uiso   1.00
C804   C     0.26856   0.10194   0.87275   0.00000  Uiso   1.00
C805   C     0.21871   0.39762   0.80579   0.00000  Uiso   1.00
C806   C     0.23255   0.05234   0.79272   0.00000  Uiso   1.00
C807   C     0.28260   0.44735   0.85977   0.00000  Uiso   1.00
C808   C     0.26747   0.05235   0.87394   0.00000  Uiso   1.00
H809   H     0.02906   0.31958   0.80154   0.00000  Uiso   1.00
H810   H     0.30953   0.46539   0.87893   0.00000  Uiso   1.00
H811   H     0.27999   0.03447   0.90697   0.00000  Uiso   1.00
H812   H     0.19048   0.46539   0.78775   0.00000  Uiso   1.00
H813   H     0.15861   0.16830   0.74977   0.00000  Uiso   1.00
H814   H     0.15514   0.12541   0.79866   0.00000  Uiso   1.00
H815   H     0.15378   0.10490   0.68445   0.00000  Uiso   1.00
H816   H     0.14805   0.06171   0.73352   0.00000  Uiso   1.00
H817   H     0.07889   0.10205   0.76339   0.00000  Uiso   1.00
H818   H     0.07422   0.08415   0.69858   0.00000  Uiso   1.00
H819   H     0.08435   0.14508   0.71371   0.00000  Uiso   1.00
H820   H     0.47005   0.17932   0.80215   0.00000  Uiso   1.00
H821   H     0.27491   0.37377   0.95108   0.00000  Uiso   1.00
H822   H     0.31981   0.41656   0.94847   0.00000  Uiso   1.00
H823   H     0.33223   0.30924   0.95561   0.00000  Uiso   1.00
H824   H     0.37574   0.35282   0.95528   0.00000  Uiso   1.00
H825   H     0.34635   0.38732   0.70150   0.00000  Uiso   1.00
H826   H     0.35914   0.32565   0.70878   0.00000  Uiso   1.00
H827   H     0.30201   0.34420   0.70164   0.00000  Uiso   1.00
H828   H     0.34143   0.16828   0.91681   0.00000  Uiso   1.00
H829   H     0.34492   0.12521   0.86810   0.00000  Uiso   1.00
H830   H     0.34612   0.10514   0.98240   0.00000  Uiso   1.00
H831   H     0.47096   0.31960   0.86498   0.00000  Uiso   1.00
H832   H     0.35183   0.06174   0.93354   0.00000  Uiso   1.00
H833   H     0.42109   0.10181   0.90357   0.00000  Uiso   1.00
H834   H     0.42566   0.08422   0.96848   0.00000  Uiso   1.00
H835   H     0.41564   0.14509   0.95300   0.00000  Uiso   1.00
H836   H     0.22513   0.37369   0.71561   0.00000  Uiso   1.00
H837   H     0.18030   0.41656   0.71816   0.00000  Uiso   1.00
H838   H     0.16771   0.30925   0.71108   0.00000  Uiso   1.00
H839   H     0.12426   0.35291   0.71134   0.00000  Uiso   1.00
H840   H     0.15380   0.38734   0.96513   0.00000  Uiso   1.00
H841   H     0.14086   0.32568   0.95787   0.00000  Uiso   1.00
H842   H     0.02993   0.17933   0.86444   0.00000  Uiso   1.00
H843   H     0.19805   0.34410   0.96505   0.00000  Uiso   1.00
H844   H     0.11013   0.32025   0.80248   0.00000  Uiso   1.00
H845   H     0.38898   0.17924   0.80302   0.00000  Uiso   1.00
H846   H     0.38989   0.32027   0.86410   0.00000  Uiso   1.00
H847   H     0.11100   0.17926   0.86364   0.00000  Uiso   1.00
H848   H     0.22004   0.03446   0.75969   0.00000  Uiso   1.00
N849   N     0.25000   0.12623   0.83333   0.00000  Uiso   1.00
N850   N     0.25000   0.37376   0.83333   0.00000  Uiso   1.00
O851   O     0.18453   0.28974   0.83334   0.00000  Uiso   1.00
O852   O     0.31376   0.37244   0.88635   0.00000  Uiso   1.00
O853   O     0.28638   0.12592   0.91320   0.00000  Uiso   1.00
O854   O     0.18624   0.37245   0.78032   0.00000  Uiso   1.00
O855   O     0.31547   0.21026   0.83333   0.00000  Uiso   1.00
O856   O     0.31547   0.28974   0.83333   0.00000  Uiso   1.00
O857   O     0.18453   0.21026   0.83334   0.00000  Uiso   1.00
O858   O     0.25000   0.28973   0.76178   0.00000  Uiso   1.00
O859   O     0.25000   0.21027   0.90489   0.00000  Uiso   1.00
O860   O     0.25000   0.28973   0.90489   0.00000  Uiso   1.00
O861   O     0.25000   0.21027   0.76178   0.00000  Uiso   1.00
O862   O     0.21362   0.12590   0.75346   0.00000  Uiso   1.00
Zn863  Zn    0.25000   0.30307   0.83333   0.00000  Uiso   1.00
Zn864  Zn    0.25000   0.19693   0.83333   0.00000  Uiso   1.00
C865   C     0.66393   0.24998   0.83324   0.00000  Uiso   1.00
C866   C     0.71740   0.44735   0.80691   0.00000  Uiso   1.00
C867   C     0.75000   0.25000   0.73956   0.00000  Uiso   1.00
C868   C     0.75000   0.25000   0.92710   0.00000  Uiso   1.00
C869   C     0.75001   0.02648   0.83333   0.00000  Uiso   1.00
C870   C     0.75001   0.47319   0.83334   0.00000  Uiso   1.00
C871   C     0.75000   0.24998   0.68848   0.00000  Uiso   1.00
C872   C     0.74999   0.24998   0.97819   0.00000  Uiso   1.00
C873   C     0.54683   0.28911   0.81566   0.00000  Uiso   1.00
C874   C     0.95268   0.20990   0.81631   0.00000  Uiso   1.00
C875   C     0.95318   0.28912   0.85088   0.00000  Uiso   1.00
C876   C     0.83607   0.24998   0.83343   0.00000  Uiso   1.00
C877   C     0.54731   0.20991   0.85027   0.00000  Uiso   1.00
C878   C     0.59283   0.28941   0.81601   0.00000  Uiso   1.00
C879   C     0.90669   0.20995   0.81666   0.00000  Uiso   1.00
C880   C     0.90718   0.28942   0.85057   0.00000  Uiso   1.00
C881   C     0.59330   0.20995   0.84996   0.00000  Uiso   1.00
C882   C     0.61604   0.24981   0.83308   0.00000  Uiso   1.00
C883   C     0.88396   0.24981   0.83355   0.00000  Uiso   1.00
C884   C     0.52406   0.24947   0.83308   0.00000  Uiso   1.00
C885   C     0.97594   0.24948   0.83347   0.00000  Uiso   1.00
C886   C     0.66704   0.13135   0.75951   0.00000  Uiso   1.00
C887   C     0.73144   0.10193   0.79392   0.00000  Uiso   1.00
C888   C     0.64179   0.09898   0.72330   0.00000  Uiso   1.00
C889   C     0.59170   0.10825   0.72496   0.00000  Uiso   1.00
C890   C     0.80977   0.38005   0.93851   0.00000  Uiso   1.00
C891   C     0.84069   0.34596   0.96631   0.00000  Uiso   1.00
C892   C     0.83672   0.35123   0.68976   0.00000  Uiso   1.00
C893   C     0.83297   0.13130   0.90721   0.00000  Uiso   1.00
C894   C     0.85815   0.09905   0.94359   0.00000  Uiso   1.00
C895   C     0.90825   0.10822   0.94195   0.00000  Uiso   1.00
C896   C     0.69027   0.38003   0.72815   0.00000  Uiso   1.00
C897   C     0.65932   0.34598   0.70035   0.00000  Uiso   1.00
C898   C     0.78129   0.39762   0.86088   0.00000  Uiso   1.00
C899   C     0.66334   0.35122   0.97690   0.00000  Uiso   1.00
C900   C     0.76856   0.10194   0.87275   0.00000  Uiso   1.00
C901   C     0.71871   0.39762   0.80579   0.00000  Uiso   1.00
C902   C     0.73255   0.05234   0.79272   0.00000  Uiso   1.00
C903   C     0.78260   0.44735   0.85977   0.00000  Uiso   1.00
C904   C     0.76747   0.05235   0.87394   0.00000  Uiso   1.00
H905   H     0.52906   0.31958   0.80154   0.00000  Uiso   1.00
H906   H     0.80953   0.46539   0.87893   0.00000  Uiso   1.00
H907   H     0.77999   0.03447   0.90697   0.00000  Uiso   1.00
H908   H     0.69048   0.46539   0.78775   0.00000  Uiso   1.00
H909   H     0.65861   0.16830   0.74977   0.00000  Uiso   1.00
H910   H     0.65514   0.12541   0.79866   0.00000  Uiso   1.00
H911   H     0.65378   0.10490   0.68445   0.00000  Uiso   1.00
H912   H     0.64805   0.06171   0.73352   0.00000  Uiso   1.00
H913   H     0.57889   0.10205   0.76339   0.00000  Uiso   1.00
H914   H     0.57422   0.08415   0.69858   0.00000  Uiso   1.00
H915   H     0.58435   0.14508   0.71371   0.00000  Uiso   1.00
H916   H     0.97005   0.17932   0.80215   0.00000  Uiso   1.00
H917   H     0.77491   0.37377   0.95108   0.00000  Uiso   1.00
H918   H     0.81981   0.41656   0.94847   0.00000  Uiso   1.00
H919   H     0.83223   0.30924   0.95561   0.00000  Uiso   1.00
H920   H     0.87574   0.35282   0.95528   0.00000  Uiso   1.00
H921   H     0.84635   0.38732   0.70150   0.00000  Uiso   1.00
H922   H     0.85914   0.32565   0.70878   0.00000  Uiso   1.00
H923   H     0.80201   0.34420   0.70164   0.00000  Uiso   1.00
H924   H     0.84143   0.16828   0.91681   0.00000  Uiso   1.00
H925   H     0.84492   0.12521   0.86810   0.00000  Uiso   1.00
H926   H     0.84612   0.10514   0.98240   0.00000  Uiso   1.00
H927   H     0.97096   0.31960   0.86498   0.00000  Uiso   1.00
H928   H     0.85183   0.06174   0.93354   0.00000  Uiso   1.00
H929   H     0.92109   0.10181   0.90357   0.00000  Uiso   1.00
H930   H     0.92566   0.08422   0.96848   0.00000  Uiso   1.00
H931   H     0.91564   0.14509   0.95300   0.00000  Uiso   1.00
H932   H     0.72513   0.37369   0.71561   0.00000  Uiso   1.00
H933   H     0.68030   0.41656   0.71816   0.00000  Uiso   1.00
H934   H     0.66771   0.30925   0.71108   0.00000  Uiso   1.00
H935   H     0.62426   0.35291   0.71134   0.00000  Uiso   1.00
H936   H     0.65380   0.38734   0.96513   0.00000  Uiso   1.00
H937   H     0.64086   0.32568   0.95787   0.00000  Uiso   1.00
H938   H     0.52993   0.17933   0.86444   0.00000  Uiso   1.00
H939   H     0.69805   0.34410   0.96505   0.00000  Uiso   1.00
H940   H     0.61013   0.32025   0.80248   0.00000  Uiso   1.00
H941   H     0.88898   0.17924   0.80302   0.00000  Uiso   1.00
H942   H     0.88989   0.32027   0.86410   0.00000  Uiso   1.00
H943   H     0.61100   0.17926   0.86364   0.00000  Uiso   1.00
H944   H     0.72004   0.03446   0.75969   0.00000  Uiso   1.00
N945   N     0.75000   0.12623   0.83333   0.00000  Uiso   1.00
N946   N     0.75000   0.37376   0.83333   0.00000  Uiso   1.00
O947   O     0.68453   0.28974   0.83334   0.00000  Uiso   1.00
O948   O     0.81376   0.37244   0.88635   0.00000  Uiso   1.00
O949   O     0.78638   0.12592   0.91320   0.00000  Uiso   1.00
O950   O     0.68624   0.37245   0.78032   0.00000  Uiso   1.00
O951   O     0.81547   0.21026   0.83333   0.00000  Uiso   1.00
O952   O     0.81547   0.28974   0.83333   0.00000  Uiso   1.00
O953   O     0.68453   0.21026   0.83334   0.00000  Uiso   1.00
O954   O     0.75000   0.28973   0.76178   0.00000  Uiso   1.00
O955   O     0.75000   0.21027   0.90489   0.00000  Uiso   1.00
O956   O     0.75000   0.28973   0.90489   0.00000  Uiso   1.00
O957   O     0.75000   0.21027   0.76178   0.00000  Uiso   1.00
O958   O     0.71362   0.12590   0.75346   0.00000  Uiso   1.00
Zn959  Zn    0.75000   0.30307   0.83333   0.00000  Uiso   1.00
Zn960  Zn    0.75000   0.19693   0.83333   0.00000  Uiso   1.00
C961   C     0.16393   0.74998   0.83324   0.00000  Uiso   1.00
C962   C     0.21740   0.94735   0.80691   0.00000  Uiso   1.00
C963   C     0.25000   0.75000   0.73956   0.00000  Uiso   1.00
C964   C     0.25000   0.75000   0.92710   0.00000  Uiso   1.00
C965   C     0.25001   0.52648   0.83333   0.00000  Uiso   1.00
C966   C     0.25001   0.97319   0.83334   0.00000  Uiso   1.00
C967   C     0.25000   0.74998   0.68848   0.00000  Uiso   1.00
C968   C     0.24999   0.74998   0.97819   0.00000  Uiso   1.00
C969   C     0.04683   0.78911   0.81566   0.00000  Uiso   1.00
C970   C     0.45268   0.70990   0.81631   0.00000  Uiso   1.00
C971   C     0.45318   0.78912   0.85088   0.00000  Uiso   1.00
C972   C     0.33607   0.74998   0.83343   0.00000  Uiso   1.00
C973   C     0.04731   0.70991   0.85027   0.00000  Uiso   1.00
C974   C     0.09283   0.78941   0.81601   0.00000  Uiso   1.00
C975   C     0.40669   0.70995   0.81666   0.00000  Uiso   1.00
C976   C     0.40718   0.78942   0.85057   0.00000  Uiso   1.00
C977   C     0.09330   0.70995   0.84996   0.00000  Uiso   1.00
C978   C     0.11604   0.74981   0.83308   0.00000  Uiso   1.00
C979   C     0.38396   0.74981   0.83355   0.00000  Uiso   1.00
C980   C     0.02406   0.74947   0.83308   0.00000  Uiso   1.00
C981   C     0.47594   0.74948   0.83347   0.00000  Uiso   1.00
C982   C     0.16704   0.63135   0.75951   0.00000  Uiso   1.00
C983   C     0.23144   0.60193   0.79392   0.00000  Uiso   1.00
C984   C     0.14179   0.59898   0.72330   0.00000  Uiso   1.00
C985   C     0.09170   0.60825   0.72496   0.00000  Uiso   1.00
C986   C     0.30977   0.88005   0.93851   0.00000  Uiso   1.00
C987   C     0.34069   0.84596   0.96631   0.00000  Uiso   1.00
C988   C     0.33672   0.85123   0.68976   0.00000  Uiso   1.00
C989   C     0.33297   0.63130   0.90721   0.00000  Uiso   1.00
C990   C     0.35815   0.59905   0.94359   0.00000  Uiso   1.00
C991   C     0.40825   0.60822   0.94195   0.00000  Uiso   1.00
C992   C     0.19027   0.88003   0.72815   0.00000  Uiso   1.00
C993   C     0.15932   0.84598   0.70035   0.00000  Uiso   1.00
C994   C     0.28129   0.89762   0.86088   0.00000  Uiso   1.00
C995   C     0.16334   0.85122   0.97690   0.00000  Uiso   1.00
C996   C     0.26856   0.60194   0.87275   0.00000  Uiso   1.00
C997   C     0.21871   0.89762   0.80579   0.00000  Uiso   1.00
C998   C     0.23255   0.55234   0.79272   0.00000  Uiso   1.00
C999   C     0.28260   0.94735   0.85977   0.00000  Uiso   1.00
C1000  C     0.26747   0.55235   0.87394   0.00000  Uiso   1.00
H1001  H     0.02906   0.81958   0.80154   0.00000  Uiso   1.00
H1002  H     0.30953   0.96539   0.87893   0.00000  Uiso   1.00
H1003  H     0.27999   0.53447   0.90697   0.00000  Uiso   1.00
H1004  H     0.19048   0.96539   0.78775   0.00000  Uiso   1.00
H1005  H     0.15861   0.66830   0.74977   0.00000  Uiso   1.00
H1006  H     0.15514   0.62541   0.79866   0.00000  Uiso   1.00
H1007  H     0.15378   0.60490   0.68445   0.00000  Uiso   1.00
H1008  H     0.14805   0.56171   0.73352   0.00000  Uiso   1.00
H1009  H     0.07889   0.60205   0.76339   0.00000  Uiso   1.00
H1010  H     0.07422   0.58415   0.69858   0.00000  Uiso   1.00
H1011  H     0.08435   0.64508   0.71371   0.00000  Uiso   1.00
H1012  H     0.47005   0.67932   0.80215   0.00000  Uiso   1.00
H1013  H     0.27491   0.87377   0.95108   0.00000  Uiso   1.00
H1014  H     0.31981   0.91656   0.94847   0.00000  Uiso   1.00
H1015  H     0.33223   0.80924   0.95561   0.00000  Uiso   1.00
H1016  H     0.37574   0.85282   0.95528   0.00000  Uiso   1.00
H1017  H     0.34635   0.88732   0.70150   0.00000  Uiso   1.00
H1018  H     0.35914   0.82565   0.70878   0.00000  Uiso   1.00
H1019  H     0.30201   0.84420   0.70164   0.00000  Uiso   1.00
H1020  H     0.34143   0.66828   0.91681   0.00000  Uiso   1.00
H1021  H     0.34492   0.62521   0.86810   0.00000  Uiso   1.00
H1022  H     0.34612   0.60514   0.98240   0.00000  Uiso   1.00
H1023  H     0.47096   0.81960   0.86498   0.00000  Uiso   1.00
H1024  H     0.35183   0.56174   0.93354   0.00000  Uiso   1.00
H1025  H     0.42109   0.60181   0.90357   0.00000  Uiso   1.00
H1026  H     0.42566   0.58422   0.96848   0.00000  Uiso   1.00
H1027  H     0.41564   0.64509   0.95300   0.00000  Uiso   1.00
H1028  H     0.22513   0.87369   0.71561   0.00000  Uiso   1.00
H1029  H     0.18030   0.91656   0.71816   0.00000  Uiso   1.00
H1030  H     0.16771   0.80925   0.71108   0.00000  Uiso   1.00
H1031  H     0.12426   0.85291   0.71134   0.00000  Uiso   1.00
H1032  H     0.15380   0.88734   0.96513   0.00000  Uiso   1.00
H1033  H     0.14086   0.82568   0.95787   0.00000  Uiso   1.00
H1034  H     0.02993   0.67933   0.86444   0.00000  Uiso   1.00
H1035  H     0.19805   0.84410   0.96505   0.00000  Uiso   1.00
H1036  H     0.11013   0.82025   0.80248   0.00000  Uiso   1.00
H1037  H     0.38898   0.67924   0.80302   0.00000  Uiso   1.00
H1038  H     0.38989   0.82027   0.86410   0.00000  Uiso   1.00
H1039  H     0.11100   0.67926   0.86364   0.00000  Uiso   1.00
H1040  H     0.22004   0.53446   0.75969   0.00000  Uiso   1.00
N1041  N     0.25000   0.62623   0.83333   0.00000  Uiso   1.00
N1042  N     0.25000   0.87376   0.83333   0.00000  Uiso   1.00
O1043  O     0.18453   0.78974   0.83334   0.00000  Uiso   1.00
O1044  O     0.31376   0.87244   0.88635   0.00000  Uiso   1.00
O1045  O     0.28638   0.62592   0.91320   0.00000  Uiso   1.00
O1046  O     0.18624   0.87245   0.78032   0.00000  Uiso   1.00
O1047  O     0.31547   0.71026   0.83333   0.00000  Uiso   1.00
O1048  O     0.31547   0.78974   0.83333   0.00000  Uiso   1.00
O1049  O     0.18453   0.71026   0.83334   0.00000  Uiso   1.00
O1050  O     0.25000   0.78973   0.76178   0.00000  Uiso   1.00
O1051  O     0.25000   0.71027   0.90489   0.00000  Uiso   1.00
O1052  O     0.25000   0.78973   0.90489   0.00000  Uiso   1.00
O1053  O     0.25000   0.71027   0.76178   0.00000  Uiso   1.00
O1054  O     0.21362   0.62590   0.75346   0.00000  Uiso   1.00
Zn1055 Zn    0.25000   0.80307   0.83333   0.00000  Uiso   1.00
Zn1056 Zn    0.25000   0.69693   0.83333   0.00000  Uiso   1.00
C1057  C     0.66393   0.74998   0.83324   0.00000  Uiso   1.00
C1058  C     0.71740   0.94735   0.80691   0.00000  Uiso   1.00
C1059  C     0.75000   0.75000   0.73956   0.00000  Uiso   1.00
C1060  C     0.75000   0.75000   0.92710   0.00000  Uiso   1.00
C1061  C     0.75001   0.52648   0.83333   0.00000  Uiso   1.00
C1062  C     0.75001   0.97319   0.83334   0.00000  Uiso   1.00
C1063  C     0.75000   0.74998   0.68848   0.00000  Uiso   1.00
C1064  C     0.74999   0.74998   0.97819   0.00000  Uiso   1.00
C1065  C     0.54683   0.78911   0.81566   0.00000  Uiso   1.00
C1066  C     0.95268   0.70990   0.81631   0.00000  Uiso   1.00
C1067  C     0.95318   0.78912   0.85088   0.00000  Uiso   1.00
C1068  C     0.83607   0.74998   0.83343   0.00000  Uiso   1.00
C1069  C     0.54731   0.70991   0.85027   0.00000  Uiso   1.00
C1070  C     0.59283   0.78941   0.81601   0.00000  Uiso   1.00
C1071  C     0.90669   0.70995   0.81666   0.00000  Uiso   1.00
C1072  C     0.90718   0.78942   0.85057   0.00000  Uiso   1.00
C1073  C     0.59330   0.70995   0.84996   0.00000  Uiso   1.00
C1074  C     0.61604   0.74981   0.83308   0.00000  Uiso   1.00
C1075  C     0.88396   0.74981   0.83355   0.00000  Uiso   1.00
C1076  C     0.52406   0.74947   0.83308   0.00000  Uiso   1.00
C1077  C     0.97594   0.74948   0.83347   0.00000  Uiso   1.00
C1078  C     0.66704   0.63135   0.75951   0.00000  Uiso   1.00
C1079  C     0.73144   0.60193   0.79392   0.00000  Uiso   1.00
C1080  C     0.64179   0.59898   0.72330   0.00000  Uiso   1.00
C1081  C     0.59170   0.60825   0.72496   0.00000  Uiso   1.00
C1082  C     0.80977   0.88005   0.93851   0.00000  Uiso   1.00
C1083  C     0.84069   0.84596   0.96631   0.00000  Uiso   1.00
C1084  C     0.83672   0.85123   0.68976   0.00000  Uiso   1.00
C1085  C     0.83297   0.63130   0.90721   0.00000  Uiso   1.00
C1086  C     0.85815   0.59905   0.94359   0.00000  Uiso   1.00
C1087  C     0.90825   0.60822   0.94195   0.00000  Uiso   1.00
C1088  C     0.69027   0.88003   0.72815   0.00000  Uiso   1.00
C1089  C     0.65932   0.84598   0.70035   0.00000  Uiso   1.00
C1090  C     0.78129   0.89762   0.86088   0.00000  Uiso   1.00
C1091  C     0.66334   0.85122   0.97690   0.00000  Uiso   1.00
C1092  C     0.76856   0.60194   0.87275   0.00000  Uiso   1.00
C1093  C     0.71871   0.89762   0.80579   0.00000  Uiso   1.00
C1094  C     0.73255   0.55234   0.79272   0.00000  Uiso   1.00
C1095  C     0.78260   0.94735   0.85977   0.00000  Uiso   1.00
C1096  C     0.76747   0.55235   0.87394   0.00000  Uiso   1.00
H1097  H     0.52906   0.81958   0.80154   0.00000  Uiso   1.00
H1098  H     0.80953   0.96539   0.87893   0.00000  Uiso   1.00
H1099  H     0.77999   0.53447   0.90697   0.00000  Uiso   1.00
H1100  H     0.69048   0.96539   0.78775   0.00000  Uiso   1.00
H1101  H     0.65861   0.66830   0.74977   0.00000  Uiso   1.00
H1102  H     0.65514   0.62541   0.79866   0.00000  Uiso   1.00
H1103  H     0.65378   0.60490   0.68445   0.00000  Uiso   1.00
H1104  H     0.64805   0.56171   0.73352   0.00000  Uiso   1.00
H1105  H     0.57889   0.60205   0.76339   0.00000  Uiso   1.00
H1106  H     0.57422   0.58415   0.69858   0.00000  Uiso   1.00
H1107  H     0.58435   0.64508   0.71371   0.00000  Uiso   1.00
H1108  H     0.97005   0.67932   0.80215   0.00000  Uiso   1.00
H1109  H     0.77491   0.87377   0.95108   0.00000  Uiso   1.00
H1110  H     0.81981   0.91656   0.94847   0.00000  Uiso   1.00
H1111  H     0.83223   0.80924   0.95561   0.00000  Uiso   1.00
H1112  H     0.87574   0.85282   0.95528   0.00000  Uiso   1.00
H1113  H     0.84635   0.88732   0.70150   0.00000  Uiso   1.00
H1114  H     0.85914   0.82565   0.70878   0.00000  Uiso   1.00
H1115  H     0.80201   0.84420   0.70164   0.00000  Uiso   1.00
H1116  H     0.84143   0.66828   0.91681   0.00000  Uiso   1.00
H1117  H     0.84492   0.62521   0.86810   0.00000  Uiso   1.00
H1118  H     0.84612   0.60514   0.98240   0.00000  Uiso   1.00
H1119  H     0.97096   0.81960   0.86498   0.00000  Uiso   1.00
H1120  H     0.85183   0.56174   0.93354   0.00000  Uiso   1.00
H1121  H     0.92109   0.60181   0.90357   0.00000  Uiso   1.00
H1122  H     0.92566   0.58422   0.96848   0.00000  Uiso   1.00
H1123  H     0.91564   0.64509   0.95300   0.00000  Uiso   1.00
H1124  H     0.72513   0.87369   0.71561   0.00000  Uiso   1.00
H1125  H     0.68030   0.91656   0.71816   0.00000  Uiso   1.00
H1126  H     0.66771   0.80925   0.71108   0.00000  Uiso   1.00
H1127  H     0.62426   0.85291   0.71134   0.00000  Uiso   1.00
H1128  H     0.65380   0.88734   0.96513   0.00000  Uiso   1.00
H1129  H     0.64086   0.82568   0.95787   0.00000  Uiso   1.00
H1130  H     0.52993   0.67933   0.86444   0.00000  Uiso   1.00
H1131  H     0.69805   0.84410   0.96505   0.00000  Uiso   1.00
H1132  H     0.61013   0.82025   0.80248   0.00000  Uiso   1.00
H1133  H     0.88898   0.67924   0.80302   0.00000  Uiso   1.00
H1134  H     0.88989   0.82027   0.86410   0.00000  Uiso   1.00
H1135  H     0.61100   0.67926   0.86364   0.00000  Uiso   1.00
H1136  H     0.72004   0.53446   0.75969   0.00000  Uiso   1.00
N1137  N     0.75000   0.62623   0.83333   0.00000  Uiso   1.00
N1138  N     0.75000   0.87376   0.83333   0.00000  Uiso   1.00
O1139  O     0.68453   0.78974   0.83334   0.00000  Uiso   1.00
O1140  O     0.81376   0.87244   0.88635   0.00000  Uiso   1.00
O1141  O     0.78638   0.62592   0.91320   0.00000  Uiso   1.00
O1142  O     0.68624   0.87245   0.78032   0.00000  Uiso   1.00
O1143  O     0.81547   0.71026   0.83333   0.00000  Uiso   1.00
O1144  O     0.81547   0.78974   0.83333   0.00000  Uiso   1.00
O1145  O     0.68453   0.71026   0.83334   0.00000  Uiso   1.00
O1146  O     0.75000   0.78973   0.76178   0.00000  Uiso   1.00
O1147  O     0.75000   0.71027   0.90489   0.00000  Uiso   1.00
O1148  O     0.75000   0.78973   0.90489   0.00000  Uiso   1.00
O1149  O     0.75000   0.71027   0.76178   0.00000  Uiso   1.00
O1150  O     0.71362   0.62590   0.75346   0.00000  Uiso   1.00
Zn1151 Zn    0.75000   0.80307   0.83333   0.00000  Uiso   1.00
Zn1152 Zn    0.75000   0.69693   0.83333   0.00000  Uiso   1.00
loop_
_geom_bond_atom_site_label_1
_geom_bond_atom_site_label_2
_geom_bond_distance
_geom_bond_site_symmetry_2
_ccdc_geom_bond_type
C1     O89     1.288   .     A
C1     C18     1.437   .     S
C1     O83     1.289   .     A
C2     H44     1.081   .     S
C2     C6      1.408   .     A
C2     C37     1.415   .     A
C3     O90     1.276   .     A
C3     C7      1.361   .     S
C3     O93     1.276   .     A
C4     C8      1.361   .     S
C4     O91     1.276   .     A
C4     O92     1.276   .     A
C5     C38     1.406   .     A
C5     C40     1.406   .     A
C5     C198    1.515   1_545 S
C6     C39     1.408   .     A
C6     C197    1.515   .     S
C7     C776    1.163   1_554 S
C8     C391    1.163   .     S
C9     C14     1.380   .     A
C9     C20     1.399   .     A
C9     H41     1.083   .     S
C10    H52     1.083   .     S
C10    C15     1.380   .     A
C10    C21     1.399   .     A
C11    C21     1.399   .     A
C11    C16     1.380   .     A
C11    H63     1.083   .     S
C12    O87     1.288   .     A
C12    O88     1.289   .     A
C12    C19     1.437   .     S
C13    C20     1.399   .     A
C13    C17     1.380   .     A
C13    H74     1.083   .     S
C14    C18     1.398   .     A
C14    H76     1.083   .     S
C15    H77     1.083   .     S
C15    C19     1.399   .     A
C16    C19     1.398   .     A
C16    H78     1.083   .     S
C17    H79     1.083   .     S
C17    C18     1.399   .     A
C20    C117    1.444   1_455 S
C21    C116    1.444   .     S
C22    O94     1.416   .     S
C22    H46     1.119   .     S
C22    C24     1.530   .     S
C22    H45     1.111   .     S
C23    N81     1.372   .     A
C23    C38     1.411   .     A
C23    O94     1.380   .     S
C24    H48     1.110   .     S
C24    C25     1.527   .     S
C24    H47     1.112   .     S
C25    H50     1.110   .     S
C25    H51     1.111   .     S
C25    H49     1.111   .     S
C26    C27     1.529   .     S
C26    H54     1.113   .     S
C26    H53     1.115   .     S
C26    O84     1.413   .     S
C27    H55     1.111   .     S
C27    H56     1.112   .     S
C27    C412    1.526   .     S
C28    H57     1.111   .     S
C28    H59     1.109   .     S
C28    H58     1.111   .     S
C28    C795    1.526   1_554 S
C29    O85     1.416   .     S
C29    H61     1.118   .     S
C29    C30     1.530   .     S
C29    H60     1.111   .     S
C30    H64     1.110   .     S
C30    C31     1.527   .     S
C30    H62     1.112   .     S
C31    H66     1.110   .     S
C31    H67     1.111   .     S
C31    H65     1.111   .     S
C32    H68     1.115   .     S
C32    O86     1.413   .     S
C32    H69     1.113   .     S
C32    C33     1.529   .     S
C33    H70     1.111   .     S
C33    H71     1.112   .     S
C33    C803    1.526   1_554 S
C34    O84     1.382   .     S
C34    C39     1.415   .     A
C34    N82     1.367   .     A
C35    H75     1.109   .     S
C35    H72     1.111   .     S
C35    H73     1.111   .     S
C35    C417    1.526   .     S
C36    C40     1.411   .     A
C36    N81     1.372   .     A
C36    O85     1.380   .     S
C37    O86     1.382   .     S
C37    N82     1.367   .     A
C38    H80     1.081   .     S
C39    H42     1.081   .     S
C40    H43     1.081   .     S
N81    Zn96    2.011   .     S
N82    Zn95    2.011   .     S
O83    Zn95    2.001   .     S
O87    Zn96    2.001   .     S
O88    Zn95    2.001   .     S
O89    Zn96    2.001   .     S
O90    Zn95    1.944   .     S
O91    Zn96    1.944   .     S
O92    Zn95    1.944   .     S
O93    Zn96    1.944   .     S
C97    O185    1.288   .     A
C97    C114    1.437   .     S
C97    O179    1.289   .     A
C98    H140    1.081   .     S
C98    C102    1.408   .     A
C98    C133    1.415   .     A
C99    O186    1.276   .     A
C99    C103    1.361   .     S
C99    O189    1.276   .     A
C100   C104    1.361   .     S
C100   O187    1.276   .     A
C100   O188    1.276   .     A
C101   C134    1.406   .     A
C101   C136    1.406   .     A
C101   C294    1.515   1_545 S
C102   C135    1.408   .     A
C102   C293    1.515   .     S
C103   C872    1.163   1_554 S
C104   C487    1.163   .     S
C105   C110    1.380   .     A
C105   C116    1.399   .     A
C105   H137    1.083   .     S
C106   H148    1.083   .     S
C106   C111    1.380   .     A
C106   C117    1.399   .     A
C107   C117    1.399   .     A
C107   C112    1.380   .     A
C107   H159    1.083   .     S
C108   O183    1.288   .     A
C108   O184    1.289   .     A
C108   C115    1.437   .     S
C109   C116    1.399   .     A
C109   C113    1.380   .     A
C109   H170    1.083   .     S
C110   C114    1.398   .     A
C110   H172    1.083   .     S
C111   H173    1.083   .     S
C111   C115    1.399   .     A
C112   C115    1.398   .     A
C112   H174    1.083   .     S
C113   H175    1.083   .     S
C113   C114    1.399   .     A
C117   C20     1.444   1_655 S
C118   O190    1.416   .     S
C118   H142    1.119   .     S
C118   C120    1.530   .     S
C118   H141    1.111   .     S
C119   N177    1.372   .     A
C119   C134    1.411   .     A
C119   O190    1.380   .     S
C120   H144    1.110   .     S
C120   C121    1.527   .     S
C120   H143    1.112   .     S
C121   H146    1.110   .     S
C121   H147    1.111   .     S
C121   H145    1.111   .     S
C122   C123    1.529   .     S
C122   H150    1.113   .     S
C122   H149    1.115   .     S
C122   O180    1.413   .     S
C123   H151    1.111   .     S
C123   H152    1.112   .     S
C123   C508    1.526   .     S
C124   H153    1.111   .     S
C124   H155    1.109   .     S
C124   H154    1.111   .     S
C124   C891    1.526   1_554 S
C125   O181    1.416   .     S
C125   H157    1.118   .     S
C125   C126    1.530   .     S
C125   H156    1.111   .     S
C126   H160    1.110   .     S
C126   C127    1.527   .     S
C126   H158    1.112   .     S
C127   H162    1.110   .     S
C127   H163    1.111   .     S
C127   H161    1.111   .     S
C128   H164    1.115   .     S
C128   O182    1.413   .     S
C128   H165    1.113   .     S
C128   C129    1.529   .     S
C129   H166    1.111   .     S
C129   H167    1.112   .     S
C129   C899    1.526   1_554 S
C130   O180    1.382   .     S
C130   C135    1.415   .     A
C130   N178    1.367   .     A
C131   H171    1.109   .     S
C131   H168    1.111   .     S
C131   H169    1.111   .     S
C131   C513    1.526   .     S
C132   C136    1.411   .     A
C132   N177    1.372   .     A
C132   O181    1.380   .     S
C133   O182    1.382   .     S
C133   N178    1.367   .     A
C134   H176    1.081   .     S
C135   H138    1.081   .     S
C136   H139    1.081   .     S
N177   Zn192   2.011   .     S
N178   Zn191   2.011   .     S
O179   Zn191   2.001   .     S
O183   Zn192   2.001   .     S
O184   Zn191   2.001   .     S
O185   Zn192   2.001   .     S
O186   Zn191   1.944   .     S
O187   Zn192   1.944   .     S
O188   Zn191   1.944   .     S
O189   Zn192   1.944   .     S
C193   O281    1.288   .     A
C193   C210    1.437   .     S
C193   O275    1.289   .     A
C194   H236    1.081   .     S
C194   C198    1.408   .     A
C194   C229    1.415   .     A
C195   O282    1.276   .     A
C195   C199    1.361   .     S
C195   O285    1.276   .     A
C196   C200    1.361   .     S
C196   O283    1.276   .     A
C196   O284    1.276   .     A
C197   C230    1.406   .     A
C197   C232    1.406   .     A
C198   C231    1.408   .     A
C198   C5      1.515   1_565 S
C199   C968    1.163   1_554 S
C200   C583    1.163   .     S
C201   C206    1.380   .     A
C201   C212    1.399   .     A
C201   H233    1.083   .     S
C202   H244    1.083   .     S
C202   C207    1.380   .     A
C202   C213    1.399   .     A
C203   C213    1.399   .     A
C203   C208    1.380   .     A
C203   H255    1.083   .     S
C204   O279    1.288   .     A
C204   O280    1.289   .     A
C204   C211    1.437   .     S
C205   C212    1.399   .     A
C205   C209    1.380   .     A
C205   H266    1.083   .     S
C206   C210    1.398   .     A
C206   H268    1.083   .     S
C207   H269    1.083   .     S
C207   C211    1.399   .     A
C208   C211    1.398   .     A
C208   H270    1.083   .     S
C209   H271    1.083   .     S
C209   C210    1.399   .     A
C212   C309    1.444   1_455 S
C213   C308    1.444   .     S
C214   O286    1.416   .     S
C214   H238    1.119   .     S
C214   C216    1.530   .     S
C214   H237    1.111   .     S
C215   N273    1.372   .     A
C215   C230    1.411   .     A
C215   O286    1.380   .     S
C216   H240    1.110   .     S
C216   C217    1.527   .     S
C216   H239    1.112   .     S
C217   H242    1.110   .     S
C217   H243    1.111   .     S
C217   H241    1.111   .     S
C218   C219    1.529   .     S
C218   H246    1.113   .     S
C218   H245    1.115   .     S
C218   O276    1.413   .     S
C219   H247    1.111   .     S
C219   H248    1.112   .     S
C219   C604    1.526   .     S
C220   H249    1.111   .     S
C220   H251    1.109   .     S
C220   H250    1.111   .     S
C220   C987    1.526   1_554 S
C221   O277    1.416   .     S
C221   H253    1.118   .     S
C221   C222    1.530   .     S
C221   H252    1.111   .     S
C222   H256    1.110   .     S
C222   C223    1.527   .     S
C222   H254    1.112   .     S
C223   H258    1.110   .     S
C223   H259    1.111   .     S
C223   H257    1.111   .     S
C224   H260    1.115   .     S
C224   O278    1.413   .     S
C224   H261    1.113   .     S
C224   C225    1.529   .     S
C225   H262    1.111   .     S
C225   H263    1.112   .     S
C225   C995    1.526   1_554 S
C226   O276    1.382   .     S
C226   C231    1.415   .     A
C226   N274    1.367   .     A
C227   H267    1.109   .     S
C227   H264    1.111   .     S
C227   H265    1.111   .     S
C227   C609    1.526   .     S
C228   C232    1.411   .     A
C228   N273    1.372   .     A
C228   O277    1.380   .     S
C229   O278    1.382   .     S
C229   N274    1.367   .     A
C230   H272    1.081   .     S
C231   H234    1.081   .     S
C232   H235    1.081   .     S
N273   Zn288   2.011   .     S
N274   Zn287   2.011   .     S
O275   Zn287   2.001   .     S
O279   Zn288   2.001   .     S
O280   Zn287   2.001   .     S
O281   Zn288   2.001   .     S
O282   Zn287   1.944   .     S
O283   Zn288   1.944   .     S
O284   Zn287   1.944   .     S
O285   Zn288   1.944   .     S
C289   O377    1.288   .     A
C289   C306    1.437   .     S
C289   O371    1.289   .     A
C290   H332    1.081   .     S
C290   C294    1.408   .     A
C290   C325    1.415   .     A
C291   O378    1.276   .     A
C291   C295    1.361   .     S
C291   O381    1.276   .     A
C292   C296    1.361   .     S
C292   O379    1.276   .     A
C292   O380    1.276   .     A
C293   C326    1.406   .     A
C293   C328    1.406   .     A
C294   C327    1.408   .     A
C294   C101    1.515   1_565 S
C295   C1064   1.163   1_554 S
C296   C679    1.163   .     S
C297   C302    1.380   .     A
C297   C308    1.399   .     A
C297   H329    1.083   .     S
C298   H340    1.083   .     S
C298   C303    1.380   .     A
C298   C309    1.399   .     A
C299   C309    1.399   .     A
C299   C304    1.380   .     A
C299   H351    1.083   .     S
C300   O375    1.288   .     A
C300   O376    1.289   .     A
C300   C307    1.437   .     S
C301   C308    1.399   .     A
C301   C305    1.380   .     A
C301   H362    1.083   .     S
C302   C306    1.398   .     A
C302   H364    1.083   .     S
C303   H365    1.083   .     S
C303   C307    1.399   .     A
C304   C307    1.398   .     A
C304   H366    1.083   .     S
C305   H367    1.083   .     S
C305   C306    1.399   .     A
C309   C212    1.444   1_655 S
C310   O382    1.416   .     S
C310   H334    1.119   .     S
C310   C312    1.530   .     S
C310   H333    1.111   .     S
C311   N369    1.372   .     A
C311   C326    1.411   .     A
C311   O382    1.380   .     S
C312   H336    1.110   .     S
C312   C313    1.527   .     S
C312   H335    1.112   .     S
C313   H338    1.110   .     S
C313   H339    1.111   .     S
C313   H337    1.111   .     S
C314   C315    1.529   .     S
C314   H342    1.113   .     S
C314   H341    1.115   .     S
C314   O372    1.413   .     S
C315   H343    1.111   .     S
C315   H344    1.112   .     S
C315   C700    1.526   .     S
C316   H345    1.111   .     S
C316   H347    1.109   .     S
C316   H346    1.111   .     S
C316   C1083   1.526   1_554 S
C317   O373    1.416   .     S
C317   H349    1.118   .     S
C317   C318    1.530   .     S
C317   H348    1.111   .     S
C318   H352    1.110   .     S
C318   C319    1.527   .     S
C318   H350    1.112   .     S
C319   H354    1.110   .     S
C319   H355    1.111   .     S
C319   H353    1.111   .     S
C320   H356    1.115   .     S
C320   O374    1.413   .     S
C320   H357    1.113   .     S
C320   C321    1.529   .     S
C321   H358    1.111   .     S
C321   H359    1.112   .     S
C321   C1091   1.526   1_554 S
C322   O372    1.382   .     S
C322   C327    1.415   .     A
C322   N370    1.367   .     A
C323   H363    1.109   .     S
C323   H360    1.111   .     S
C323   H361    1.111   .     S
C323   C705    1.526   .     S
C324   C328    1.411   .     A
C324   N369    1.372   .     A
C324   O373    1.380   .     S
C325   O374    1.382   .     S
C325   N370    1.367   .     A
C326   H368    1.081   .     S
C327   H330    1.081   .     S
C328   H331    1.081   .     S
N369   Zn384   2.011   .     S
N370   Zn383   2.011   .     S
O371   Zn383   2.001   .     S
O375   Zn384   2.001   .     S
O376   Zn383   2.001   .     S
O377   Zn384   2.001   .     S
O378   Zn383   1.944   .     S
O379   Zn384   1.944   .     S
O380   Zn383   1.944   .     S
O381   Zn384   1.944   .     S
C385   O473    1.288   .     A
C385   C402    1.437   .     S
C385   O467    1.289   .     A
C386   H428    1.081   .     S
C386   C390    1.408   .     A
C386   C421    1.415   .     A
C387   O474    1.276   .     A
C387   C391    1.361   .     S
C387   O477    1.276   .     A
C388   C392    1.361   .     S
C388   O475    1.276   .     A
C388   O476    1.276   .     A
C389   C422    1.406   .     A
C389   C424    1.406   .     A
C389   C582    1.515   1_545 S
C390   C423    1.408   .     A
C390   C581    1.515   .     S
C392   C775    1.163   .     S
C393   C398    1.380   .     A
C393   C404    1.399   .     A
C393   H425    1.083   .     S
C394   H436    1.083   .     S
C394   C399    1.380   .     A
C394   C405    1.399   .     A
C395   C405    1.399   .     A
C395   C400    1.380   .     A
C395   H447    1.083   .     S
C396   O471    1.288   .     A
C396   O472    1.289   .     A
C396   C403    1.437   .     S
C397   C404    1.399   .     A
C397   C401    1.380   .     A
C397   H458    1.083   .     S
C398   C402    1.398   .     A
C398   H460    1.083   .     S
C399   H461    1.083   .     S
C399   C403    1.399   .     A
C400   C403    1.398   .     A
C400   H462    1.083   .     S
C401   H463    1.083   .     S
C401   C402    1.399   .     A
C404   C501    1.444   1_455 S
C405   C500    1.444   .     S
C406   O478    1.416   .     S
C406   H430    1.119   .     S
C406   C408    1.530   .     S
C406   H429    1.111   .     S
C407   N465    1.372   .     A
C407   C422    1.411   .     A
C407   O478    1.380   .     S
C408   H432    1.110   .     S
C408   C409    1.527   .     S
C408   H431    1.112   .     S
C409   H434    1.110   .     S
C409   H435    1.111   .     S
C409   H433    1.111   .     S
C410   C411    1.529   .     S
C410   H438    1.113   .     S
C410   H437    1.115   .     S
C410   O468    1.413   .     S
C411   H439    1.111   .     S
C411   H440    1.112   .     S
C411   C796    1.526   .     S
C412   H441    1.111   .     S
C412   H443    1.109   .     S
C412   H442    1.111   .     S
C413   O469    1.416   .     S
C413   H445    1.118   .     S
C413   C414    1.530   .     S
C413   H444    1.111   .     S
C414   H448    1.110   .     S
C414   C415    1.527   .     S
C414   H446    1.112   .     S
C415   H450    1.110   .     S
C415   H451    1.111   .     S
C415   H449    1.111   .     S
C416   H452    1.115   .     S
C416   O470    1.413   .     S
C416   H453    1.113   .     S
C416   C417    1.529   .     S
C417   H454    1.111   .     S
C417   H455    1.112   .     S
C418   O468    1.382   .     S
C418   C423    1.415   .     A
C418   N466    1.367   .     A
C419   H459    1.109   .     S
C419   H456    1.111   .     S
C419   H457    1.111   .     S
C419   C801    1.526   .     S
C420   C424    1.411   .     A
C420   N465    1.372   .     A
C420   O469    1.380   .     S
C421   O470    1.382   .     S
C421   N466    1.367   .     A
C422   H464    1.081   .     S
C423   H426    1.081   .     S
C424   H427    1.081   .     S
N465   Zn480   2.011   .     S
N466   Zn479   2.011   .     S
O467   Zn479   2.001   .     S
O471   Zn480   2.001   .     S
O472   Zn479   2.001   .     S
O473   Zn480   2.001   .     S
O474   Zn479   1.944   .     S
O475   Zn480   1.944   .     S
O476   Zn479   1.944   .     S
O477   Zn480   1.944   .     S
C481   O569    1.288   .     A
C481   C498    1.437   .     S
C481   O563    1.289   .     A
C482   H524    1.081   .     S
C482   C486    1.408   .     A
C482   C517    1.415   .     A
C483   O570    1.276   .     A
C483   C487    1.361   .     S
C483   O573    1.276   .     A
C484   C488    1.361   .     S
C484   O571    1.276   .     A
C484   O572    1.276   .     A
C485   C518    1.406   .     A
C485   C520    1.406   .     A
C485   C678    1.515   1_545 S
C486   C519    1.408   .     A
C486   C677    1.515   .     S
C488   C871    1.163   .     S
C489   C494    1.380   .     A
C489   C500    1.399   .     A
C489   H521    1.083   .     S
C490   H532    1.083   .     S
C490   C495    1.380   .     A
C490   C501    1.399   .     A
C491   C501    1.399   .     A
C491   C496    1.380   .     A
C491   H543    1.083   .     S
C492   O567    1.288   .     A
C492   O568    1.289   .     A
C492   C499    1.437   .     S
C493   C500    1.399   .     A
C493   C497    1.380   .     A
C493   H554    1.083   .     S
C494   C498    1.398   .     A
C494   H556    1.083   .     S
C495   H557    1.083   .     S
C495   C499    1.399   .     A
C496   C499    1.398   .     A
C496   H558    1.083   .     S
C497   H559    1.083   .     S
C497   C498    1.399   .     A
C501   C404    1.444   1_655 S
C502   O574    1.416   .     S
C502   H526    1.119   .     S
C502   C504    1.530   .     S
C502   H525    1.111   .     S
C503   N561    1.372   .     A
C503   C518    1.411   .     A
C503   O574    1.380   .     S
C504   H528    1.110   .     S
C504   C505    1.527   .     S
C504   H527    1.112   .     S
C505   H530    1.110   .     S
C505   H531    1.111   .     S
C505   H529    1.111   .     S
C506   C507    1.529   .     S
C506   H534    1.113   .     S
C506   H533    1.115   .     S
C506   O564    1.413   .     S
C507   H535    1.111   .     S
C507   H536    1.112   .     S
C507   C892    1.526   .     S
C508   H537    1.111   .     S
C508   H539    1.109   .     S
C508   H538    1.111   .     S
C509   O565    1.416   .     S
C509   H541    1.118   .     S
C509   C510    1.530   .     S
C509   H540    1.111   .     S
C510   H544    1.110   .     S
C510   C511    1.527   .     S
C510   H542    1.112   .     S
C511   H546    1.110   .     S
C511   H547    1.111   .     S
C511   H545    1.111   .     S
C512   H548    1.115   .     S
C512   O566    1.413   .     S
C512   H549    1.113   .     S
C512   C513    1.529   .     S
C513   H550    1.111   .     S
C513   H551    1.112   .     S
C514   O564    1.382   .     S
C514   C519    1.415   .     A
C514   N562    1.367   .     A
C515   H555    1.109   .     S
C515   H552    1.111   .     S
C515   H553    1.111   .     S
C515   C897    1.526   .     S
C516   C520    1.411   .     A
C516   N561    1.372   .     A
C516   O565    1.380   .     S
C517   O566    1.382   .     S
C517   N562    1.367   .     A
C518   H560    1.081   .     S
C519   H522    1.081   .     S
C520   H523    1.081   .     S
N561   Zn576   2.011   .     S
N562   Zn575   2.011   .     S
O563   Zn575   2.001   .     S
O567   Zn576   2.001   .     S
O568   Zn575   2.001   .     S
O569   Zn576   2.001   .     S
O570   Zn575   1.944   .     S
O571   Zn576   1.944   .     S
O572   Zn575   1.944   .     S
O573   Zn576   1.944   .     S
C577   O665    1.288   .     A
C577   C594    1.437   .     S
C577   O659    1.289   .     A
C578   H620    1.081   .     S
C578   C582    1.408   .     A
C578   C613    1.415   .     A
C579   O666    1.276   .     A
C579   C583    1.361   .     S
C579   O669    1.276   .     A
C580   C584    1.361   .     S
C580   O667    1.276   .     A
C580   O668    1.276   .     A
C581   C614    1.406   .     A
C581   C616    1.406   .     A
C582   C615    1.408   .     A
C582   C389    1.515   1_565 S
C584   C967    1.163   .     S
C585   C590    1.380   .     A
C585   C596    1.399   .     A
C585   H617    1.083   .     S
C586   H628    1.083   .     S
C586   C591    1.380   .     A
C586   C597    1.399   .     A
C587   C597    1.399   .     A
C587   C592    1.380   .     A
C587   H639    1.083   .     S
C588   O663    1.288   .     A
C588   O664    1.289   .     A
C588   C595    1.437   .     S
C589   C596    1.399   .     A
C589   C593    1.380   .     A
C589   H650    1.083   .     S
C590   C594    1.398   .     A
C590   H652    1.083   .     S
C591   H653    1.083   .     S
C591   C595    1.399   .     A
C592   C595    1.398   .     A
C592   H654    1.083   .     S
C593   H655    1.083   .     S
C593   C594    1.399   .     A
C596   C693    1.444   1_455 S
C597   C692    1.444   .     S
C598   O670    1.416   .     S
C598   H622    1.119   .     S
C598   C600    1.530   .     S
C598   H621    1.111   .     S
C599   N657    1.372   .     A
C599   C614    1.411   .     A
C599   O670    1.380   .     S
C600   H624    1.110   .     S
C600   C601    1.527   .     S
C600   H623    1.112   .     S
C601   H626    1.110   .     S
C601   H627    1.111   .     S
C601   H625    1.111   .     S
C602   C603    1.529   .     S
C602   H630    1.113   .     S
C602   H629    1.115   .     S
C602   O660    1.413   .     S
C603   H631    1.111   .     S
C603   H632    1.112   .     S
C603   C988    1.526   .     S
C604   H633    1.111   .     S
C604   H635    1.109   .     S
C604   H634    1.111   .     S
C605   O661    1.416   .     S
C605   H637    1.118   .     S
C605   C606    1.530   .     S
C605   H636    1.111   .     S
C606   H640    1.110   .     S
C606   C607    1.527   .     S
C606   H638    1.112   .     S
C607   H642    1.110   .     S
C607   H643    1.111   .     S
C607   H641    1.111   .     S
C608   H644    1.115   .     S
C608   O662    1.413   .     S
C608   H645    1.113   .     S
C608   C609    1.529   .     S
C609   H646    1.111   .     S
C609   H647    1.112   .     S
C610   O660    1.382   .     S
C610   C615    1.415   .     A
C610   N658    1.367   .     A
C611   H651    1.109   .     S
C611   H648    1.111   .     S
C611   H649    1.111   .     S
C611   C993    1.526   .     S
C612   C616    1.411   .     A
C612   N657    1.372   .     A
C612   O661    1.380   .     S
C613   O662    1.382   .     S
C613   N658    1.367   .     A
C614   H656    1.081   .     S
C615   H618    1.081   .     S
C616   H619    1.081   .     S
N657   Zn672   2.011   .     S
N658   Zn671   2.011   .     S
O659   Zn671   2.001   .     S
O663   Zn672   2.001   .     S
O664   Zn671   2.001   .     S
O665   Zn672   2.001   .     S
O666   Zn671   1.944   .     S
O667   Zn672   1.944   .     S
O668   Zn671   1.944   .     S
O669   Zn672   1.944   .     S
C673   O761    1.288   .     A
C673   C690    1.437   .     S
C673   O755    1.289   .     A
C674   H716    1.081   .     S
C674   C678    1.408   .     A
C674   C709    1.415   .     A
C675   O762    1.276   .     A
C675   C679    1.361   .     S
C675   O765    1.276   .     A
C676   C680    1.361   .     S
C676   O763    1.276   .     A
C676   O764    1.276   .     A
C677   C710    1.406   .     A
C677   C712    1.406   .     A
C678   C711    1.408   .     A
C678   C485    1.515   1_565 S
C680   C1063   1.163   .     S
C681   C686    1.380   .     A
C681   C692    1.399   .     A
C681   H713    1.083   .     S
C682   H724    1.083   .     S
C682   C687    1.380   .     A
C682   C693    1.399   .     A
C683   C693    1.399   .     A
C683   C688    1.380   .     A
C683   H735    1.083   .     S
C684   O759    1.288   .     A
C684   O760    1.289   .     A
C684   C691    1.437   .     S
C685   C692    1.399   .     A
C685   C689    1.380   .     A
C685   H746    1.083   .     S
C686   C690    1.398   .     A
C686   H748    1.083   .     S
C687   H749    1.083   .     S
C687   C691    1.399   .     A
C688   C691    1.398   .     A
C688   H750    1.083   .     S
C689   H751    1.083   .     S
C689   C690    1.399   .     A
C693   C596    1.444   1_655 S
C694   O766    1.416   .     S
C694   H718    1.119   .     S
C694   C696    1.530   .     S
C694   H717    1.111   .     S
C695   N753    1.372   .     A
C695   C710    1.411   .     A
C695   O766    1.380   .     S
C696   H720    1.110   .     S
C696   C697    1.527   .     S
C696   H719    1.112   .     S
C697   H722    1.110   .     S
C697   H723    1.111   .     S
C697   H721    1.111   .     S
C698   C699    1.529   .     S
C698   H726    1.113   .     S
C698   H725    1.115   .     S
C698   O756    1.413   .     S
C699   H727    1.111   .     S
C699   H728    1.112   .     S
C699   C1084   1.526   .     S
C700   H729    1.111   .     S
C700   H731    1.109   .     S
C700   H730    1.111   .     S
C701   O757    1.416   .     S
C701   H733    1.118   .     S
C701   C702    1.530   .     S
C701   H732    1.111   .     S
C702   H736    1.110   .     S
C702   C703    1.527   .     S
C702   H734    1.112   .     S
C703   H738    1.110   .     S
C703   H739    1.111   .     S
C703   H737    1.111   .     S
C704   H740    1.115   .     S
C704   O758    1.413   .     S
C704   H741    1.113   .     S
C704   C705    1.529   .     S
C705   H742    1.111   .     S
C705   H743    1.112   .     S
C706   O756    1.382   .     S
C706   C711    1.415   .     A
C706   N754    1.367   .     A
C707   H747    1.109   .     S
C707   H744    1.111   .     S
C707   H745    1.111   .     S
C707   C1089   1.526   .     S
C708   C712    1.411   .     A
C708   N753    1.372   .     A
C708   O757    1.380   .     S
C709   O758    1.382   .     S
C709   N754    1.367   .     A
C710   H752    1.081   .     S
C711   H714    1.081   .     S
C712   H715    1.081   .     S
N753   Zn768   2.011   .     S
N754   Zn767   2.011   .     S
O755   Zn767   2.001   .     S
O759   Zn768   2.001   .     S
O760   Zn767   2.001   .     S
O761   Zn768   2.001   .     S
O762   Zn767   1.944   .     S
O763   Zn768   1.944   .     S
O764   Zn767   1.944   .     S
O765   Zn768   1.944   .     S
C769   O857    1.288   .     A
C769   C786    1.437   .     S
C769   O851    1.289   .     A
C770   H812    1.081   .     S
C770   C774    1.408   .     A
C770   C805    1.415   .     A
C771   O858    1.276   .     A
C771   C775    1.361   .     S
C771   O861    1.276   .     A
C772   C776    1.361   .     S
C772   O859    1.276   .     A
C772   O860    1.276   .     A
C773   C806    1.406   .     A
C773   C808    1.406   .     A
C773   C966    1.515   1_545 S
C774   C807    1.408   .     A
C774   C965    1.515   .     S
C776   C7      1.163   1_556 S
C777   C782    1.380   .     A
C777   C788    1.399   .     A
C777   H809    1.083   .     S
C778   H820    1.083   .     S
C778   C783    1.380   .     A
C778   C789    1.399   .     A
C779   C789    1.399   .     A
C779   C784    1.380   .     A
C779   H831    1.083   .     S
C780   O855    1.288   .     A
C780   O856    1.289   .     A
C780   C787    1.437   .     S
C781   C788    1.399   .     A
C781   C785    1.380   .     A
C781   H842    1.083   .     S
C782   C786    1.398   .     A
C782   H844    1.083   .     S
C783   H845    1.083   .     S
C783   C787    1.399   .     A
C784   C787    1.398   .     A
C784   H846    1.083   .     S
C785   H847    1.083   .     S
C785   C786    1.399   .     A
C788   C885    1.444   1_455 S
C789   C884    1.444   .     S
C790   O862    1.416   .     S
C790   H814    1.119   .     S
C790   C792    1.530   .     S
C790   H813    1.111   .     S
C791   N849    1.372   .     A
C791   C806    1.411   .     A
C791   O862    1.380   .     S
C792   H816    1.110   .     S
C792   C793    1.527   .     S
C792   H815    1.112   .     S
C793   H818    1.110   .     S
C793   H819    1.111   .     S
C793   H817    1.111   .     S
C794   C795    1.529   .     S
C794   H822    1.113   .     S
C794   H821    1.115   .     S
C794   O852    1.413   .     S
C795   H823    1.111   .     S
C795   H824    1.112   .     S
C795   C28     1.526   1_556 S
C796   H825    1.111   .     S
C796   H827    1.109   .     S
C796   H826    1.111   .     S
C797   O853    1.416   .     S
C797   H829    1.118   .     S
C797   C798    1.530   .     S
C797   H828    1.111   .     S
C798   H832    1.110   .     S
C798   C799    1.527   .     S
C798   H830    1.112   .     S
C799   H834    1.110   .     S
C799   H835    1.111   .     S
C799   H833    1.111   .     S
C800   H836    1.115   .     S
C800   O854    1.413   .     S
C800   H837    1.113   .     S
C800   C801    1.529   .     S
C801   H838    1.111   .     S
C801   H839    1.112   .     S
C802   O852    1.382   .     S
C802   C807    1.415   .     A
C802   N850    1.367   .     A
C803   H843    1.109   .     S
C803   H840    1.111   .     S
C803   H841    1.111   .     S
C803   C33     1.526   1_556 S
C804   C808    1.411   .     A
C804   N849    1.372   .     A
C804   O853    1.380   .     S
C805   O854    1.382   .     S
C805   N850    1.367   .     A
C806   H848    1.081   .     S
C807   H810    1.081   .     S
C808   H811    1.081   .     S
N849   Zn864   2.011   .     S
N850   Zn863   2.011   .     S
O851   Zn863   2.001   .     S
O855   Zn864   2.001   .     S
O856   Zn863   2.001   .     S
O857   Zn864   2.001   .     S
O858   Zn863   1.944   .     S
O859   Zn864   1.944   .     S
O860   Zn863   1.944   .     S
O861   Zn864   1.944   .     S
C865   O953    1.288   .     A
C865   C882    1.437   .     S
C865   O947    1.289   .     A
C866   H908    1.081   .     S
C866   C870    1.408   .     A
C866   C901    1.415   .     A
C867   O954    1.276   .     A
C867   C871    1.361   .     S
C867   O957    1.276   .     A
C868   C872    1.361   .     S
C868   O955    1.276   .     A
C868   O956    1.276   .     A
C869   C902    1.406   .     A
C869   C904    1.406   .     A
C869   C1062   1.515   1_545 S
C870   C903    1.408   .     A
C870   C1061   1.515   .     S
C872   C103    1.163   1_556 S
C873   C878    1.380   .     A
C873   C884    1.399   .     A
C873   H905    1.083   .     S
C874   H916    1.083   .     S
C874   C879    1.380   .     A
C874   C885    1.399   .     A
C875   C885    1.399   .     A
C875   C880    1.380   .     A
C875   H927    1.083   .     S
C876   O951    1.288   .     A
C876   O952    1.289   .     A
C876   C883    1.437   .     S
C877   C884    1.399   .     A
C877   C881    1.380   .     A
C877   H938    1.083   .     S
C878   C882    1.398   .     A
C878   H940    1.083   .     S
C879   H941    1.083   .     S
C879   C883    1.399   .     A
C880   C883    1.398   .     A
C880   H942    1.083   .     S
C881   H943    1.083   .     S
C881   C882    1.399   .     A
C885   C788    1.444   1_655 S
C886   O958    1.416   .     S
C886   H910    1.119   .     S
C886   C888    1.530   .     S
C886   H909    1.111   .     S
C887   N945    1.372   .     A
C887   C902    1.411   .     A
C887   O958    1.380   .     S
C888   H912    1.110   .     S
C888   C889    1.527   .     S
C888   H911    1.112   .     S
C889   H914    1.110   .     S
C889   H915    1.111   .     S
C889   H913    1.111   .     S
C890   C891    1.529   .     S
C890   H918    1.113   .     S
C890   H917    1.115   .     S
C890   O948    1.413   .     S
C891   H919    1.111   .     S
C891   H920    1.112   .     S
C891   C124    1.526   1_556 S
C892   H921    1.111   .     S
C892   H923    1.109   .     S
C892   H922    1.111   .     S
C893   O949    1.416   .     S
C893   H925    1.118   .     S
C893   C894    1.530   .     S
C893   H924    1.111   .     S
C894   H928    1.110   .     S
C894   C895    1.527   .     S
C894   H926    1.112   .     S
C895   H930    1.110   .     S
C895   H931    1.111   .     S
C895   H929    1.111   .     S
C896   H932    1.115   .     S
C896   O950    1.413   .     S
C896   H933    1.113   .     S
C896   C897    1.529   .     S
C897   H934    1.111   .     S
C897   H935    1.112   .     S
C898   O948    1.382   .     S
C898   C903    1.415   .     A
C898   N946    1.367   .     A
C899   H939    1.109   .     S
C899   H936    1.111   .     S
C899   H937    1.111   .     S
C899   C129    1.526   1_556 S
C900   C904    1.411   .     A
C900   N945    1.372   .     A
C900   O949    1.380   .     S
C901   O950    1.382   .     S
C901   N946    1.367   .     A
C902   H944    1.081   .     S
C903   H906    1.081   .     S
C904   H907    1.081   .     S
N945   Zn960   2.011   .     S
N946   Zn959   2.011   .     S
O947   Zn959   2.001   .     S
O951   Zn960   2.001   .     S
O952   Zn959   2.001   .     S
O953   Zn960   2.001   .     S
O954   Zn959   1.944   .     S
O955   Zn960   1.944   .     S
O956   Zn959   1.944   .     S
O957   Zn960   1.944   .     S
C961   O1049   1.288   .     A
C961   C978    1.437   .     S
C961   O1043   1.289   .     A
C962   H1004   1.081   .     S
C962   C966    1.408   .     A
C962   C997    1.415   .     A
C963   O1050   1.276   .     A
C963   C967    1.361   .     S
C963   O1053   1.276   .     A
C964   C968    1.361   .     S
C964   O1051   1.276   .     A
C964   O1052   1.276   .     A
C965   C998    1.406   .     A
C965   C1000   1.406   .     A
C966   C999    1.408   .     A
C966   C773    1.515   1_565 S
C968   C199    1.163   1_556 S
C969   C974    1.380   .     A
C969   C980    1.399   .     A
C969   H1001   1.083   .     S
C970   H1012   1.083   .     S
C970   C975    1.380   .     A
C970   C981    1.399   .     A
C971   C981    1.399   .     A
C971   C976    1.380   .     A
C971   H1023   1.083   .     S
C972   O1047   1.288   .     A
C972   O1048   1.289   .     A
C972   C979    1.437   .     S
C973   C980    1.399   .     A
C973   C977    1.380   .     A
C973   H1034   1.083   .     S
C974   C978    1.398   .     A
C974   H1036   1.083   .     S
C975   H1037   1.083   .     S
C975   C979    1.399   .     A
C976   C979    1.398   .     A
C976   H1038   1.083   .     S
C977   H1039   1.083   .     S
C977   C978    1.399   .     A
C980   C1077   1.444   1_455 S
C981   C1076   1.444   .     S
C982   O1054   1.416   .     S
C982   H1006   1.119   .     S
C982   C984    1.530   .     S
C982   H1005   1.111   .     S
C983   N1041   1.372   .     A
C983   C998    1.411   .     A
C983   O1054   1.380   .     S
C984   H1008   1.110   .     S
C984   C985    1.527   .     S
C984   H1007   1.112   .     S
C985   H1010   1.110   .     S
C985   H1011   1.111   .     S
C985   H1009   1.111   .     S
C986   C987    1.529   .     S
C986   H1014   1.113   .     S
C986   H1013   1.115   .     S
C986   O1044   1.413   .     S
C987   H1015   1.111   .     S
C987   H1016   1.112   .     S
C987   C220    1.526   1_556 S
C988   H1017   1.111   .     S
C988   H1019   1.109   .     S
C988   H1018   1.111   .     S
C989   O1045   1.416   .     S
C989   H1021   1.118   .     S
C989   C990    1.530   .     S
C989   H1020   1.111   .     S
C990   H1024   1.110   .     S
C990   C991    1.527   .     S
C990   H1022   1.112   .     S
C991   H1026   1.110   .     S
C991   H1027   1.111   .     S
C991   H1025   1.111   .     S
C992   H1028   1.115   .     S
C992   O1046   1.413   .     S
C992   H1029   1.113   .     S
C992   C993    1.529   .     S
C993   H1030   1.111   .     S
C993   H1031   1.112   .     S
C994   O1044   1.382   .     S
C994   C999    1.415   .     A
C994   N1042   1.367   .     A
C995   H1035   1.109   .     S
C995   H1032   1.111   .     S
C995   H1033   1.111   .     S
C995   C225    1.526   1_556 S
C996   C1000   1.411   .     A
C996   N1041   1.372   .     A
C996   O1045   1.380   .     S
C997   O1046   1.382   .     S
C997   N1042   1.367   .     A
C998   H1040   1.081   .     S
C999   H1002   1.081   .     S
C1000  H1003   1.081   .     S
N1041  Zn1056  2.011   .     S
N1042  Zn1055  2.011   .     S
O1043  Zn1055  2.001   .     S
O1047  Zn1056  2.001   .     S
O1048  Zn1055  2.001   .     S
O1049  Zn1056  2.001   .     S
O1050  Zn1055  1.944   .     S
O1051  Zn1056  1.944   .     S
O1052  Zn1055  1.944   .     S
O1053  Zn1056  1.944   .     S
C1057  O1145   1.288   .     A
C1057  C1074   1.437   .     S
C1057  O1139   1.289   .     A
C1058  H1100   1.081   .     S
C1058  C1062   1.408   .     A
C1058  C1093   1.415   .     A
C1059  O1146   1.276   .     A
C1059  C1063   1.361   .     S
C1059  O1149   1.276   .     A
C1060  C1064   1.361   .     S
C1060  O1147   1.276   .     A
C1060  O1148   1.276   .     A
C1061  C1094   1.406   .     A
C1061  C1096   1.406   .     A
C1062  C1095   1.408   .     A
C1062  C869    1.515   1_565 S
C1064  C295    1.163   1_556 S
C1065  C1070   1.380   .     A
C1065  C1076   1.399   .     A
C1065  H1097   1.083   .     S
C1066  H1108   1.083   .     S
C1066  C1071   1.380   .     A
C1066  C1077   1.399   .     A
C1067  C1077   1.399   .     A
C1067  C1072   1.380   .     A
C1067  H1119   1.083   .     S
C1068  O1143   1.288   .     A
C1068  O1144   1.289   .     A
C1068  C1075   1.437   .     S
C1069  C1076   1.399   .     A
C1069  C1073   1.380   .     A
C1069  H1130   1.083   .     S
C1070  C1074   1.398   .     A
C1070  H1132   1.083   .     S
C1071  H1133   1.083   .     S
C1071  C1075   1.399   .     A
C1072  C1075   1.398   .     A
C1072  H1134   1.083   .     S
C1073  H1135   1.083   .     S
C1073  C1074   1.399   .     A
C1077  C980    1.444   1_655 S
C1078  O1150   1.416   .     S
C1078  H1102   1.119   .     S
C1078  C1080   1.530   .     S
C1078  H1101   1.111   .     S
C1079  N1137   1.372   .     A
C1079  C1094   1.411   .     A
C1079  O1150   1.380   .     S
C1080  H1104   1.110   .     S
C1080  C1081   1.527   .     S
C1080  H1103   1.112   .     S
C1081  H1106   1.110   .     S
C1081  H1107   1.111   .     S
C1081  H1105   1.111   .     S
C1082  C1083   1.529   .     S
C1082  H1110   1.113   .     S
C1082  H1109   1.115   .     S
C1082  O1140   1.413   .     S
C1083  H1111   1.111   .     S
C1083  H1112   1.112   .     S
C1083  C316    1.526   1_556 S
C1084  H1113   1.111   .     S
C1084  H1115   1.109   .     S
C1084  H1114   1.111   .     S
C1085  O1141   1.416   .     S
C1085  H1117   1.118   .     S
C1085  C1086   1.530   .     S
C1085  H1116   1.111   .     S
C1086  H1120   1.110   .     S
C1086  C1087   1.527   .     S
C1086  H1118   1.112   .     S
C1087  H1122   1.110   .     S
C1087  H1123   1.111   .     S
C1087  H1121   1.111   .     S
C1088  H1124   1.115   .     S
C1088  O1142   1.413   .     S
C1088  H1125   1.113   .     S
C1088  C1089   1.529   .     S
C1089  H1126   1.111   .     S
C1089  H1127   1.112   .     S
C1090  O1140   1.382   .     S
C1090  C1095   1.415   .     A
C1090  N1138   1.367   .     A
C1091  H1131   1.109   .     S
C1091  H1128   1.111   .     S
C1091  H1129   1.111   .     S
C1091  C321    1.526   1_556 S
C1092  C1096   1.411   .     A
C1092  N1137   1.372   .     A
C1092  O1141   1.380   .     S
C1093  O1142   1.382   .     S
C1093  N1138   1.367   .     A
C1094  H1136   1.081   .     S
C1095  H1098   1.081   .     S
C1096  H1099   1.081   .     S
N1137  Zn1152  2.011   .     S
N1138  Zn1151  2.011   .     S
O1139  Zn1151  2.001   .     S
O1143  Zn1152  2.001   .     S
O1144  Zn1151  2.001   .     S
O1145  Zn1152  2.001   .     S
O1146  Zn1151  1.944   .     S
O1147  Zn1152  1.944   .     S
O1148  Zn1151  1.944   .     S
O1149  Zn1152  1.944   .     S
