data_str_m3_o10_o17_pcu_sym.100
_audit_creation_date              2020-01-03
_audit_creation_method            'Materials Studio'
_symmetry_space_group_name_H-M    'P1'
_symmetry_Int_Tables_number       1
_symmetry_cell_setting            triclinic
loop_
_symmetry_equiv_pos_as_xyz
  x,y,z
_cell_length_a                    23.3872
_cell_length_b                    25.7222
_cell_length_c                    29.7434
_cell_angle_alpha                 90.9291
_cell_angle_beta                  85.8781
_cell_angle_gamma                 93.0361
loop_
_atom_site_label
_atom_site_type_symbol
_atom_site_fract_x
_atom_site_fract_y
_atom_site_fract_z
_atom_site_U_iso_or_equiv
_atom_site_adp_type
_atom_site_occupancy
O1     O     0.12975   0.24619   0.25298   0.00000  Uiso   1.00
O2     O     0.20358   0.08714   0.24701   0.00000  Uiso   1.00
O3     O     0.22613   0.23721   0.24518   0.00000  Uiso   1.00
O4     O     0.10720   0.09613   0.25481   0.00000  Uiso   1.00
C5     C     0.18175   0.26483   0.24883   0.00000  Uiso   1.00
C6     C     0.15158   0.06851   0.25117   0.00000  Uiso   1.00
O7     O     0.11847   0.17117   0.31997   0.00000  Uiso   1.00
O8     O     0.21486   0.16216   0.18002   0.00000  Uiso   1.00
O9     O     0.21485   0.16219   0.31217   0.00000  Uiso   1.00
O10    O     0.11848   0.17115   0.18782   0.00000  Uiso   1.00
C11    C     0.16733   0.16628   0.33633   0.00000  Uiso   1.00
C12    C     0.16600   0.16705   0.16367   0.00000  Uiso   1.00
Zn13   Zn    0.10231   0.17266   0.25521   0.00000  Uiso   1.00
Zn14   Zn    0.23102   0.16067   0.24479   0.00000  Uiso   1.00
C15    C     0.13701   0.12657   0.09476   0.00000  Uiso   1.00
C16    C     0.19633   0.20677   0.40523   0.00000  Uiso   1.00
C17    C     0.16444   0.16790   0.11618   0.00000  Uiso   1.00
C18    C     0.16890   0.16543   0.38382   0.00000  Uiso   1.00
C19    C     0.19172   0.20930   0.09273   0.00000  Uiso   1.00
C20    C     0.14166   0.12402   0.40727   0.00000  Uiso   1.00
C21    C     0.19188   0.21014   0.04603   0.00000  Uiso   1.00
C22    C     0.14152   0.12316   0.45397   0.00000  Uiso   1.00
C23    C     0.16540   0.16731   0.02346   0.00000  Uiso   1.00
C24    C     0.16800   0.16600   0.47653   0.00000  Uiso   1.00
C25    C     0.13693   0.12550   0.04804   0.00000  Uiso   1.00
C26    C     0.19645   0.20782   0.45195   0.00000  Uiso   1.00
C27    C     0.21967   0.25184   0.02160   0.00000  Uiso   1.00
C28    C     0.11377   0.08144   0.47840   0.00000  Uiso   1.00
C29    C     0.22257   0.25046   0.47442   0.00000  Uiso   1.00
C30    C     0.11084   0.08284   0.02557   0.00000  Uiso   1.00
H31    H     0.11789   0.09474   0.11503   0.00000  Uiso   1.00
H32    H     0.21541   0.23861   0.38496   0.00000  Uiso   1.00
H33    H     0.21306   0.24022   0.11141   0.00000  Uiso   1.00
H34    H     0.12032   0.09309   0.38858   0.00000  Uiso   1.00
C35    C     0.18978   0.31921   0.24815   0.00000  Uiso   1.00
C36    C     0.14355   0.01412   0.25185   0.00000  Uiso   1.00
H37    H     0.23360   0.00251   0.24461   0.00000  Uiso   1.00
H38    H     0.09974   0.33082   0.25539   0.00000  Uiso   1.00
N39    N     0.31678   0.15265   0.23783   0.00000  Uiso   1.00
N40    N     0.01656   0.18068   0.26217   0.00000  Uiso   1.00
H41    H     0.00463   0.12754   0.21597   0.00000  Uiso   1.00
H42    H     0.32870   0.20579   0.28403   0.00000  Uiso   1.00
N43    N     0.24748   0.29457   0.04439   0.00000  Uiso   1.00
O44    O     0.21756   0.32603   0.07012   0.00000  Uiso   1.00
O45    O     0.30256   0.30364   0.03744   0.00000  Uiso   1.00
N46    N     0.08605   0.03865   0.45560   0.00000  Uiso   1.00
O47    O     0.11604   0.00729   0.42983   0.00000  Uiso   1.00
O48    O     0.03100   0.02941   0.46262   0.00000  Uiso   1.00
N49    N     0.25169   0.29271   0.44962   0.00000  Uiso   1.00
O50    O     0.23804   0.00710   0.45822   0.00000  Uiso   1.00
O51    O     0.29505   0.28392   0.42109   0.00000  Uiso   1.00
N52    N     0.08173   0.04059   0.05038   0.00000  Uiso   1.00
O53    O     0.09550   0.32622   0.04187   0.00000  Uiso   1.00
O54    O     0.03830   0.04936   0.07884   0.00000  Uiso   1.00
O55    O     0.46308   0.24619   0.25298   0.00000  Uiso   1.00
O56    O     0.53692   0.08714   0.24701   0.00000  Uiso   1.00
O57    O     0.55946   0.23721   0.24518   0.00000  Uiso   1.00
O58    O     0.44054   0.09613   0.25481   0.00000  Uiso   1.00
C59    C     0.51508   0.26483   0.24883   0.00000  Uiso   1.00
C60    C     0.48492   0.06851   0.25117   0.00000  Uiso   1.00
O61    O     0.45181   0.17117   0.31997   0.00000  Uiso   1.00
O62    O     0.54819   0.16216   0.18002   0.00000  Uiso   1.00
O63    O     0.54819   0.16219   0.31217   0.00000  Uiso   1.00
O64    O     0.45181   0.17115   0.18782   0.00000  Uiso   1.00
C65    C     0.50067   0.16628   0.33633   0.00000  Uiso   1.00
C66    C     0.49933   0.16705   0.16367   0.00000  Uiso   1.00
Zn67   Zn    0.43565   0.17266   0.25521   0.00000  Uiso   1.00
Zn68   Zn    0.56435   0.16067   0.24479   0.00000  Uiso   1.00
C69    C     0.47034   0.12657   0.09476   0.00000  Uiso   1.00
C70    C     0.52966   0.20677   0.40523   0.00000  Uiso   1.00
C71    C     0.49777   0.16790   0.11618   0.00000  Uiso   1.00
C72    C     0.50223   0.16543   0.38382   0.00000  Uiso   1.00
C73    C     0.52506   0.20930   0.09273   0.00000  Uiso   1.00
C74    C     0.47499   0.12402   0.40727   0.00000  Uiso   1.00
C75    C     0.52522   0.21014   0.04603   0.00000  Uiso   1.00
C76    C     0.47486   0.12316   0.45397   0.00000  Uiso   1.00
C77    C     0.49873   0.16731   0.02346   0.00000  Uiso   1.00
C78    C     0.50133   0.16600   0.47653   0.00000  Uiso   1.00
C79    C     0.47026   0.12550   0.04804   0.00000  Uiso   1.00
C80    C     0.52979   0.20782   0.45195   0.00000  Uiso   1.00
C81    C     0.55300   0.25184   0.02160   0.00000  Uiso   1.00
C82    C     0.44710   0.08144   0.47840   0.00000  Uiso   1.00
C83    C     0.55590   0.25046   0.47442   0.00000  Uiso   1.00
C84    C     0.44418   0.08284   0.02557   0.00000  Uiso   1.00
H85    H     0.45123   0.09474   0.11503   0.00000  Uiso   1.00
H86    H     0.54874   0.23861   0.38496   0.00000  Uiso   1.00
H87    H     0.54640   0.24022   0.11141   0.00000  Uiso   1.00
H88    H     0.45365   0.09309   0.38858   0.00000  Uiso   1.00
C89    C     0.52312   0.31921   0.24815   0.00000  Uiso   1.00
C90    C     0.47688   0.01412   0.25185   0.00000  Uiso   1.00
H91    H     0.56693   0.00251   0.24461   0.00000  Uiso   1.00
H92    H     0.43307   0.33082   0.25539   0.00000  Uiso   1.00
N93    N     0.65011   0.15265   0.23783   0.00000  Uiso   1.00
N94    N     0.34989   0.18068   0.26217   0.00000  Uiso   1.00
H95    H     0.33796   0.12754   0.21597   0.00000  Uiso   1.00
H96    H     0.66204   0.20579   0.28403   0.00000  Uiso   1.00
N97    N     0.58082   0.29457   0.04439   0.00000  Uiso   1.00
O98    O     0.55090   0.32603   0.07012   0.00000  Uiso   1.00
O99    O     0.63589   0.30364   0.03744   0.00000  Uiso   1.00
N100   N     0.41938   0.03865   0.45560   0.00000  Uiso   1.00
O101   O     0.44937   0.00729   0.42983   0.00000  Uiso   1.00
O102   O     0.36434   0.02941   0.46262   0.00000  Uiso   1.00
N103   N     0.58502   0.29271   0.44962   0.00000  Uiso   1.00
O104   O     0.57137   0.00710   0.45822   0.00000  Uiso   1.00
O105   O     0.62838   0.28392   0.42109   0.00000  Uiso   1.00
N106   N     0.41507   0.04059   0.05038   0.00000  Uiso   1.00
O107   O     0.42883   0.32622   0.04187   0.00000  Uiso   1.00
O108   O     0.37163   0.04936   0.07884   0.00000  Uiso   1.00
O109   O     0.79642   0.24619   0.25298   0.00000  Uiso   1.00
O110   O     0.87025   0.08714   0.24701   0.00000  Uiso   1.00
O111   O     0.89280   0.23721   0.24518   0.00000  Uiso   1.00
O112   O     0.77387   0.09613   0.25481   0.00000  Uiso   1.00
C113   C     0.84842   0.26483   0.24883   0.00000  Uiso   1.00
C114   C     0.81825   0.06851   0.25117   0.00000  Uiso   1.00
O115   O     0.78514   0.17117   0.31997   0.00000  Uiso   1.00
O116   O     0.88153   0.16216   0.18002   0.00000  Uiso   1.00
O117   O     0.88152   0.16219   0.31217   0.00000  Uiso   1.00
O118   O     0.78515   0.17115   0.18782   0.00000  Uiso   1.00
C119   C     0.83400   0.16628   0.33633   0.00000  Uiso   1.00
C120   C     0.83267   0.16705   0.16367   0.00000  Uiso   1.00
Zn121  Zn    0.76898   0.17266   0.25521   0.00000  Uiso   1.00
Zn122  Zn    0.89769   0.16067   0.24479   0.00000  Uiso   1.00
C123   C     0.80368   0.12657   0.09476   0.00000  Uiso   1.00
C124   C     0.86299   0.20677   0.40523   0.00000  Uiso   1.00
C125   C     0.83111   0.16790   0.11618   0.00000  Uiso   1.00
C126   C     0.83557   0.16543   0.38382   0.00000  Uiso   1.00
C127   C     0.85839   0.20930   0.09273   0.00000  Uiso   1.00
C128   C     0.80832   0.12402   0.40727   0.00000  Uiso   1.00
C129   C     0.85855   0.21014   0.04603   0.00000  Uiso   1.00
C130   C     0.80819   0.12316   0.45397   0.00000  Uiso   1.00
C131   C     0.83207   0.16731   0.02346   0.00000  Uiso   1.00
C132   C     0.83466   0.16600   0.47653   0.00000  Uiso   1.00
C133   C     0.80359   0.12550   0.04804   0.00000  Uiso   1.00
C134   C     0.86312   0.20782   0.45195   0.00000  Uiso   1.00
C135   C     0.88633   0.25184   0.02160   0.00000  Uiso   1.00
C136   C     0.78044   0.08144   0.47840   0.00000  Uiso   1.00
C137   C     0.88923   0.25046   0.47442   0.00000  Uiso   1.00
C138   C     0.77751   0.08284   0.02557   0.00000  Uiso   1.00
H139   H     0.78456   0.09474   0.11503   0.00000  Uiso   1.00
H140   H     0.88208   0.23861   0.38496   0.00000  Uiso   1.00
H141   H     0.87973   0.24022   0.11141   0.00000  Uiso   1.00
H142   H     0.78699   0.09309   0.38858   0.00000  Uiso   1.00
C143   C     0.85645   0.31921   0.24815   0.00000  Uiso   1.00
C144   C     0.81022   0.01412   0.25185   0.00000  Uiso   1.00
H145   H     0.90026   0.00251   0.24461   0.00000  Uiso   1.00
H146   H     0.76640   0.33082   0.25539   0.00000  Uiso   1.00
N147   N     0.98344   0.15265   0.23783   0.00000  Uiso   1.00
N148   N     0.68322   0.18068   0.26217   0.00000  Uiso   1.00
H149   H     0.67130   0.12754   0.21597   0.00000  Uiso   1.00
H150   H     0.99537   0.20579   0.28403   0.00000  Uiso   1.00
N151   N     0.91415   0.29457   0.04439   0.00000  Uiso   1.00
O152   O     0.88423   0.32603   0.07012   0.00000  Uiso   1.00
O153   O     0.96923   0.30364   0.03744   0.00000  Uiso   1.00
N154   N     0.75272   0.03865   0.45560   0.00000  Uiso   1.00
O155   O     0.78271   0.00729   0.42983   0.00000  Uiso   1.00
O156   O     0.69767   0.02941   0.46262   0.00000  Uiso   1.00
N157   N     0.91836   0.29271   0.44962   0.00000  Uiso   1.00
O158   O     0.90470   0.00710   0.45822   0.00000  Uiso   1.00
O159   O     0.96171   0.28392   0.42109   0.00000  Uiso   1.00
N160   N     0.74840   0.04059   0.05038   0.00000  Uiso   1.00
O161   O     0.76217   0.32622   0.04187   0.00000  Uiso   1.00
O162   O     0.70497   0.04936   0.07884   0.00000  Uiso   1.00
O163   O     0.12975   0.57952   0.25298   0.00000  Uiso   1.00
O164   O     0.20358   0.42048   0.24701   0.00000  Uiso   1.00
O165   O     0.22613   0.57054   0.24518   0.00000  Uiso   1.00
O166   O     0.10720   0.42946   0.25481   0.00000  Uiso   1.00
C167   C     0.18175   0.59816   0.24883   0.00000  Uiso   1.00
C168   C     0.15158   0.40184   0.25117   0.00000  Uiso   1.00
O169   O     0.11847   0.50450   0.31997   0.00000  Uiso   1.00
O170   O     0.21486   0.49550   0.18002   0.00000  Uiso   1.00
O171   O     0.21485   0.49552   0.31217   0.00000  Uiso   1.00
O172   O     0.11848   0.50448   0.18782   0.00000  Uiso   1.00
C173   C     0.16733   0.49962   0.33633   0.00000  Uiso   1.00
C174   C     0.16600   0.50039   0.16367   0.00000  Uiso   1.00
Zn175  Zn    0.10231   0.50600   0.25521   0.00000  Uiso   1.00
Zn176  Zn    0.23102   0.49400   0.24479   0.00000  Uiso   1.00
C177   C     0.13701   0.45990   0.09476   0.00000  Uiso   1.00
C178   C     0.19633   0.54010   0.40523   0.00000  Uiso   1.00
C179   C     0.16444   0.50123   0.11618   0.00000  Uiso   1.00
C180   C     0.16890   0.49877   0.38382   0.00000  Uiso   1.00
C181   C     0.19172   0.54263   0.09273   0.00000  Uiso   1.00
C182   C     0.14166   0.45735   0.40727   0.00000  Uiso   1.00
C183   C     0.19188   0.54347   0.04603   0.00000  Uiso   1.00
C184   C     0.14152   0.45650   0.45397   0.00000  Uiso   1.00
C185   C     0.16540   0.50064   0.02346   0.00000  Uiso   1.00
C186   C     0.16800   0.49933   0.47653   0.00000  Uiso   1.00
C187   C     0.13693   0.45883   0.04804   0.00000  Uiso   1.00
C188   C     0.19645   0.54115   0.45195   0.00000  Uiso   1.00
C189   C     0.21967   0.58517   0.02160   0.00000  Uiso   1.00
C190   C     0.11377   0.41478   0.47840   0.00000  Uiso   1.00
C191   C     0.22257   0.58379   0.47442   0.00000  Uiso   1.00
C192   C     0.11084   0.41617   0.02557   0.00000  Uiso   1.00
H193   H     0.11789   0.42807   0.11503   0.00000  Uiso   1.00
H194   H     0.21541   0.57194   0.38496   0.00000  Uiso   1.00
H195   H     0.21306   0.57355   0.11141   0.00000  Uiso   1.00
H196   H     0.12032   0.42643   0.38858   0.00000  Uiso   1.00
C197   C     0.18978   0.65254   0.24815   0.00000  Uiso   1.00
C198   C     0.14355   0.34746   0.25185   0.00000  Uiso   1.00
H199   H     0.23360   0.33584   0.24461   0.00000  Uiso   1.00
H200   H     0.09974   0.66416   0.25539   0.00000  Uiso   1.00
N201   N     0.31678   0.48598   0.23783   0.00000  Uiso   1.00
N202   N     0.01656   0.51402   0.26217   0.00000  Uiso   1.00
H203   H     0.00463   0.46087   0.21597   0.00000  Uiso   1.00
H204   H     0.32870   0.53913   0.28403   0.00000  Uiso   1.00
N205   N     0.24748   0.62791   0.04439   0.00000  Uiso   1.00
O206   O     0.21756   0.65937   0.07012   0.00000  Uiso   1.00
O207   O     0.30256   0.63697   0.03744   0.00000  Uiso   1.00
N208   N     0.08605   0.37199   0.45560   0.00000  Uiso   1.00
O209   O     0.11604   0.34063   0.42983   0.00000  Uiso   1.00
O210   O     0.03100   0.36275   0.46262   0.00000  Uiso   1.00
N211   N     0.25169   0.62604   0.44962   0.00000  Uiso   1.00
O212   O     0.23804   0.34043   0.45822   0.00000  Uiso   1.00
O213   O     0.29505   0.61725   0.42109   0.00000  Uiso   1.00
N214   N     0.08173   0.37392   0.05038   0.00000  Uiso   1.00
O215   O     0.09550   0.65955   0.04187   0.00000  Uiso   1.00
O216   O     0.03830   0.38269   0.07884   0.00000  Uiso   1.00
O217   O     0.46308   0.57952   0.25298   0.00000  Uiso   1.00
O218   O     0.53692   0.42048   0.24701   0.00000  Uiso   1.00
O219   O     0.55946   0.57054   0.24518   0.00000  Uiso   1.00
O220   O     0.44054   0.42946   0.25481   0.00000  Uiso   1.00
C221   C     0.51508   0.59816   0.24883   0.00000  Uiso   1.00
C222   C     0.48492   0.40184   0.25117   0.00000  Uiso   1.00
O223   O     0.45181   0.50450   0.31997   0.00000  Uiso   1.00
O224   O     0.54819   0.49550   0.18002   0.00000  Uiso   1.00
O225   O     0.54819   0.49552   0.31217   0.00000  Uiso   1.00
O226   O     0.45181   0.50448   0.18782   0.00000  Uiso   1.00
C227   C     0.50067   0.49962   0.33633   0.00000  Uiso   1.00
C228   C     0.49933   0.50039   0.16367   0.00000  Uiso   1.00
Zn229  Zn    0.43565   0.50600   0.25521   0.00000  Uiso   1.00
Zn230  Zn    0.56435   0.49400   0.24479   0.00000  Uiso   1.00
C231   C     0.47034   0.45990   0.09476   0.00000  Uiso   1.00
C232   C     0.52966   0.54010   0.40523   0.00000  Uiso   1.00
C233   C     0.49777   0.50123   0.11618   0.00000  Uiso   1.00
C234   C     0.50223   0.49877   0.38382   0.00000  Uiso   1.00
C235   C     0.52506   0.54263   0.09273   0.00000  Uiso   1.00
C236   C     0.47499   0.45735   0.40727   0.00000  Uiso   1.00
C237   C     0.52522   0.54347   0.04603   0.00000  Uiso   1.00
C238   C     0.47486   0.45650   0.45397   0.00000  Uiso   1.00
C239   C     0.49873   0.50064   0.02346   0.00000  Uiso   1.00
C240   C     0.50133   0.49933   0.47653   0.00000  Uiso   1.00
C241   C     0.47026   0.45883   0.04804   0.00000  Uiso   1.00
C242   C     0.52979   0.54115   0.45195   0.00000  Uiso   1.00
C243   C     0.55300   0.58517   0.02160   0.00000  Uiso   1.00
C244   C     0.44710   0.41478   0.47840   0.00000  Uiso   1.00
C245   C     0.55590   0.58379   0.47442   0.00000  Uiso   1.00
C246   C     0.44418   0.41617   0.02557   0.00000  Uiso   1.00
H247   H     0.45123   0.42807   0.11503   0.00000  Uiso   1.00
H248   H     0.54874   0.57194   0.38496   0.00000  Uiso   1.00
H249   H     0.54640   0.57355   0.11141   0.00000  Uiso   1.00
H250   H     0.45365   0.42643   0.38858   0.00000  Uiso   1.00
C251   C     0.52312   0.65254   0.24815   0.00000  Uiso   1.00
C252   C     0.47688   0.34746   0.25185   0.00000  Uiso   1.00
H253   H     0.56693   0.33584   0.24461   0.00000  Uiso   1.00
H254   H     0.43307   0.66416   0.25539   0.00000  Uiso   1.00
N255   N     0.65011   0.48598   0.23783   0.00000  Uiso   1.00
N256   N     0.34989   0.51402   0.26217   0.00000  Uiso   1.00
H257   H     0.33796   0.46087   0.21597   0.00000  Uiso   1.00
H258   H     0.66204   0.53913   0.28403   0.00000  Uiso   1.00
N259   N     0.58082   0.62791   0.04439   0.00000  Uiso   1.00
O260   O     0.55090   0.65937   0.07012   0.00000  Uiso   1.00
O261   O     0.63589   0.63697   0.03744   0.00000  Uiso   1.00
N262   N     0.41938   0.37199   0.45560   0.00000  Uiso   1.00
O263   O     0.44937   0.34063   0.42983   0.00000  Uiso   1.00
O264   O     0.36434   0.36275   0.46262   0.00000  Uiso   1.00
N265   N     0.58502   0.62604   0.44962   0.00000  Uiso   1.00
O266   O     0.57137   0.34043   0.45822   0.00000  Uiso   1.00
O267   O     0.62838   0.61725   0.42109   0.00000  Uiso   1.00
N268   N     0.41507   0.37392   0.05038   0.00000  Uiso   1.00
O269   O     0.42883   0.65955   0.04187   0.00000  Uiso   1.00
O270   O     0.37163   0.38269   0.07884   0.00000  Uiso   1.00
O271   O     0.79642   0.57952   0.25298   0.00000  Uiso   1.00
O272   O     0.87025   0.42048   0.24701   0.00000  Uiso   1.00
O273   O     0.89280   0.57054   0.24518   0.00000  Uiso   1.00
O274   O     0.77387   0.42946   0.25481   0.00000  Uiso   1.00
C275   C     0.84842   0.59816   0.24883   0.00000  Uiso   1.00
C276   C     0.81825   0.40184   0.25117   0.00000  Uiso   1.00
O277   O     0.78514   0.50450   0.31997   0.00000  Uiso   1.00
O278   O     0.88153   0.49550   0.18002   0.00000  Uiso   1.00
O279   O     0.88152   0.49552   0.31217   0.00000  Uiso   1.00
O280   O     0.78515   0.50448   0.18782   0.00000  Uiso   1.00
C281   C     0.83400   0.49962   0.33633   0.00000  Uiso   1.00
C282   C     0.83267   0.50039   0.16367   0.00000  Uiso   1.00
Zn283  Zn    0.76898   0.50600   0.25521   0.00000  Uiso   1.00
Zn284  Zn    0.89769   0.49400   0.24479   0.00000  Uiso   1.00
C285   C     0.80368   0.45990   0.09476   0.00000  Uiso   1.00
C286   C     0.86299   0.54010   0.40523   0.00000  Uiso   1.00
C287   C     0.83111   0.50123   0.11618   0.00000  Uiso   1.00
C288   C     0.83557   0.49877   0.38382   0.00000  Uiso   1.00
C289   C     0.85839   0.54263   0.09273   0.00000  Uiso   1.00
C290   C     0.80832   0.45735   0.40727   0.00000  Uiso   1.00
C291   C     0.85855   0.54347   0.04603   0.00000  Uiso   1.00
C292   C     0.80819   0.45650   0.45397   0.00000  Uiso   1.00
C293   C     0.83207   0.50064   0.02346   0.00000  Uiso   1.00
C294   C     0.83466   0.49933   0.47653   0.00000  Uiso   1.00
C295   C     0.80359   0.45883   0.04804   0.00000  Uiso   1.00
C296   C     0.86312   0.54115   0.45195   0.00000  Uiso   1.00
C297   C     0.88633   0.58517   0.02160   0.00000  Uiso   1.00
C298   C     0.78044   0.41478   0.47840   0.00000  Uiso   1.00
C299   C     0.88923   0.58379   0.47442   0.00000  Uiso   1.00
C300   C     0.77751   0.41617   0.02557   0.00000  Uiso   1.00
H301   H     0.78456   0.42807   0.11503   0.00000  Uiso   1.00
H302   H     0.88208   0.57194   0.38496   0.00000  Uiso   1.00
H303   H     0.87973   0.57355   0.11141   0.00000  Uiso   1.00
H304   H     0.78699   0.42643   0.38858   0.00000  Uiso   1.00
C305   C     0.85645   0.65254   0.24815   0.00000  Uiso   1.00
C306   C     0.81022   0.34746   0.25185   0.00000  Uiso   1.00
H307   H     0.90026   0.33584   0.24461   0.00000  Uiso   1.00
H308   H     0.76640   0.66416   0.25539   0.00000  Uiso   1.00
N309   N     0.98344   0.48598   0.23783   0.00000  Uiso   1.00
N310   N     0.68322   0.51402   0.26217   0.00000  Uiso   1.00
H311   H     0.67130   0.46087   0.21597   0.00000  Uiso   1.00
H312   H     0.99537   0.53913   0.28403   0.00000  Uiso   1.00
N313   N     0.91415   0.62791   0.04439   0.00000  Uiso   1.00
O314   O     0.88423   0.65937   0.07012   0.00000  Uiso   1.00
O315   O     0.96923   0.63697   0.03744   0.00000  Uiso   1.00
N316   N     0.75272   0.37199   0.45560   0.00000  Uiso   1.00
O317   O     0.78271   0.34063   0.42983   0.00000  Uiso   1.00
O318   O     0.69767   0.36275   0.46262   0.00000  Uiso   1.00
N319   N     0.91836   0.62604   0.44962   0.00000  Uiso   1.00
O320   O     0.90470   0.34043   0.45822   0.00000  Uiso   1.00
O321   O     0.96171   0.61725   0.42109   0.00000  Uiso   1.00
N322   N     0.74840   0.37392   0.05038   0.00000  Uiso   1.00
O323   O     0.76217   0.65955   0.04187   0.00000  Uiso   1.00
O324   O     0.70497   0.38269   0.07884   0.00000  Uiso   1.00
O325   O     0.12975   0.91286   0.25298   0.00000  Uiso   1.00
O326   O     0.20358   0.75381   0.24701   0.00000  Uiso   1.00
O327   O     0.22613   0.90387   0.24518   0.00000  Uiso   1.00
O328   O     0.10720   0.76279   0.25481   0.00000  Uiso   1.00
C329   C     0.18175   0.93149   0.24883   0.00000  Uiso   1.00
C330   C     0.15158   0.73517   0.25117   0.00000  Uiso   1.00
O331   O     0.11847   0.83784   0.31997   0.00000  Uiso   1.00
O332   O     0.21486   0.82883   0.18002   0.00000  Uiso   1.00
O333   O     0.21485   0.82885   0.31217   0.00000  Uiso   1.00
O334   O     0.11848   0.83781   0.18782   0.00000  Uiso   1.00
C335   C     0.16733   0.83295   0.33633   0.00000  Uiso   1.00
C336   C     0.16600   0.83372   0.16367   0.00000  Uiso   1.00
Zn337  Zn    0.10231   0.83933   0.25521   0.00000  Uiso   1.00
Zn338  Zn    0.23102   0.82734   0.24479   0.00000  Uiso   1.00
C339   C     0.13701   0.79324   0.09476   0.00000  Uiso   1.00
C340   C     0.19633   0.87343   0.40523   0.00000  Uiso   1.00
C341   C     0.16444   0.83457   0.11618   0.00000  Uiso   1.00
C342   C     0.16890   0.83210   0.38382   0.00000  Uiso   1.00
C343   C     0.19172   0.87596   0.09273   0.00000  Uiso   1.00
C344   C     0.14166   0.79068   0.40727   0.00000  Uiso   1.00
C345   C     0.19188   0.87680   0.04603   0.00000  Uiso   1.00
C346   C     0.14152   0.78983   0.45397   0.00000  Uiso   1.00
C347   C     0.16540   0.83397   0.02346   0.00000  Uiso   1.00
C348   C     0.16800   0.83266   0.47653   0.00000  Uiso   1.00
C349   C     0.13693   0.79217   0.04804   0.00000  Uiso   1.00
C350   C     0.19645   0.87448   0.45195   0.00000  Uiso   1.00
C351   C     0.21967   0.91850   0.02160   0.00000  Uiso   1.00
C352   C     0.11377   0.74811   0.47840   0.00000  Uiso   1.00
C353   C     0.22257   0.91713   0.47442   0.00000  Uiso   1.00
C354   C     0.11084   0.74951   0.02557   0.00000  Uiso   1.00
H355   H     0.11789   0.76141   0.11503   0.00000  Uiso   1.00
H356   H     0.21541   0.90528   0.38496   0.00000  Uiso   1.00
H357   H     0.21306   0.90688   0.11141   0.00000  Uiso   1.00
H358   H     0.12032   0.75976   0.38858   0.00000  Uiso   1.00
C359   C     0.18978   0.98588   0.24815   0.00000  Uiso   1.00
C360   C     0.14355   0.68079   0.25185   0.00000  Uiso   1.00
H361   H     0.23360   0.66918   0.24461   0.00000  Uiso   1.00
H362   H     0.09974   0.99749   0.25539   0.00000  Uiso   1.00
N363   N     0.31678   0.81932   0.23783   0.00000  Uiso   1.00
N364   N     0.01656   0.84735   0.26217   0.00000  Uiso   1.00
H365   H     0.00463   0.79421   0.21597   0.00000  Uiso   1.00
H366   H     0.32870   0.87246   0.28403   0.00000  Uiso   1.00
N367   N     0.24748   0.96124   0.04439   0.00000  Uiso   1.00
O368   O     0.21756   0.99270   0.07012   0.00000  Uiso   1.00
O369   O     0.30256   0.97031   0.03744   0.00000  Uiso   1.00
N370   N     0.08605   0.70532   0.45560   0.00000  Uiso   1.00
O371   O     0.11604   0.67396   0.42983   0.00000  Uiso   1.00
O372   O     0.03100   0.69608   0.46262   0.00000  Uiso   1.00
N373   N     0.25169   0.95938   0.44962   0.00000  Uiso   1.00
O374   O     0.23804   0.67376   0.45822   0.00000  Uiso   1.00
O375   O     0.29505   0.95058   0.42109   0.00000  Uiso   1.00
N376   N     0.08173   0.70726   0.05038   0.00000  Uiso   1.00
O377   O     0.09550   0.99289   0.04187   0.00000  Uiso   1.00
O378   O     0.03830   0.71603   0.07884   0.00000  Uiso   1.00
O379   O     0.46308   0.91286   0.25298   0.00000  Uiso   1.00
O380   O     0.53692   0.75381   0.24701   0.00000  Uiso   1.00
O381   O     0.55946   0.90387   0.24518   0.00000  Uiso   1.00
O382   O     0.44054   0.76279   0.25481   0.00000  Uiso   1.00
C383   C     0.51508   0.93149   0.24883   0.00000  Uiso   1.00
C384   C     0.48492   0.73517   0.25117   0.00000  Uiso   1.00
O385   O     0.45181   0.83784   0.31997   0.00000  Uiso   1.00
O386   O     0.54819   0.82883   0.18002   0.00000  Uiso   1.00
O387   O     0.54819   0.82885   0.31217   0.00000  Uiso   1.00
O388   O     0.45181   0.83781   0.18782   0.00000  Uiso   1.00
C389   C     0.50067   0.83295   0.33633   0.00000  Uiso   1.00
C390   C     0.49933   0.83372   0.16367   0.00000  Uiso   1.00
Zn391  Zn    0.43565   0.83933   0.25521   0.00000  Uiso   1.00
Zn392  Zn    0.56435   0.82734   0.24479   0.00000  Uiso   1.00
C393   C     0.47034   0.79324   0.09476   0.00000  Uiso   1.00
C394   C     0.52966   0.87343   0.40523   0.00000  Uiso   1.00
C395   C     0.49777   0.83457   0.11618   0.00000  Uiso   1.00
C396   C     0.50223   0.83210   0.38382   0.00000  Uiso   1.00
C397   C     0.52506   0.87596   0.09273   0.00000  Uiso   1.00
C398   C     0.47499   0.79068   0.40727   0.00000  Uiso   1.00
C399   C     0.52522   0.87680   0.04603   0.00000  Uiso   1.00
C400   C     0.47486   0.78983   0.45397   0.00000  Uiso   1.00
C401   C     0.49873   0.83397   0.02346   0.00000  Uiso   1.00
C402   C     0.50133   0.83266   0.47653   0.00000  Uiso   1.00
C403   C     0.47026   0.79217   0.04804   0.00000  Uiso   1.00
C404   C     0.52979   0.87448   0.45195   0.00000  Uiso   1.00
C405   C     0.55300   0.91850   0.02160   0.00000  Uiso   1.00
C406   C     0.44710   0.74811   0.47840   0.00000  Uiso   1.00
C407   C     0.55590   0.91713   0.47442   0.00000  Uiso   1.00
C408   C     0.44418   0.74951   0.02557   0.00000  Uiso   1.00
H409   H     0.45123   0.76141   0.11503   0.00000  Uiso   1.00
H410   H     0.54874   0.90528   0.38496   0.00000  Uiso   1.00
H411   H     0.54640   0.90688   0.11141   0.00000  Uiso   1.00
H412   H     0.45365   0.75976   0.38858   0.00000  Uiso   1.00
C413   C     0.52312   0.98588   0.24815   0.00000  Uiso   1.00
C414   C     0.47688   0.68079   0.25185   0.00000  Uiso   1.00
H415   H     0.56693   0.66918   0.24461   0.00000  Uiso   1.00
H416   H     0.43307   0.99749   0.25539   0.00000  Uiso   1.00
N417   N     0.65011   0.81932   0.23783   0.00000  Uiso   1.00
N418   N     0.34989   0.84735   0.26217   0.00000  Uiso   1.00
H419   H     0.33796   0.79421   0.21597   0.00000  Uiso   1.00
H420   H     0.66204   0.87246   0.28403   0.00000  Uiso   1.00
N421   N     0.58082   0.96124   0.04439   0.00000  Uiso   1.00
O422   O     0.55090   0.99270   0.07012   0.00000  Uiso   1.00
O423   O     0.63589   0.97031   0.03744   0.00000  Uiso   1.00
N424   N     0.41938   0.70532   0.45560   0.00000  Uiso   1.00
O425   O     0.44937   0.67396   0.42983   0.00000  Uiso   1.00
O426   O     0.36434   0.69608   0.46262   0.00000  Uiso   1.00
N427   N     0.58502   0.95938   0.44962   0.00000  Uiso   1.00
O428   O     0.57137   0.67376   0.45822   0.00000  Uiso   1.00
O429   O     0.62838   0.95058   0.42109   0.00000  Uiso   1.00
N430   N     0.41507   0.70726   0.05038   0.00000  Uiso   1.00
O431   O     0.42883   0.99289   0.04187   0.00000  Uiso   1.00
O432   O     0.37163   0.71603   0.07884   0.00000  Uiso   1.00
O433   O     0.79642   0.91286   0.25298   0.00000  Uiso   1.00
O434   O     0.87025   0.75381   0.24701   0.00000  Uiso   1.00
O435   O     0.89280   0.90387   0.24518   0.00000  Uiso   1.00
O436   O     0.77387   0.76279   0.25481   0.00000  Uiso   1.00
C437   C     0.84842   0.93149   0.24883   0.00000  Uiso   1.00
C438   C     0.81825   0.73517   0.25117   0.00000  Uiso   1.00
O439   O     0.78514   0.83784   0.31997   0.00000  Uiso   1.00
O440   O     0.88153   0.82883   0.18002   0.00000  Uiso   1.00
O441   O     0.88152   0.82885   0.31217   0.00000  Uiso   1.00
O442   O     0.78515   0.83781   0.18782   0.00000  Uiso   1.00
C443   C     0.83400   0.83295   0.33633   0.00000  Uiso   1.00
C444   C     0.83267   0.83372   0.16367   0.00000  Uiso   1.00
Zn445  Zn    0.76898   0.83933   0.25521   0.00000  Uiso   1.00
Zn446  Zn    0.89769   0.82734   0.24479   0.00000  Uiso   1.00
C447   C     0.80368   0.79324   0.09476   0.00000  Uiso   1.00
C448   C     0.86299   0.87343   0.40523   0.00000  Uiso   1.00
C449   C     0.83111   0.83457   0.11618   0.00000  Uiso   1.00
C450   C     0.83557   0.83210   0.38382   0.00000  Uiso   1.00
C451   C     0.85839   0.87596   0.09273   0.00000  Uiso   1.00
C452   C     0.80832   0.79068   0.40727   0.00000  Uiso   1.00
C453   C     0.85855   0.87680   0.04603   0.00000  Uiso   1.00
C454   C     0.80819   0.78983   0.45397   0.00000  Uiso   1.00
C455   C     0.83207   0.83397   0.02346   0.00000  Uiso   1.00
C456   C     0.83466   0.83266   0.47653   0.00000  Uiso   1.00
C457   C     0.80359   0.79217   0.04804   0.00000  Uiso   1.00
C458   C     0.86312   0.87448   0.45195   0.00000  Uiso   1.00
C459   C     0.88633   0.91850   0.02160   0.00000  Uiso   1.00
C460   C     0.78044   0.74811   0.47840   0.00000  Uiso   1.00
C461   C     0.88923   0.91713   0.47442   0.00000  Uiso   1.00
C462   C     0.77751   0.74951   0.02557   0.00000  Uiso   1.00
H463   H     0.78456   0.76141   0.11503   0.00000  Uiso   1.00
H464   H     0.88208   0.90528   0.38496   0.00000  Uiso   1.00
H465   H     0.87973   0.90688   0.11141   0.00000  Uiso   1.00
H466   H     0.78699   0.75976   0.38858   0.00000  Uiso   1.00
C467   C     0.85645   0.98588   0.24815   0.00000  Uiso   1.00
C468   C     0.81022   0.68079   0.25185   0.00000  Uiso   1.00
H469   H     0.90026   0.66918   0.24461   0.00000  Uiso   1.00
H470   H     0.76640   0.99749   0.25539   0.00000  Uiso   1.00
N471   N     0.98344   0.81932   0.23783   0.00000  Uiso   1.00
N472   N     0.68322   0.84735   0.26217   0.00000  Uiso   1.00
H473   H     0.67130   0.79421   0.21597   0.00000  Uiso   1.00
H474   H     0.99537   0.87246   0.28403   0.00000  Uiso   1.00
N475   N     0.91415   0.96124   0.04439   0.00000  Uiso   1.00
O476   O     0.88423   0.99270   0.07012   0.00000  Uiso   1.00
O477   O     0.96923   0.97031   0.03744   0.00000  Uiso   1.00
N478   N     0.75272   0.70532   0.45560   0.00000  Uiso   1.00
O479   O     0.78271   0.67396   0.42983   0.00000  Uiso   1.00
O480   O     0.69767   0.69608   0.46262   0.00000  Uiso   1.00
N481   N     0.91836   0.95938   0.44962   0.00000  Uiso   1.00
O482   O     0.90470   0.67376   0.45822   0.00000  Uiso   1.00
O483   O     0.96171   0.95058   0.42109   0.00000  Uiso   1.00
N484   N     0.74840   0.70726   0.05038   0.00000  Uiso   1.00
O485   O     0.76217   0.99289   0.04187   0.00000  Uiso   1.00
O486   O     0.70497   0.71603   0.07884   0.00000  Uiso   1.00
O487   O     0.12975   0.24619   0.75298   0.00000  Uiso   1.00
O488   O     0.20358   0.08714   0.74701   0.00000  Uiso   1.00
O489   O     0.22613   0.23721   0.74518   0.00000  Uiso   1.00
O490   O     0.10720   0.09613   0.75481   0.00000  Uiso   1.00
C491   C     0.18175   0.26483   0.74883   0.00000  Uiso   1.00
C492   C     0.15158   0.06851   0.75117   0.00000  Uiso   1.00
O493   O     0.11847   0.17117   0.81997   0.00000  Uiso   1.00
O494   O     0.21486   0.16216   0.68002   0.00000  Uiso   1.00
O495   O     0.21485   0.16219   0.81217   0.00000  Uiso   1.00
O496   O     0.11848   0.17115   0.68782   0.00000  Uiso   1.00
C497   C     0.16733   0.16628   0.83633   0.00000  Uiso   1.00
C498   C     0.16600   0.16705   0.66367   0.00000  Uiso   1.00
Zn499  Zn    0.10231   0.17266   0.75521   0.00000  Uiso   1.00
Zn500  Zn    0.23102   0.16067   0.74479   0.00000  Uiso   1.00
C501   C     0.13701   0.12657   0.59476   0.00000  Uiso   1.00
C502   C     0.19633   0.20677   0.90523   0.00000  Uiso   1.00
C503   C     0.16444   0.16790   0.61618   0.00000  Uiso   1.00
C504   C     0.16890   0.16543   0.88382   0.00000  Uiso   1.00
C505   C     0.19172   0.20930   0.59273   0.00000  Uiso   1.00
C506   C     0.14166   0.12402   0.90727   0.00000  Uiso   1.00
C507   C     0.19188   0.21014   0.54603   0.00000  Uiso   1.00
C508   C     0.14152   0.12316   0.95397   0.00000  Uiso   1.00
C509   C     0.16540   0.16731   0.52346   0.00000  Uiso   1.00
C510   C     0.16800   0.16600   0.97653   0.00000  Uiso   1.00
C511   C     0.13693   0.12550   0.54804   0.00000  Uiso   1.00
C512   C     0.19645   0.20782   0.95195   0.00000  Uiso   1.00
C513   C     0.21967   0.25184   0.52160   0.00000  Uiso   1.00
C514   C     0.11377   0.08144   0.97840   0.00000  Uiso   1.00
C515   C     0.22257   0.25046   0.97442   0.00000  Uiso   1.00
C516   C     0.11084   0.08284   0.52557   0.00000  Uiso   1.00
H517   H     0.11789   0.09474   0.61503   0.00000  Uiso   1.00
H518   H     0.21541   0.23861   0.88496   0.00000  Uiso   1.00
H519   H     0.21306   0.24022   0.61141   0.00000  Uiso   1.00
H520   H     0.12032   0.09309   0.88858   0.00000  Uiso   1.00
C521   C     0.18978   0.31921   0.74815   0.00000  Uiso   1.00
C522   C     0.14355   0.01412   0.75185   0.00000  Uiso   1.00
H523   H     0.23360   0.00251   0.74461   0.00000  Uiso   1.00
H524   H     0.09974   0.33082   0.75539   0.00000  Uiso   1.00
N525   N     0.31678   0.15265   0.73783   0.00000  Uiso   1.00
N526   N     0.01656   0.18068   0.76217   0.00000  Uiso   1.00
H527   H     0.00463   0.12754   0.71597   0.00000  Uiso   1.00
H528   H     0.32870   0.20579   0.78403   0.00000  Uiso   1.00
N529   N     0.24748   0.29457   0.54439   0.00000  Uiso   1.00
O530   O     0.21756   0.32603   0.57012   0.00000  Uiso   1.00
O531   O     0.30256   0.30364   0.53744   0.00000  Uiso   1.00
N532   N     0.08605   0.03865   0.95560   0.00000  Uiso   1.00
O533   O     0.11604   0.00729   0.92983   0.00000  Uiso   1.00
O534   O     0.03100   0.02941   0.96262   0.00000  Uiso   1.00
N535   N     0.25169   0.29271   0.94962   0.00000  Uiso   1.00
O536   O     0.23804   0.00710   0.95822   0.00000  Uiso   1.00
O537   O     0.29505   0.28392   0.92109   0.00000  Uiso   1.00
N538   N     0.08173   0.04059   0.55038   0.00000  Uiso   1.00
O539   O     0.09550   0.32622   0.54187   0.00000  Uiso   1.00
O540   O     0.03830   0.04936   0.57884   0.00000  Uiso   1.00
O541   O     0.46308   0.24619   0.75298   0.00000  Uiso   1.00
O542   O     0.53692   0.08714   0.74701   0.00000  Uiso   1.00
O543   O     0.55946   0.23721   0.74518   0.00000  Uiso   1.00
O544   O     0.44054   0.09613   0.75481   0.00000  Uiso   1.00
C545   C     0.51508   0.26483   0.74883   0.00000  Uiso   1.00
C546   C     0.48492   0.06851   0.75117   0.00000  Uiso   1.00
O547   O     0.45181   0.17117   0.81997   0.00000  Uiso   1.00
O548   O     0.54819   0.16216   0.68002   0.00000  Uiso   1.00
O549   O     0.54819   0.16219   0.81217   0.00000  Uiso   1.00
O550   O     0.45181   0.17115   0.68782   0.00000  Uiso   1.00
C551   C     0.50067   0.16628   0.83633   0.00000  Uiso   1.00
C552   C     0.49933   0.16705   0.66367   0.00000  Uiso   1.00
Zn553  Zn    0.43565   0.17266   0.75521   0.00000  Uiso   1.00
Zn554  Zn    0.56435   0.16067   0.74479   0.00000  Uiso   1.00
C555   C     0.47034   0.12657   0.59476   0.00000  Uiso   1.00
C556   C     0.52966   0.20677   0.90523   0.00000  Uiso   1.00
C557   C     0.49777   0.16790   0.61618   0.00000  Uiso   1.00
C558   C     0.50223   0.16543   0.88382   0.00000  Uiso   1.00
C559   C     0.52506   0.20930   0.59273   0.00000  Uiso   1.00
C560   C     0.47499   0.12402   0.90727   0.00000  Uiso   1.00
C561   C     0.52522   0.21014   0.54603   0.00000  Uiso   1.00
C562   C     0.47486   0.12316   0.95397   0.00000  Uiso   1.00
C563   C     0.49873   0.16731   0.52346   0.00000  Uiso   1.00
C564   C     0.50133   0.16600   0.97653   0.00000  Uiso   1.00
C565   C     0.47026   0.12550   0.54804   0.00000  Uiso   1.00
C566   C     0.52979   0.20782   0.95195   0.00000  Uiso   1.00
C567   C     0.55300   0.25184   0.52160   0.00000  Uiso   1.00
C568   C     0.44710   0.08144   0.97840   0.00000  Uiso   1.00
C569   C     0.55590   0.25046   0.97442   0.00000  Uiso   1.00
C570   C     0.44418   0.08284   0.52557   0.00000  Uiso   1.00
H571   H     0.45123   0.09474   0.61503   0.00000  Uiso   1.00
H572   H     0.54874   0.23861   0.88496   0.00000  Uiso   1.00
H573   H     0.54640   0.24022   0.61141   0.00000  Uiso   1.00
H574   H     0.45365   0.09309   0.88858   0.00000  Uiso   1.00
C575   C     0.52312   0.31921   0.74815   0.00000  Uiso   1.00
C576   C     0.47688   0.01412   0.75185   0.00000  Uiso   1.00
H577   H     0.56693   0.00251   0.74461   0.00000  Uiso   1.00
H578   H     0.43307   0.33082   0.75539   0.00000  Uiso   1.00
N579   N     0.65011   0.15265   0.73783   0.00000  Uiso   1.00
N580   N     0.34989   0.18068   0.76217   0.00000  Uiso   1.00
H581   H     0.33796   0.12754   0.71597   0.00000  Uiso   1.00
H582   H     0.66204   0.20579   0.78403   0.00000  Uiso   1.00
N583   N     0.58082   0.29457   0.54439   0.00000  Uiso   1.00
O584   O     0.55090   0.32603   0.57012   0.00000  Uiso   1.00
O585   O     0.63589   0.30364   0.53744   0.00000  Uiso   1.00
N586   N     0.41938   0.03865   0.95560   0.00000  Uiso   1.00
O587   O     0.44937   0.00729   0.92983   0.00000  Uiso   1.00
O588   O     0.36434   0.02941   0.96262   0.00000  Uiso   1.00
N589   N     0.58502   0.29271   0.94962   0.00000  Uiso   1.00
O590   O     0.57137   0.00710   0.95822   0.00000  Uiso   1.00
O591   O     0.62838   0.28392   0.92109   0.00000  Uiso   1.00
N592   N     0.41507   0.04059   0.55038   0.00000  Uiso   1.00
O593   O     0.42883   0.32622   0.54187   0.00000  Uiso   1.00
O594   O     0.37163   0.04936   0.57884   0.00000  Uiso   1.00
O595   O     0.79642   0.24619   0.75298   0.00000  Uiso   1.00
O596   O     0.87025   0.08714   0.74701   0.00000  Uiso   1.00
O597   O     0.89280   0.23721   0.74518   0.00000  Uiso   1.00
O598   O     0.77387   0.09613   0.75481   0.00000  Uiso   1.00
C599   C     0.84842   0.26483   0.74883   0.00000  Uiso   1.00
C600   C     0.81825   0.06851   0.75117   0.00000  Uiso   1.00
O601   O     0.78514   0.17117   0.81997   0.00000  Uiso   1.00
O602   O     0.88153   0.16216   0.68002   0.00000  Uiso   1.00
O603   O     0.88152   0.16219   0.81217   0.00000  Uiso   1.00
O604   O     0.78515   0.17115   0.68782   0.00000  Uiso   1.00
C605   C     0.83400   0.16628   0.83633   0.00000  Uiso   1.00
C606   C     0.83267   0.16705   0.66367   0.00000  Uiso   1.00
Zn607  Zn    0.76898   0.17266   0.75521   0.00000  Uiso   1.00
Zn608  Zn    0.89769   0.16067   0.74479   0.00000  Uiso   1.00
C609   C     0.80368   0.12657   0.59476   0.00000  Uiso   1.00
C610   C     0.86299   0.20677   0.90523   0.00000  Uiso   1.00
C611   C     0.83111   0.16790   0.61618   0.00000  Uiso   1.00
C612   C     0.83557   0.16543   0.88382   0.00000  Uiso   1.00
C613   C     0.85839   0.20930   0.59273   0.00000  Uiso   1.00
C614   C     0.80832   0.12402   0.90727   0.00000  Uiso   1.00
C615   C     0.85855   0.21014   0.54603   0.00000  Uiso   1.00
C616   C     0.80819   0.12316   0.95397   0.00000  Uiso   1.00
C617   C     0.83207   0.16731   0.52346   0.00000  Uiso   1.00
C618   C     0.83466   0.16600   0.97653   0.00000  Uiso   1.00
C619   C     0.80359   0.12550   0.54804   0.00000  Uiso   1.00
C620   C     0.86312   0.20782   0.95195   0.00000  Uiso   1.00
C621   C     0.88633   0.25184   0.52160   0.00000  Uiso   1.00
C622   C     0.78044   0.08144   0.97840   0.00000  Uiso   1.00
C623   C     0.88923   0.25046   0.97442   0.00000  Uiso   1.00
C624   C     0.77751   0.08284   0.52557   0.00000  Uiso   1.00
H625   H     0.78456   0.09474   0.61503   0.00000  Uiso   1.00
H626   H     0.88208   0.23861   0.88496   0.00000  Uiso   1.00
H627   H     0.87973   0.24022   0.61141   0.00000  Uiso   1.00
H628   H     0.78699   0.09309   0.88858   0.00000  Uiso   1.00
C629   C     0.85645   0.31921   0.74815   0.00000  Uiso   1.00
C630   C     0.81022   0.01412   0.75185   0.00000  Uiso   1.00
H631   H     0.90026   0.00251   0.74461   0.00000  Uiso   1.00
H632   H     0.76640   0.33082   0.75539   0.00000  Uiso   1.00
N633   N     0.98344   0.15265   0.73783   0.00000  Uiso   1.00
N634   N     0.68322   0.18068   0.76217   0.00000  Uiso   1.00
H635   H     0.67130   0.12754   0.71597   0.00000  Uiso   1.00
H636   H     0.99537   0.20579   0.78403   0.00000  Uiso   1.00
N637   N     0.91415   0.29457   0.54439   0.00000  Uiso   1.00
O638   O     0.88423   0.32603   0.57012   0.00000  Uiso   1.00
O639   O     0.96923   0.30364   0.53744   0.00000  Uiso   1.00
N640   N     0.75272   0.03865   0.95560   0.00000  Uiso   1.00
O641   O     0.78271   0.00729   0.92983   0.00000  Uiso   1.00
O642   O     0.69767   0.02941   0.96262   0.00000  Uiso   1.00
N643   N     0.91836   0.29271   0.94962   0.00000  Uiso   1.00
O644   O     0.90470   0.00710   0.95822   0.00000  Uiso   1.00
O645   O     0.96171   0.28392   0.92109   0.00000  Uiso   1.00
N646   N     0.74840   0.04059   0.55038   0.00000  Uiso   1.00
O647   O     0.76217   0.32622   0.54187   0.00000  Uiso   1.00
O648   O     0.70497   0.04936   0.57884   0.00000  Uiso   1.00
O649   O     0.12975   0.57952   0.75298   0.00000  Uiso   1.00
O650   O     0.20358   0.42048   0.74701   0.00000  Uiso   1.00
O651   O     0.22613   0.57054   0.74518   0.00000  Uiso   1.00
O652   O     0.10720   0.42946   0.75481   0.00000  Uiso   1.00
C653   C     0.18175   0.59816   0.74883   0.00000  Uiso   1.00
C654   C     0.15158   0.40184   0.75117   0.00000  Uiso   1.00
O655   O     0.11847   0.50450   0.81997   0.00000  Uiso   1.00
O656   O     0.21486   0.49550   0.68002   0.00000  Uiso   1.00
O657   O     0.21485   0.49552   0.81217   0.00000  Uiso   1.00
O658   O     0.11848   0.50448   0.68782   0.00000  Uiso   1.00
C659   C     0.16733   0.49962   0.83633   0.00000  Uiso   1.00
C660   C     0.16600   0.50039   0.66367   0.00000  Uiso   1.00
Zn661  Zn    0.10231   0.50600   0.75521   0.00000  Uiso   1.00
Zn662  Zn    0.23102   0.49400   0.74479   0.00000  Uiso   1.00
C663   C     0.13701   0.45990   0.59476   0.00000  Uiso   1.00
C664   C     0.19633   0.54010   0.90523   0.00000  Uiso   1.00
C665   C     0.16444   0.50123   0.61618   0.00000  Uiso   1.00
C666   C     0.16890   0.49877   0.88382   0.00000  Uiso   1.00
C667   C     0.19172   0.54263   0.59273   0.00000  Uiso   1.00
C668   C     0.14166   0.45735   0.90727   0.00000  Uiso   1.00
C669   C     0.19188   0.54347   0.54603   0.00000  Uiso   1.00
C670   C     0.14152   0.45650   0.95397   0.00000  Uiso   1.00
C671   C     0.16540   0.50064   0.52346   0.00000  Uiso   1.00
C672   C     0.16800   0.49933   0.97653   0.00000  Uiso   1.00
C673   C     0.13693   0.45883   0.54804   0.00000  Uiso   1.00
C674   C     0.19645   0.54115   0.95195   0.00000  Uiso   1.00
C675   C     0.21967   0.58517   0.52160   0.00000  Uiso   1.00
C676   C     0.11377   0.41478   0.97840   0.00000  Uiso   1.00
C677   C     0.22257   0.58379   0.97442   0.00000  Uiso   1.00
C678   C     0.11084   0.41617   0.52557   0.00000  Uiso   1.00
H679   H     0.11789   0.42807   0.61503   0.00000  Uiso   1.00
H680   H     0.21541   0.57194   0.88496   0.00000  Uiso   1.00
H681   H     0.21306   0.57355   0.61141   0.00000  Uiso   1.00
H682   H     0.12032   0.42643   0.88858   0.00000  Uiso   1.00
C683   C     0.18978   0.65254   0.74815   0.00000  Uiso   1.00
C684   C     0.14355   0.34746   0.75185   0.00000  Uiso   1.00
H685   H     0.23360   0.33584   0.74461   0.00000  Uiso   1.00
H686   H     0.09974   0.66416   0.75539   0.00000  Uiso   1.00
N687   N     0.31678   0.48598   0.73783   0.00000  Uiso   1.00
N688   N     0.01656   0.51402   0.76217   0.00000  Uiso   1.00
H689   H     0.00463   0.46087   0.71597   0.00000  Uiso   1.00
H690   H     0.32870   0.53913   0.78403   0.00000  Uiso   1.00
N691   N     0.24748   0.62791   0.54439   0.00000  Uiso   1.00
O692   O     0.21756   0.65937   0.57012   0.00000  Uiso   1.00
O693   O     0.30256   0.63697   0.53744   0.00000  Uiso   1.00
N694   N     0.08605   0.37199   0.95560   0.00000  Uiso   1.00
O695   O     0.11604   0.34063   0.92983   0.00000  Uiso   1.00
O696   O     0.03100   0.36275   0.96262   0.00000  Uiso   1.00
N697   N     0.25169   0.62604   0.94962   0.00000  Uiso   1.00
O698   O     0.23804   0.34043   0.95822   0.00000  Uiso   1.00
O699   O     0.29505   0.61725   0.92109   0.00000  Uiso   1.00
N700   N     0.08173   0.37392   0.55038   0.00000  Uiso   1.00
O701   O     0.09550   0.65955   0.54187   0.00000  Uiso   1.00
O702   O     0.03830   0.38269   0.57884   0.00000  Uiso   1.00
O703   O     0.46308   0.57952   0.75298   0.00000  Uiso   1.00
O704   O     0.53692   0.42048   0.74701   0.00000  Uiso   1.00
O705   O     0.55946   0.57054   0.74518   0.00000  Uiso   1.00
O706   O     0.44054   0.42946   0.75481   0.00000  Uiso   1.00
C707   C     0.51508   0.59816   0.74883   0.00000  Uiso   1.00
C708   C     0.48492   0.40184   0.75117   0.00000  Uiso   1.00
O709   O     0.45181   0.50450   0.81997   0.00000  Uiso   1.00
O710   O     0.54819   0.49550   0.68002   0.00000  Uiso   1.00
O711   O     0.54819   0.49552   0.81217   0.00000  Uiso   1.00
O712   O     0.45181   0.50448   0.68782   0.00000  Uiso   1.00
C713   C     0.50067   0.49962   0.83633   0.00000  Uiso   1.00
C714   C     0.49933   0.50039   0.66367   0.00000  Uiso   1.00
Zn715  Zn    0.43565   0.50600   0.75521   0.00000  Uiso   1.00
Zn716  Zn    0.56435   0.49400   0.74479   0.00000  Uiso   1.00
C717   C     0.47034   0.45990   0.59476   0.00000  Uiso   1.00
C718   C     0.52966   0.54010   0.90523   0.00000  Uiso   1.00
C719   C     0.49777   0.50123   0.61618   0.00000  Uiso   1.00
C720   C     0.50223   0.49877   0.88382   0.00000  Uiso   1.00
C721   C     0.52506   0.54263   0.59273   0.00000  Uiso   1.00
C722   C     0.47499   0.45735   0.90727   0.00000  Uiso   1.00
C723   C     0.52522   0.54347   0.54603   0.00000  Uiso   1.00
C724   C     0.47486   0.45650   0.95397   0.00000  Uiso   1.00
C725   C     0.49873   0.50064   0.52346   0.00000  Uiso   1.00
C726   C     0.50133   0.49933   0.97653   0.00000  Uiso   1.00
C727   C     0.47026   0.45883   0.54804   0.00000  Uiso   1.00
C728   C     0.52979   0.54115   0.95195   0.00000  Uiso   1.00
C729   C     0.55300   0.58517   0.52160   0.00000  Uiso   1.00
C730   C     0.44710   0.41478   0.97840   0.00000  Uiso   1.00
C731   C     0.55590   0.58379   0.97442   0.00000  Uiso   1.00
C732   C     0.44418   0.41617   0.52557   0.00000  Uiso   1.00
H733   H     0.45123   0.42807   0.61503   0.00000  Uiso   1.00
H734   H     0.54874   0.57194   0.88496   0.00000  Uiso   1.00
H735   H     0.54640   0.57355   0.61141   0.00000  Uiso   1.00
H736   H     0.45365   0.42643   0.88858   0.00000  Uiso   1.00
C737   C     0.52312   0.65254   0.74815   0.00000  Uiso   1.00
C738   C     0.47688   0.34746   0.75185   0.00000  Uiso   1.00
H739   H     0.56693   0.33584   0.74461   0.00000  Uiso   1.00
H740   H     0.43307   0.66416   0.75539   0.00000  Uiso   1.00
N741   N     0.65011   0.48598   0.73783   0.00000  Uiso   1.00
N742   N     0.34989   0.51402   0.76217   0.00000  Uiso   1.00
H743   H     0.33796   0.46087   0.71597   0.00000  Uiso   1.00
H744   H     0.66204   0.53913   0.78403   0.00000  Uiso   1.00
N745   N     0.58082   0.62791   0.54439   0.00000  Uiso   1.00
O746   O     0.55090   0.65937   0.57012   0.00000  Uiso   1.00
O747   O     0.63589   0.63697   0.53744   0.00000  Uiso   1.00
N748   N     0.41938   0.37199   0.95560   0.00000  Uiso   1.00
O749   O     0.44937   0.34063   0.92983   0.00000  Uiso   1.00
O750   O     0.36434   0.36275   0.96262   0.00000  Uiso   1.00
N751   N     0.58502   0.62604   0.94962   0.00000  Uiso   1.00
O752   O     0.57137   0.34043   0.95822   0.00000  Uiso   1.00
O753   O     0.62838   0.61725   0.92109   0.00000  Uiso   1.00
N754   N     0.41507   0.37392   0.55038   0.00000  Uiso   1.00
O755   O     0.42883   0.65955   0.54187   0.00000  Uiso   1.00
O756   O     0.37163   0.38269   0.57884   0.00000  Uiso   1.00
O757   O     0.79642   0.57952   0.75298   0.00000  Uiso   1.00
O758   O     0.87025   0.42048   0.74701   0.00000  Uiso   1.00
O759   O     0.89280   0.57054   0.74518   0.00000  Uiso   1.00
O760   O     0.77387   0.42946   0.75481   0.00000  Uiso   1.00
C761   C     0.84842   0.59816   0.74883   0.00000  Uiso   1.00
C762   C     0.81825   0.40184   0.75117   0.00000  Uiso   1.00
O763   O     0.78514   0.50450   0.81997   0.00000  Uiso   1.00
O764   O     0.88153   0.49550   0.68002   0.00000  Uiso   1.00
O765   O     0.88152   0.49552   0.81217   0.00000  Uiso   1.00
O766   O     0.78515   0.50448   0.68782   0.00000  Uiso   1.00
C767   C     0.83400   0.49962   0.83633   0.00000  Uiso   1.00
C768   C     0.83267   0.50039   0.66367   0.00000  Uiso   1.00
Zn769  Zn    0.76898   0.50600   0.75521   0.00000  Uiso   1.00
Zn770  Zn    0.89769   0.49400   0.74479   0.00000  Uiso   1.00
C771   C     0.80368   0.45990   0.59476   0.00000  Uiso   1.00
C772   C     0.86299   0.54010   0.90523   0.00000  Uiso   1.00
C773   C     0.83111   0.50123   0.61618   0.00000  Uiso   1.00
C774   C     0.83557   0.49877   0.88382   0.00000  Uiso   1.00
C775   C     0.85839   0.54263   0.59273   0.00000  Uiso   1.00
C776   C     0.80832   0.45735   0.90727   0.00000  Uiso   1.00
C777   C     0.85855   0.54347   0.54603   0.00000  Uiso   1.00
C778   C     0.80819   0.45650   0.95397   0.00000  Uiso   1.00
C779   C     0.83207   0.50064   0.52346   0.00000  Uiso   1.00
C780   C     0.83466   0.49933   0.97653   0.00000  Uiso   1.00
C781   C     0.80359   0.45883   0.54804   0.00000  Uiso   1.00
C782   C     0.86312   0.54115   0.95195   0.00000  Uiso   1.00
C783   C     0.88633   0.58517   0.52160   0.00000  Uiso   1.00
C784   C     0.78044   0.41478   0.97840   0.00000  Uiso   1.00
C785   C     0.88923   0.58379   0.97442   0.00000  Uiso   1.00
C786   C     0.77751   0.41617   0.52557   0.00000  Uiso   1.00
H787   H     0.78456   0.42807   0.61503   0.00000  Uiso   1.00
H788   H     0.88208   0.57194   0.88496   0.00000  Uiso   1.00
H789   H     0.87973   0.57355   0.61141   0.00000  Uiso   1.00
H790   H     0.78699   0.42643   0.88858   0.00000  Uiso   1.00
C791   C     0.85645   0.65254   0.74815   0.00000  Uiso   1.00
C792   C     0.81022   0.34746   0.75185   0.00000  Uiso   1.00
H793   H     0.90026   0.33584   0.74461   0.00000  Uiso   1.00
H794   H     0.76640   0.66416   0.75539   0.00000  Uiso   1.00
N795   N     0.98344   0.48598   0.73783   0.00000  Uiso   1.00
N796   N     0.68322   0.51402   0.76217   0.00000  Uiso   1.00
H797   H     0.67130   0.46087   0.71597   0.00000  Uiso   1.00
H798   H     0.99537   0.53913   0.78403   0.00000  Uiso   1.00
N799   N     0.91415   0.62791   0.54439   0.00000  Uiso   1.00
O800   O     0.88423   0.65937   0.57012   0.00000  Uiso   1.00
O801   O     0.96923   0.63697   0.53744   0.00000  Uiso   1.00
N802   N     0.75272   0.37199   0.95560   0.00000  Uiso   1.00
O803   O     0.78271   0.34063   0.92983   0.00000  Uiso   1.00
O804   O     0.69767   0.36275   0.96262   0.00000  Uiso   1.00
N805   N     0.91836   0.62604   0.94962   0.00000  Uiso   1.00
O806   O     0.90470   0.34043   0.95822   0.00000  Uiso   1.00
O807   O     0.96171   0.61725   0.92109   0.00000  Uiso   1.00
N808   N     0.74840   0.37392   0.55038   0.00000  Uiso   1.00
O809   O     0.76217   0.65955   0.54187   0.00000  Uiso   1.00
O810   O     0.70497   0.38269   0.57884   0.00000  Uiso   1.00
O811   O     0.12975   0.91286   0.75298   0.00000  Uiso   1.00
O812   O     0.20358   0.75381   0.74701   0.00000  Uiso   1.00
O813   O     0.22613   0.90387   0.74518   0.00000  Uiso   1.00
O814   O     0.10720   0.76279   0.75481   0.00000  Uiso   1.00
C815   C     0.18175   0.93149   0.74883   0.00000  Uiso   1.00
C816   C     0.15158   0.73517   0.75117   0.00000  Uiso   1.00
O817   O     0.11847   0.83784   0.81997   0.00000  Uiso   1.00
O818   O     0.21486   0.82883   0.68002   0.00000  Uiso   1.00
O819   O     0.21485   0.82885   0.81217   0.00000  Uiso   1.00
O820   O     0.11848   0.83781   0.68782   0.00000  Uiso   1.00
C821   C     0.16733   0.83295   0.83633   0.00000  Uiso   1.00
C822   C     0.16600   0.83372   0.66367   0.00000  Uiso   1.00
Zn823  Zn    0.10231   0.83933   0.75521   0.00000  Uiso   1.00
Zn824  Zn    0.23102   0.82734   0.74479   0.00000  Uiso   1.00
C825   C     0.13701   0.79324   0.59476   0.00000  Uiso   1.00
C826   C     0.19633   0.87343   0.90523   0.00000  Uiso   1.00
C827   C     0.16444   0.83457   0.61618   0.00000  Uiso   1.00
C828   C     0.16890   0.83210   0.88382   0.00000  Uiso   1.00
C829   C     0.19172   0.87596   0.59273   0.00000  Uiso   1.00
C830   C     0.14166   0.79068   0.90727   0.00000  Uiso   1.00
C831   C     0.19188   0.87680   0.54603   0.00000  Uiso   1.00
C832   C     0.14152   0.78983   0.95397   0.00000  Uiso   1.00
C833   C     0.16540   0.83397   0.52346   0.00000  Uiso   1.00
C834   C     0.16800   0.83266   0.97653   0.00000  Uiso   1.00
C835   C     0.13693   0.79217   0.54804   0.00000  Uiso   1.00
C836   C     0.19645   0.87448   0.95195   0.00000  Uiso   1.00
C837   C     0.21967   0.91850   0.52160   0.00000  Uiso   1.00
C838   C     0.11377   0.74811   0.97840   0.00000  Uiso   1.00
C839   C     0.22257   0.91713   0.97442   0.00000  Uiso   1.00
C840   C     0.11084   0.74951   0.52557   0.00000  Uiso   1.00
H841   H     0.11789   0.76141   0.61503   0.00000  Uiso   1.00
H842   H     0.21541   0.90528   0.88496   0.00000  Uiso   1.00
H843   H     0.21306   0.90688   0.61141   0.00000  Uiso   1.00
H844   H     0.12032   0.75976   0.88858   0.00000  Uiso   1.00
C845   C     0.18978   0.98588   0.74815   0.00000  Uiso   1.00
C846   C     0.14355   0.68079   0.75185   0.00000  Uiso   1.00
H847   H     0.23360   0.66918   0.74461   0.00000  Uiso   1.00
H848   H     0.09974   0.99749   0.75539   0.00000  Uiso   1.00
N849   N     0.31678   0.81932   0.73783   0.00000  Uiso   1.00
N850   N     0.01656   0.84735   0.76217   0.00000  Uiso   1.00
H851   H     0.00463   0.79421   0.71597   0.00000  Uiso   1.00
H852   H     0.32870   0.87246   0.78403   0.00000  Uiso   1.00
N853   N     0.24748   0.96124   0.54439   0.00000  Uiso   1.00
O854   O     0.21756   0.99270   0.57012   0.00000  Uiso   1.00
O855   O     0.30256   0.97031   0.53744   0.00000  Uiso   1.00
N856   N     0.08605   0.70532   0.95560   0.00000  Uiso   1.00
O857   O     0.11604   0.67396   0.92983   0.00000  Uiso   1.00
O858   O     0.03100   0.69608   0.96262   0.00000  Uiso   1.00
N859   N     0.25169   0.95938   0.94962   0.00000  Uiso   1.00
O860   O     0.23804   0.67376   0.95822   0.00000  Uiso   1.00
O861   O     0.29505   0.95058   0.92109   0.00000  Uiso   1.00
N862   N     0.08173   0.70726   0.55038   0.00000  Uiso   1.00
O863   O     0.09550   0.99289   0.54187   0.00000  Uiso   1.00
O864   O     0.03830   0.71603   0.57884   0.00000  Uiso   1.00
O865   O     0.46308   0.91286   0.75298   0.00000  Uiso   1.00
O866   O     0.53692   0.75381   0.74701   0.00000  Uiso   1.00
O867   O     0.55946   0.90387   0.74518   0.00000  Uiso   1.00
O868   O     0.44054   0.76279   0.75481   0.00000  Uiso   1.00
C869   C     0.51508   0.93149   0.74883   0.00000  Uiso   1.00
C870   C     0.48492   0.73517   0.75117   0.00000  Uiso   1.00
O871   O     0.45181   0.83784   0.81997   0.00000  Uiso   1.00
O872   O     0.54819   0.82883   0.68002   0.00000  Uiso   1.00
O873   O     0.54819   0.82885   0.81217   0.00000  Uiso   1.00
O874   O     0.45181   0.83781   0.68782   0.00000  Uiso   1.00
C875   C     0.50067   0.83295   0.83633   0.00000  Uiso   1.00
C876   C     0.49933   0.83372   0.66367   0.00000  Uiso   1.00
Zn877  Zn    0.43565   0.83933   0.75521   0.00000  Uiso   1.00
Zn878  Zn    0.56435   0.82734   0.74479   0.00000  Uiso   1.00
C879   C     0.47034   0.79324   0.59476   0.00000  Uiso   1.00
C880   C     0.52966   0.87343   0.90523   0.00000  Uiso   1.00
C881   C     0.49777   0.83457   0.61618   0.00000  Uiso   1.00
C882   C     0.50223   0.83210   0.88382   0.00000  Uiso   1.00
C883   C     0.52506   0.87596   0.59273   0.00000  Uiso   1.00
C884   C     0.47499   0.79068   0.90727   0.00000  Uiso   1.00
C885   C     0.52522   0.87680   0.54603   0.00000  Uiso   1.00
C886   C     0.47486   0.78983   0.95397   0.00000  Uiso   1.00
C887   C     0.49873   0.83397   0.52346   0.00000  Uiso   1.00
C888   C     0.50133   0.83266   0.97653   0.00000  Uiso   1.00
C889   C     0.47026   0.79217   0.54804   0.00000  Uiso   1.00
C890   C     0.52979   0.87448   0.95195   0.00000  Uiso   1.00
C891   C     0.55300   0.91850   0.52160   0.00000  Uiso   1.00
C892   C     0.44710   0.74811   0.97840   0.00000  Uiso   1.00
C893   C     0.55590   0.91713   0.97442   0.00000  Uiso   1.00
C894   C     0.44418   0.74951   0.52557   0.00000  Uiso   1.00
H895   H     0.45123   0.76141   0.61503   0.00000  Uiso   1.00
H896   H     0.54874   0.90528   0.88496   0.00000  Uiso   1.00
H897   H     0.54640   0.90688   0.61141   0.00000  Uiso   1.00
H898   H     0.45365   0.75976   0.88858   0.00000  Uiso   1.00
C899   C     0.52312   0.98588   0.74815   0.00000  Uiso   1.00
C900   C     0.47688   0.68079   0.75185   0.00000  Uiso   1.00
H901   H     0.56693   0.66918   0.74461   0.00000  Uiso   1.00
H902   H     0.43307   0.99749   0.75539   0.00000  Uiso   1.00
N903   N     0.65011   0.81932   0.73783   0.00000  Uiso   1.00
N904   N     0.34989   0.84735   0.76217   0.00000  Uiso   1.00
H905   H     0.33796   0.79421   0.71597   0.00000  Uiso   1.00
H906   H     0.66204   0.87246   0.78403   0.00000  Uiso   1.00
N907   N     0.58082   0.96124   0.54439   0.00000  Uiso   1.00
O908   O     0.55090   0.99270   0.57012   0.00000  Uiso   1.00
O909   O     0.63589   0.97031   0.53744   0.00000  Uiso   1.00
N910   N     0.41938   0.70532   0.95560   0.00000  Uiso   1.00
O911   O     0.44937   0.67396   0.92983   0.00000  Uiso   1.00
O912   O     0.36434   0.69608   0.96262   0.00000  Uiso   1.00
N913   N     0.58502   0.95938   0.94962   0.00000  Uiso   1.00
O914   O     0.57137   0.67376   0.95822   0.00000  Uiso   1.00
O915   O     0.62838   0.95058   0.92109   0.00000  Uiso   1.00
N916   N     0.41507   0.70726   0.55038   0.00000  Uiso   1.00
O917   O     0.42883   0.99289   0.54187   0.00000  Uiso   1.00
O918   O     0.37163   0.71603   0.57884   0.00000  Uiso   1.00
O919   O     0.79642   0.91286   0.75298   0.00000  Uiso   1.00
O920   O     0.87025   0.75381   0.74701   0.00000  Uiso   1.00
O921   O     0.89280   0.90387   0.74518   0.00000  Uiso   1.00
O922   O     0.77387   0.76279   0.75481   0.00000  Uiso   1.00
C923   C     0.84842   0.93149   0.74883   0.00000  Uiso   1.00
C924   C     0.81825   0.73517   0.75117   0.00000  Uiso   1.00
O925   O     0.78514   0.83784   0.81997   0.00000  Uiso   1.00
O926   O     0.88153   0.82883   0.68002   0.00000  Uiso   1.00
O927   O     0.88152   0.82885   0.81217   0.00000  Uiso   1.00
O928   O     0.78515   0.83781   0.68782   0.00000  Uiso   1.00
C929   C     0.83400   0.83295   0.83633   0.00000  Uiso   1.00
C930   C     0.83267   0.83372   0.66367   0.00000  Uiso   1.00
Zn931  Zn    0.76898   0.83933   0.75521   0.00000  Uiso   1.00
Zn932  Zn    0.89769   0.82734   0.74479   0.00000  Uiso   1.00
C933   C     0.80368   0.79324   0.59476   0.00000  Uiso   1.00
C934   C     0.86299   0.87343   0.90523   0.00000  Uiso   1.00
C935   C     0.83111   0.83457   0.61618   0.00000  Uiso   1.00
C936   C     0.83557   0.83210   0.88382   0.00000  Uiso   1.00
C937   C     0.85839   0.87596   0.59273   0.00000  Uiso   1.00
C938   C     0.80832   0.79068   0.90727   0.00000  Uiso   1.00
C939   C     0.85855   0.87680   0.54603   0.00000  Uiso   1.00
C940   C     0.80819   0.78983   0.95397   0.00000  Uiso   1.00
C941   C     0.83207   0.83397   0.52346   0.00000  Uiso   1.00
C942   C     0.83466   0.83266   0.97653   0.00000  Uiso   1.00
C943   C     0.80359   0.79217   0.54804   0.00000  Uiso   1.00
C944   C     0.86312   0.87448   0.95195   0.00000  Uiso   1.00
C945   C     0.88633   0.91850   0.52160   0.00000  Uiso   1.00
C946   C     0.78044   0.74811   0.97840   0.00000  Uiso   1.00
C947   C     0.88923   0.91713   0.97442   0.00000  Uiso   1.00
C948   C     0.77751   0.74951   0.52557   0.00000  Uiso   1.00
H949   H     0.78456   0.76141   0.61503   0.00000  Uiso   1.00
H950   H     0.88208   0.90528   0.88496   0.00000  Uiso   1.00
H951   H     0.87973   0.90688   0.61141   0.00000  Uiso   1.00
H952   H     0.78699   0.75976   0.88858   0.00000  Uiso   1.00
C953   C     0.85645   0.98588   0.74815   0.00000  Uiso   1.00
C954   C     0.81022   0.68079   0.75185   0.00000  Uiso   1.00
H955   H     0.90026   0.66918   0.74461   0.00000  Uiso   1.00
H956   H     0.76640   0.99749   0.75539   0.00000  Uiso   1.00
N957   N     0.98344   0.81932   0.73783   0.00000  Uiso   1.00
N958   N     0.68322   0.84735   0.76217   0.00000  Uiso   1.00
H959   H     0.67130   0.79421   0.71597   0.00000  Uiso   1.00
H960   H     0.99537   0.87246   0.78403   0.00000  Uiso   1.00
N961   N     0.91415   0.96124   0.54439   0.00000  Uiso   1.00
O962   O     0.88423   0.99270   0.57012   0.00000  Uiso   1.00
O963   O     0.96923   0.97031   0.53744   0.00000  Uiso   1.00
N964   N     0.75272   0.70532   0.95560   0.00000  Uiso   1.00
O965   O     0.78271   0.67396   0.92983   0.00000  Uiso   1.00
O966   O     0.69767   0.69608   0.96262   0.00000  Uiso   1.00
N967   N     0.91836   0.95938   0.94962   0.00000  Uiso   1.00
O968   O     0.90470   0.67376   0.95822   0.00000  Uiso   1.00
O969   O     0.96171   0.95058   0.92109   0.00000  Uiso   1.00
N970   N     0.74840   0.70726   0.55038   0.00000  Uiso   1.00
O971   O     0.76217   0.99289   0.54187   0.00000  Uiso   1.00
O972   O     0.70497   0.71603   0.57884   0.00000  Uiso   1.00
loop_
_geom_bond_atom_site_label_1
_geom_bond_atom_site_label_2
_geom_bond_distance
_geom_bond_site_symmetry_2
_ccdc_geom_bond_type
O1     C5      1.282   .     A
O1     Zn13    1.965   .     S
O2     C6      1.282   .     A
O2     Zn14    1.965   .     S
O3     Zn14    1.978   .     S
O3     C5      1.286   .     A
O4     C6      1.286   .     A
O4     Zn13    1.978   .     S
C5     C35     1.402   .     S
C6     C36     1.402   .     S
O7     C11     1.287   .     A
O7     Zn13    1.991   .     S
O8     C12     1.287   .     A
O8     Zn14    1.991   .     S
O9     Zn14    2.013   .     S
O9     C11     1.287   .     A
O10    C12     1.287   .     A
O10    Zn13    2.013   .     S
C11    C18     1.416   .     S
C12    C17     1.416   .     S
Zn13   N40     2.023   .     S
Zn14   N39     2.023   .     S
C15    H31     1.083   .     S
C15    C25     1.390   .     A
C15    C17     1.383   .     A
C16    H32     1.083   .     S
C16    C18     1.383   .     A
C16    C26     1.390   .     A
C17    C19     1.384   .     A
C18    C20     1.384   .     A
C19    C21     1.389   .     A
C19    H33     1.083   .     S
C20    H34     1.083   .     S
C20    C22     1.389   .     A
C21    C27     1.409   .     A
C21    C23     1.418   .     A
C22    C28     1.409   .     A
C22    C24     1.418   .     A
C23    C25     1.419   .     A
C23    C510    1.393   1_554 S
C24    C26     1.419   .     A
C24    C509    1.393   .     S
C25    C30     1.410   .     A
C26    C29     1.410   .     A
C27    N43     1.433   .     S
C27    C515    1.400   1_554 S
C28    N46     1.433   .     S
C28    C516    1.400   .     S
C29    N49     1.437   .     S
C29    C513    1.400   .     S
C30    N52     1.437   .     S
C30    C514    1.400   1_554 S
C35    C198    1.331   .     S
C35    H199    1.088   .     S
C36    C359    1.331   1_545 S
C36    H362    1.088   1_545 S
H37    C359    1.088   1_545 S
H38    C198    1.088   .     S
N39    N94     1.284   .     S
N39    H95     1.029   .     S
N40    N147    1.284   1_455 S
N40    H150    1.029   1_455 S
H41    N147    1.029   1_455 S
H42    N94     1.029   .     S
N43    O45     1.299   .     A
N43    O44     1.301   .     A
N46    O48     1.299   .     A
N46    O47     1.301   .     A
N49    O51     1.301   .     A
N49    O212    1.301   .     S
O50    N373    1.301   1_545 S
N52    O54     1.301   .     A
N52    O377    1.301   1_545 S
O53    N214    1.301   .     S
O55    C59     1.282   .     A
O55    Zn67    1.965   .     S
O56    C60     1.282   .     A
O56    Zn68    1.965   .     S
O57    Zn68    1.978   .     S
O57    C59     1.286   .     A
O58    C60     1.286   .     A
O58    Zn67    1.978   .     S
C59    C89     1.402   .     S
C60    C90     1.402   .     S
O61    C65     1.287   .     A
O61    Zn67    1.991   .     S
O62    C66     1.287   .     A
O62    Zn68    1.991   .     S
O63    Zn68    2.013   .     S
O63    C65     1.287   .     A
O64    C66     1.287   .     A
O64    Zn67    2.013   .     S
C65    C72     1.416   .     S
C66    C71     1.416   .     S
Zn67   N94     2.023   .     S
Zn68   N93     2.023   .     S
C69    H85     1.083   .     S
C69    C79     1.390   .     A
C69    C71     1.383   .     A
C70    H86     1.083   .     S
C70    C72     1.383   .     A
C70    C80     1.390   .     A
C71    C73     1.384   .     A
C72    C74     1.384   .     A
C73    C75     1.389   .     A
C73    H87     1.083   .     S
C74    H88     1.083   .     S
C74    C76     1.389   .     A
C75    C81     1.409   .     A
C75    C77     1.418   .     A
C76    C82     1.409   .     A
C76    C78     1.418   .     A
C77    C79     1.419   .     A
C77    C564    1.393   1_554 S
C78    C80     1.419   .     A
C78    C563    1.393   .     S
C79    C84     1.410   .     A
C80    C83     1.410   .     A
C81    N97     1.433   .     S
C81    C569    1.400   1_554 S
C82    N100    1.433   .     S
C82    C570    1.400   .     S
C83    N103    1.437   .     S
C83    C567    1.400   .     S
C84    N106    1.437   .     S
C84    C568    1.400   1_554 S
C89    C252    1.331   .     S
C89    H253    1.088   .     S
C90    C413    1.331   1_545 S
C90    H416    1.088   1_545 S
H91    C413    1.088   1_545 S
H92    C252    1.088   .     S
N93    N148    1.284   .     S
N93    H149    1.029   .     S
H96    N148    1.029   .     S
N97    O99     1.299   .     A
N97    O98     1.301   .     A
N100   O102    1.299   .     A
N100   O101    1.301   .     A
N103   O105    1.301   .     A
N103   O266    1.301   .     S
O104   N427    1.301   1_545 S
N106   O108    1.301   .     A
N106   O431    1.301   1_545 S
O107   N268    1.301   .     S
O109   C113    1.282   .     A
O109   Zn121   1.965   .     S
O110   C114    1.282   .     A
O110   Zn122   1.965   .     S
O111   Zn122   1.978   .     S
O111   C113    1.286   .     A
O112   C114    1.286   .     A
O112   Zn121   1.978   .     S
C113   C143    1.402   .     S
C114   C144    1.402   .     S
O115   C119    1.287   .     A
O115   Zn121   1.991   .     S
O116   C120    1.287   .     A
O116   Zn122   1.991   .     S
O117   Zn122   2.013   .     S
O117   C119    1.287   .     A
O118   C120    1.287   .     A
O118   Zn121   2.013   .     S
C119   C126    1.416   .     S
C120   C125    1.416   .     S
Zn121  N148    2.023   .     S
Zn122  N147    2.023   .     S
C123   H139    1.083   .     S
C123   C133    1.390   .     A
C123   C125    1.383   .     A
C124   H140    1.083   .     S
C124   C126    1.383   .     A
C124   C134    1.390   .     A
C125   C127    1.384   .     A
C126   C128    1.384   .     A
C127   C129    1.389   .     A
C127   H141    1.083   .     S
C128   H142    1.083   .     S
C128   C130    1.389   .     A
C129   C135    1.409   .     A
C129   C131    1.418   .     A
C130   C136    1.409   .     A
C130   C132    1.418   .     A
C131   C133    1.419   .     A
C131   C618    1.393   1_554 S
C132   C134    1.419   .     A
C132   C617    1.393   .     S
C133   C138    1.410   .     A
C134   C137    1.410   .     A
C135   N151    1.433   .     S
C135   C623    1.400   1_554 S
C136   N154    1.433   .     S
C136   C624    1.400   .     S
C137   N157    1.437   .     S
C137   C621    1.400   .     S
C138   N160    1.437   .     S
C138   C622    1.400   1_554 S
C143   C306    1.331   .     S
C143   H307    1.088   .     S
C144   C467    1.331   1_545 S
C144   H470    1.088   1_545 S
H145   C467    1.088   1_545 S
H146   C306    1.088   .     S
N147   N40     1.284   1_655 S
N147   H41     1.029   1_655 S
H150   N40     1.029   1_655 S
N151   O153    1.299   .     A
N151   O152    1.301   .     A
N154   O156    1.299   .     A
N154   O155    1.301   .     A
N157   O159    1.301   .     A
N157   O320    1.301   .     S
O158   N481    1.301   1_545 S
N160   O162    1.301   .     A
N160   O485    1.301   1_545 S
O161   N322    1.301   .     S
O163   C167    1.282   .     A
O163   Zn175   1.965   .     S
O164   C168    1.282   .     A
O164   Zn176   1.965   .     S
O165   Zn176   1.978   .     S
O165   C167    1.286   .     A
O166   C168    1.286   .     A
O166   Zn175   1.978   .     S
C167   C197    1.402   .     S
C168   C198    1.402   .     S
O169   C173    1.287   .     A
O169   Zn175   1.991   .     S
O170   C174    1.287   .     A
O170   Zn176   1.991   .     S
O171   Zn176   2.013   .     S
O171   C173    1.287   .     A
O172   C174    1.287   .     A
O172   Zn175   2.013   .     S
C173   C180    1.416   .     S
C174   C179    1.416   .     S
Zn175  N202    2.023   .     S
Zn176  N201    2.023   .     S
C177   H193    1.083   .     S
C177   C187    1.390   .     A
C177   C179    1.383   .     A
C178   H194    1.083   .     S
C178   C180    1.383   .     A
C178   C188    1.390   .     A
C179   C181    1.384   .     A
C180   C182    1.384   .     A
C181   C183    1.389   .     A
C181   H195    1.083   .     S
C182   H196    1.083   .     S
C182   C184    1.389   .     A
C183   C189    1.409   .     A
C183   C185    1.418   .     A
C184   C190    1.409   .     A
C184   C186    1.418   .     A
C185   C187    1.419   .     A
C185   C672    1.393   1_554 S
C186   C188    1.419   .     A
C186   C671    1.393   .     S
C187   C192    1.410   .     A
C188   C191    1.410   .     A
C189   N205    1.433   .     S
C189   C677    1.400   1_554 S
C190   N208    1.433   .     S
C190   C678    1.400   .     S
C191   N211    1.437   .     S
C191   C675    1.400   .     S
C192   N214    1.437   .     S
C192   C676    1.400   1_554 S
C197   C360    1.331   .     S
C197   H361    1.088   .     S
H200   C360    1.088   .     S
N201   N256    1.284   .     S
N201   H257    1.029   .     S
N202   N309    1.284   1_455 S
N202   H312    1.029   1_455 S
H203   N309    1.029   1_455 S
H204   N256    1.029   .     S
N205   O207    1.299   .     A
N205   O206    1.301   .     A
N208   O210    1.299   .     A
N208   O209    1.301   .     A
N211   O213    1.301   .     A
N211   O374    1.301   .     S
N214   O216    1.301   .     A
O215   N376    1.301   .     S
O217   C221    1.282   .     A
O217   Zn229   1.965   .     S
O218   C222    1.282   .     A
O218   Zn230   1.965   .     S
O219   Zn230   1.978   .     S
O219   C221    1.286   .     A
O220   C222    1.286   .     A
O220   Zn229   1.978   .     S
C221   C251    1.402   .     S
C222   C252    1.402   .     S
O223   C227    1.287   .     A
O223   Zn229   1.991   .     S
O224   C228    1.287   .     A
O224   Zn230   1.991   .     S
O225   Zn230   2.013   .     S
O225   C227    1.287   .     A
O226   C228    1.287   .     A
O226   Zn229   2.013   .     S
C227   C234    1.416   .     S
C228   C233    1.416   .     S
Zn229  N256    2.023   .     S
Zn230  N255    2.023   .     S
C231   H247    1.083   .     S
C231   C241    1.390   .     A
C231   C233    1.383   .     A
C232   H248    1.083   .     S
C232   C234    1.383   .     A
C232   C242    1.390   .     A
C233   C235    1.384   .     A
C234   C236    1.384   .     A
C235   C237    1.389   .     A
C235   H249    1.083   .     S
C236   H250    1.083   .     S
C236   C238    1.389   .     A
C237   C243    1.409   .     A
C237   C239    1.418   .     A
C238   C244    1.409   .     A
C238   C240    1.418   .     A
C239   C241    1.419   .     A
C239   C726    1.393   1_554 S
C240   C242    1.419   .     A
C240   C725    1.393   .     S
C241   C246    1.410   .     A
C242   C245    1.410   .     A
C243   N259    1.433   .     S
C243   C731    1.400   1_554 S
C244   N262    1.433   .     S
C244   C732    1.400   .     S
C245   N265    1.437   .     S
C245   C729    1.400   .     S
C246   N268    1.437   .     S
C246   C730    1.400   1_554 S
C251   C414    1.331   .     S
C251   H415    1.088   .     S
H254   C414    1.088   .     S
N255   N310    1.284   .     S
N255   H311    1.029   .     S
H258   N310    1.029   .     S
N259   O261    1.299   .     A
N259   O260    1.301   .     A
N262   O264    1.299   .     A
N262   O263    1.301   .     A
N265   O267    1.301   .     A
N265   O428    1.301   .     S
N268   O270    1.301   .     A
O269   N430    1.301   .     S
O271   C275    1.282   .     A
O271   Zn283   1.965   .     S
O272   C276    1.282   .     A
O272   Zn284   1.965   .     S
O273   Zn284   1.978   .     S
O273   C275    1.286   .     A
O274   C276    1.286   .     A
O274   Zn283   1.978   .     S
C275   C305    1.402   .     S
C276   C306    1.402   .     S
O277   C281    1.287   .     A
O277   Zn283   1.991   .     S
O278   C282    1.287   .     A
O278   Zn284   1.991   .     S
O279   Zn284   2.013   .     S
O279   C281    1.287   .     A
O280   C282    1.287   .     A
O280   Zn283   2.013   .     S
C281   C288    1.416   .     S
C282   C287    1.416   .     S
Zn283  N310    2.023   .     S
Zn284  N309    2.023   .     S
C285   H301    1.083   .     S
C285   C295    1.390   .     A
C285   C287    1.383   .     A
C286   H302    1.083   .     S
C286   C288    1.383   .     A
C286   C296    1.390   .     A
C287   C289    1.384   .     A
C288   C290    1.384   .     A
C289   C291    1.389   .     A
C289   H303    1.083   .     S
C290   H304    1.083   .     S
C290   C292    1.389   .     A
C291   C297    1.409   .     A
C291   C293    1.418   .     A
C292   C298    1.409   .     A
C292   C294    1.418   .     A
C293   C295    1.419   .     A
C293   C780    1.393   1_554 S
C294   C296    1.419   .     A
C294   C779    1.393   .     S
C295   C300    1.410   .     A
C296   C299    1.410   .     A
C297   N313    1.433   .     S
C297   C785    1.400   1_554 S
C298   N316    1.433   .     S
C298   C786    1.400   .     S
C299   N319    1.437   .     S
C299   C783    1.400   .     S
C300   N322    1.437   .     S
C300   C784    1.400   1_554 S
C305   C468    1.331   .     S
C305   H469    1.088   .     S
H308   C468    1.088   .     S
N309   N202    1.284   1_655 S
N309   H203    1.029   1_655 S
H312   N202    1.029   1_655 S
N313   O315    1.299   .     A
N313   O314    1.301   .     A
N316   O318    1.299   .     A
N316   O317    1.301   .     A
N319   O321    1.301   .     A
N319   O482    1.301   .     S
N322   O324    1.301   .     A
O323   N484    1.301   .     S
O325   C329    1.282   .     A
O325   Zn337   1.965   .     S
O326   C330    1.282   .     A
O326   Zn338   1.965   .     S
O327   Zn338   1.978   .     S
O327   C329    1.286   .     A
O328   C330    1.286   .     A
O328   Zn337   1.978   .     S
C329   C359    1.402   .     S
C330   C360    1.402   .     S
O331   C335    1.287   .     A
O331   Zn337   1.991   .     S
O332   C336    1.287   .     A
O332   Zn338   1.991   .     S
O333   Zn338   2.013   .     S
O333   C335    1.287   .     A
O334   C336    1.287   .     A
O334   Zn337   2.013   .     S
C335   C342    1.416   .     S
C336   C341    1.416   .     S
Zn337  N364    2.023   .     S
Zn338  N363    2.023   .     S
C339   H355    1.083   .     S
C339   C349    1.390   .     A
C339   C341    1.383   .     A
C340   H356    1.083   .     S
C340   C342    1.383   .     A
C340   C350    1.390   .     A
C341   C343    1.384   .     A
C342   C344    1.384   .     A
C343   C345    1.389   .     A
C343   H357    1.083   .     S
C344   H358    1.083   .     S
C344   C346    1.389   .     A
C345   C351    1.409   .     A
C345   C347    1.418   .     A
C346   C352    1.409   .     A
C346   C348    1.418   .     A
C347   C349    1.419   .     A
C347   C834    1.393   1_554 S
C348   C350    1.419   .     A
C348   C833    1.393   .     S
C349   C354    1.410   .     A
C350   C353    1.410   .     A
C351   N367    1.433   .     S
C351   C839    1.400   1_554 S
C352   N370    1.433   .     S
C352   C840    1.400   .     S
C353   N373    1.437   .     S
C353   C837    1.400   .     S
C354   N376    1.437   .     S
C354   C838    1.400   1_554 S
C359   C36     1.331   1_565 S
C359   H37     1.088   1_565 S
H362   C36     1.088   1_565 S
N363   N418    1.284   .     S
N363   H419    1.029   .     S
N364   N471    1.284   1_455 S
N364   H474    1.029   1_455 S
H365   N471    1.029   1_455 S
H366   N418    1.029   .     S
N367   O369    1.299   .     A
N367   O368    1.301   .     A
N370   O372    1.299   .     A
N370   O371    1.301   .     A
N373   O375    1.301   .     A
N373   O50     1.301   1_565 S
N376   O378    1.301   .     A
O377   N52     1.301   1_565 S
O379   C383    1.282   .     A
O379   Zn391   1.965   .     S
O380   C384    1.282   .     A
O380   Zn392   1.965   .     S
O381   Zn392   1.978   .     S
O381   C383    1.286   .     A
O382   C384    1.286   .     A
O382   Zn391   1.978   .     S
C383   C413    1.402   .     S
C384   C414    1.402   .     S
O385   C389    1.287   .     A
O385   Zn391   1.991   .     S
O386   C390    1.287   .     A
O386   Zn392   1.991   .     S
O387   Zn392   2.013   .     S
O387   C389    1.287   .     A
O388   C390    1.287   .     A
O388   Zn391   2.013   .     S
C389   C396    1.416   .     S
C390   C395    1.416   .     S
Zn391  N418    2.023   .     S
Zn392  N417    2.023   .     S
C393   H409    1.083   .     S
C393   C403    1.390   .     A
C393   C395    1.383   .     A
C394   H410    1.083   .     S
C394   C396    1.383   .     A
C394   C404    1.390   .     A
C395   C397    1.384   .     A
C396   C398    1.384   .     A
C397   C399    1.389   .     A
C397   H411    1.083   .     S
C398   H412    1.083   .     S
C398   C400    1.389   .     A
C399   C405    1.409   .     A
C399   C401    1.418   .     A
C400   C406    1.409   .     A
C400   C402    1.418   .     A
C401   C403    1.419   .     A
C401   C888    1.393   1_554 S
C402   C404    1.419   .     A
C402   C887    1.393   .     S
C403   C408    1.410   .     A
C404   C407    1.410   .     A
C405   N421    1.433   .     S
C405   C893    1.400   1_554 S
C406   N424    1.433   .     S
C406   C894    1.400   .     S
C407   N427    1.437   .     S
C407   C891    1.400   .     S
C408   N430    1.437   .     S
C408   C892    1.400   1_554 S
C413   C90     1.331   1_565 S
C413   H91     1.088   1_565 S
H416   C90     1.088   1_565 S
N417   N472    1.284   .     S
N417   H473    1.029   .     S
H420   N472    1.029   .     S
N421   O423    1.299   .     A
N421   O422    1.301   .     A
N424   O426    1.299   .     A
N424   O425    1.301   .     A
N427   O429    1.301   .     A
N427   O104    1.301   1_565 S
N430   O432    1.301   .     A
O431   N106    1.301   1_565 S
O433   C437    1.282   .     A
O433   Zn445   1.965   .     S
O434   C438    1.282   .     A
O434   Zn446   1.965   .     S
O435   Zn446   1.978   .     S
O435   C437    1.286   .     A
O436   C438    1.286   .     A
O436   Zn445   1.978   .     S
C437   C467    1.402   .     S
C438   C468    1.402   .     S
O439   C443    1.287   .     A
O439   Zn445   1.991   .     S
O440   C444    1.287   .     A
O440   Zn446   1.991   .     S
O441   Zn446   2.013   .     S
O441   C443    1.287   .     A
O442   C444    1.287   .     A
O442   Zn445   2.013   .     S
C443   C450    1.416   .     S
C444   C449    1.416   .     S
Zn445  N472    2.023   .     S
Zn446  N471    2.023   .     S
C447   H463    1.083   .     S
C447   C457    1.390   .     A
C447   C449    1.383   .     A
C448   H464    1.083   .     S
C448   C450    1.383   .     A
C448   C458    1.390   .     A
C449   C451    1.384   .     A
C450   C452    1.384   .     A
C451   C453    1.389   .     A
C451   H465    1.083   .     S
C452   H466    1.083   .     S
C452   C454    1.389   .     A
C453   C459    1.409   .     A
C453   C455    1.418   .     A
C454   C460    1.409   .     A
C454   C456    1.418   .     A
C455   C457    1.419   .     A
C455   C942    1.393   1_554 S
C456   C458    1.419   .     A
C456   C941    1.393   .     S
C457   C462    1.410   .     A
C458   C461    1.410   .     A
C459   N475    1.433   .     S
C459   C947    1.400   1_554 S
C460   N478    1.433   .     S
C460   C948    1.400   .     S
C461   N481    1.437   .     S
C461   C945    1.400   .     S
C462   N484    1.437   .     S
C462   C946    1.400   1_554 S
C467   C144    1.331   1_565 S
C467   H145    1.088   1_565 S
H470   C144    1.088   1_565 S
N471   N364    1.284   1_655 S
N471   H365    1.029   1_655 S
H474   N364    1.029   1_655 S
N475   O477    1.299   .     A
N475   O476    1.301   .     A
N478   O480    1.299   .     A
N478   O479    1.301   .     A
N481   O483    1.301   .     A
N481   O158    1.301   1_565 S
N484   O486    1.301   .     A
O485   N160    1.301   1_565 S
O487   C491    1.282   .     A
O487   Zn499   1.965   .     S
O488   C492    1.282   .     A
O488   Zn500   1.965   .     S
O489   Zn500   1.978   .     S
O489   C491    1.286   .     A
O490   C492    1.286   .     A
O490   Zn499   1.978   .     S
C491   C521    1.402   .     S
C492   C522    1.402   .     S
O493   C497    1.287   .     A
O493   Zn499   1.991   .     S
O494   C498    1.287   .     A
O494   Zn500   1.991   .     S
O495   Zn500   2.013   .     S
O495   C497    1.287   .     A
O496   C498    1.287   .     A
O496   Zn499   2.013   .     S
C497   C504    1.416   .     S
C498   C503    1.416   .     S
Zn499  N526    2.023   .     S
Zn500  N525    2.023   .     S
C501   H517    1.083   .     S
C501   C511    1.390   .     A
C501   C503    1.383   .     A
C502   H518    1.083   .     S
C502   C504    1.383   .     A
C502   C512    1.390   .     A
C503   C505    1.384   .     A
C504   C506    1.384   .     A
C505   C507    1.389   .     A
C505   H519    1.083   .     S
C506   H520    1.083   .     S
C506   C508    1.389   .     A
C507   C513    1.409   .     A
C507   C509    1.418   .     A
C508   C514    1.409   .     A
C508   C510    1.418   .     A
C509   C511    1.419   .     A
C510   C512    1.419   .     A
C510   C23     1.393   1_556 S
C511   C516    1.410   .     A
C512   C515    1.410   .     A
C513   N529    1.433   .     S
C514   N532    1.433   .     S
C514   C30     1.400   1_556 S
C515   N535    1.437   .     S
C515   C27     1.400   1_556 S
C516   N538    1.437   .     S
C521   C684    1.331   .     S
C521   H685    1.088   .     S
C522   C845    1.331   1_545 S
C522   H848    1.088   1_545 S
H523   C845    1.088   1_545 S
H524   C684    1.088   .     S
N525   N580    1.284   .     S
N525   H581    1.029   .     S
N526   N633    1.284   1_455 S
N526   H636    1.029   1_455 S
H527   N633    1.029   1_455 S
H528   N580    1.029   .     S
N529   O531    1.299   .     A
N529   O530    1.301   .     A
N532   O534    1.299   .     A
N532   O533    1.301   .     A
N535   O537    1.301   .     A
N535   O698    1.301   .     S
O536   N859    1.301   1_545 S
N538   O540    1.301   .     A
N538   O863    1.301   1_545 S
O539   N700    1.301   .     S
O541   C545    1.282   .     A
O541   Zn553   1.965   .     S
O542   C546    1.282   .     A
O542   Zn554   1.965   .     S
O543   Zn554   1.978   .     S
O543   C545    1.286   .     A
O544   C546    1.286   .     A
O544   Zn553   1.978   .     S
C545   C575    1.402   .     S
C546   C576    1.402   .     S
O547   C551    1.287   .     A
O547   Zn553   1.991   .     S
O548   C552    1.287   .     A
O548   Zn554   1.991   .     S
O549   Zn554   2.013   .     S
O549   C551    1.287   .     A
O550   C552    1.287   .     A
O550   Zn553   2.013   .     S
C551   C558    1.416   .     S
C552   C557    1.416   .     S
Zn553  N580    2.023   .     S
Zn554  N579    2.023   .     S
C555   H571    1.083   .     S
C555   C565    1.390   .     A
C555   C557    1.383   .     A
C556   H572    1.083   .     S
C556   C558    1.383   .     A
C556   C566    1.390   .     A
C557   C559    1.384   .     A
C558   C560    1.384   .     A
C559   C561    1.389   .     A
C559   H573    1.083   .     S
C560   H574    1.083   .     S
C560   C562    1.389   .     A
C561   C567    1.409   .     A
C561   C563    1.418   .     A
C562   C568    1.409   .     A
C562   C564    1.418   .     A
C563   C565    1.419   .     A
C564   C566    1.419   .     A
C564   C77     1.393   1_556 S
C565   C570    1.410   .     A
C566   C569    1.410   .     A
C567   N583    1.433   .     S
C568   N586    1.433   .     S
C568   C84     1.400   1_556 S
C569   N589    1.437   .     S
C569   C81     1.400   1_556 S
C570   N592    1.437   .     S
C575   C738    1.331   .     S
C575   H739    1.088   .     S
C576   C899    1.331   1_545 S
C576   H902    1.088   1_545 S
H577   C899    1.088   1_545 S
H578   C738    1.088   .     S
N579   N634    1.284   .     S
N579   H635    1.029   .     S
H582   N634    1.029   .     S
N583   O585    1.299   .     A
N583   O584    1.301   .     A
N586   O588    1.299   .     A
N586   O587    1.301   .     A
N589   O591    1.301   .     A
N589   O752    1.301   .     S
O590   N913    1.301   1_545 S
N592   O594    1.301   .     A
N592   O917    1.301   1_545 S
O593   N754    1.301   .     S
O595   C599    1.282   .     A
O595   Zn607   1.965   .     S
O596   C600    1.282   .     A
O596   Zn608   1.965   .     S
O597   Zn608   1.978   .     S
O597   C599    1.286   .     A
O598   C600    1.286   .     A
O598   Zn607   1.978   .     S
C599   C629    1.402   .     S
C600   C630    1.402   .     S
O601   C605    1.287   .     A
O601   Zn607   1.991   .     S
O602   C606    1.287   .     A
O602   Zn608   1.991   .     S
O603   Zn608   2.013   .     S
O603   C605    1.287   .     A
O604   C606    1.287   .     A
O604   Zn607   2.013   .     S
C605   C612    1.416   .     S
C606   C611    1.416   .     S
Zn607  N634    2.023   .     S
Zn608  N633    2.023   .     S
C609   H625    1.083   .     S
C609   C619    1.390   .     A
C609   C611    1.383   .     A
C610   H626    1.083   .     S
C610   C612    1.383   .     A
C610   C620    1.390   .     A
C611   C613    1.384   .     A
C612   C614    1.384   .     A
C613   C615    1.389   .     A
C613   H627    1.083   .     S
C614   H628    1.083   .     S
C614   C616    1.389   .     A
C615   C621    1.409   .     A
C615   C617    1.418   .     A
C616   C622    1.409   .     A
C616   C618    1.418   .     A
C617   C619    1.419   .     A
C618   C620    1.419   .     A
C618   C131    1.393   1_556 S
C619   C624    1.410   .     A
C620   C623    1.410   .     A
C621   N637    1.433   .     S
C622   N640    1.433   .     S
C622   C138    1.400   1_556 S
C623   N643    1.437   .     S
C623   C135    1.400   1_556 S
C624   N646    1.437   .     S
C629   C792    1.331   .     S
C629   H793    1.088   .     S
C630   C953    1.331   1_545 S
C630   H956    1.088   1_545 S
H631   C953    1.088   1_545 S
H632   C792    1.088   .     S
N633   N526    1.284   1_655 S
N633   H527    1.029   1_655 S
H636   N526    1.029   1_655 S
N637   O639    1.299   .     A
N637   O638    1.301   .     A
N640   O642    1.299   .     A
N640   O641    1.301   .     A
N643   O645    1.301   .     A
N643   O806    1.301   .     S
O644   N967    1.301   1_545 S
N646   O648    1.301   .     A
N646   O971    1.301   1_545 S
O647   N808    1.301   .     S
O649   C653    1.282   .     A
O649   Zn661   1.965   .     S
O650   C654    1.282   .     A
O650   Zn662   1.965   .     S
O651   Zn662   1.978   .     S
O651   C653    1.286   .     A
O652   C654    1.286   .     A
O652   Zn661   1.978   .     S
C653   C683    1.402   .     S
C654   C684    1.402   .     S
O655   C659    1.287   .     A
O655   Zn661   1.991   .     S
O656   C660    1.287   .     A
O656   Zn662   1.991   .     S
O657   Zn662   2.013   .     S
O657   C659    1.287   .     A
O658   C660    1.287   .     A
O658   Zn661   2.013   .     S
C659   C666    1.416   .     S
C660   C665    1.416   .     S
Zn661  N688    2.023   .     S
Zn662  N687    2.023   .     S
C663   H679    1.083   .     S
C663   C673    1.390   .     A
C663   C665    1.383   .     A
C664   H680    1.083   .     S
C664   C666    1.383   .     A
C664   C674    1.390   .     A
C665   C667    1.384   .     A
C666   C668    1.384   .     A
C667   C669    1.389   .     A
C667   H681    1.083   .     S
C668   H682    1.083   .     S
C668   C670    1.389   .     A
C669   C675    1.409   .     A
C669   C671    1.418   .     A
C670   C676    1.409   .     A
C670   C672    1.418   .     A
C671   C673    1.419   .     A
C672   C674    1.419   .     A
C672   C185    1.393   1_556 S
C673   C678    1.410   .     A
C674   C677    1.410   .     A
C675   N691    1.433   .     S
C676   N694    1.433   .     S
C676   C192    1.400   1_556 S
C677   N697    1.437   .     S
C677   C189    1.400   1_556 S
C678   N700    1.437   .     S
C683   C846    1.331   .     S
C683   H847    1.088   .     S
H686   C846    1.088   .     S
N687   N742    1.284   .     S
N687   H743    1.029   .     S
N688   N795    1.284   1_455 S
N688   H798    1.029   1_455 S
H689   N795    1.029   1_455 S
H690   N742    1.029   .     S
N691   O693    1.299   .     A
N691   O692    1.301   .     A
N694   O696    1.299   .     A
N694   O695    1.301   .     A
N697   O699    1.301   .     A
N697   O860    1.301   .     S
N700   O702    1.301   .     A
O701   N862    1.301   .     S
O703   C707    1.282   .     A
O703   Zn715   1.965   .     S
O704   C708    1.282   .     A
O704   Zn716   1.965   .     S
O705   Zn716   1.978   .     S
O705   C707    1.286   .     A
O706   C708    1.286   .     A
O706   Zn715   1.978   .     S
C707   C737    1.402   .     S
C708   C738    1.402   .     S
O709   C713    1.287   .     A
O709   Zn715   1.991   .     S
O710   C714    1.287   .     A
O710   Zn716   1.991   .     S
O711   Zn716   2.013   .     S
O711   C713    1.287   .     A
O712   C714    1.287   .     A
O712   Zn715   2.013   .     S
C713   C720    1.416   .     S
C714   C719    1.416   .     S
Zn715  N742    2.023   .     S
Zn716  N741    2.023   .     S
C717   H733    1.083   .     S
C717   C727    1.390   .     A
C717   C719    1.383   .     A
C718   H734    1.083   .     S
C718   C720    1.383   .     A
C718   C728    1.390   .     A
C719   C721    1.384   .     A
C720   C722    1.384   .     A
C721   C723    1.389   .     A
C721   H735    1.083   .     S
C722   H736    1.083   .     S
C722   C724    1.389   .     A
C723   C729    1.409   .     A
C723   C725    1.418   .     A
C724   C730    1.409   .     A
C724   C726    1.418   .     A
C725   C727    1.419   .     A
C726   C728    1.419   .     A
C726   C239    1.393   1_556 S
C727   C732    1.410   .     A
C728   C731    1.410   .     A
C729   N745    1.433   .     S
C730   N748    1.433   .     S
C730   C246    1.400   1_556 S
C731   N751    1.437   .     S
C731   C243    1.400   1_556 S
C732   N754    1.437   .     S
C737   C900    1.331   .     S
C737   H901    1.088   .     S
H740   C900    1.088   .     S
N741   N796    1.284   .     S
N741   H797    1.029   .     S
H744   N796    1.029   .     S
N745   O747    1.299   .     A
N745   O746    1.301   .     A
N748   O750    1.299   .     A
N748   O749    1.301   .     A
N751   O753    1.301   .     A
N751   O914    1.301   .     S
N754   O756    1.301   .     A
O755   N916    1.301   .     S
O757   C761    1.282   .     A
O757   Zn769   1.965   .     S
O758   C762    1.282   .     A
O758   Zn770   1.965   .     S
O759   Zn770   1.978   .     S
O759   C761    1.286   .     A
O760   C762    1.286   .     A
O760   Zn769   1.978   .     S
C761   C791    1.402   .     S
C762   C792    1.402   .     S
O763   C767    1.287   .     A
O763   Zn769   1.991   .     S
O764   C768    1.287   .     A
O764   Zn770   1.991   .     S
O765   Zn770   2.013   .     S
O765   C767    1.287   .     A
O766   C768    1.287   .     A
O766   Zn769   2.013   .     S
C767   C774    1.416   .     S
C768   C773    1.416   .     S
Zn769  N796    2.023   .     S
Zn770  N795    2.023   .     S
C771   H787    1.083   .     S
C771   C781    1.390   .     A
C771   C773    1.383   .     A
C772   H788    1.083   .     S
C772   C774    1.383   .     A
C772   C782    1.390   .     A
C773   C775    1.384   .     A
C774   C776    1.384   .     A
C775   C777    1.389   .     A
C775   H789    1.083   .     S
C776   H790    1.083   .     S
C776   C778    1.389   .     A
C777   C783    1.409   .     A
C777   C779    1.418   .     A
C778   C784    1.409   .     A
C778   C780    1.418   .     A
C779   C781    1.419   .     A
C780   C782    1.419   .     A
C780   C293    1.393   1_556 S
C781   C786    1.410   .     A
C782   C785    1.410   .     A
C783   N799    1.433   .     S
C784   N802    1.433   .     S
C784   C300    1.400   1_556 S
C785   N805    1.437   .     S
C785   C297    1.400   1_556 S
C786   N808    1.437   .     S
C791   C954    1.331   .     S
C791   H955    1.088   .     S
H794   C954    1.088   .     S
N795   N688    1.284   1_655 S
N795   H689    1.029   1_655 S
H798   N688    1.029   1_655 S
N799   O801    1.299   .     A
N799   O800    1.301   .     A
N802   O804    1.299   .     A
N802   O803    1.301   .     A
N805   O807    1.301   .     A
N805   O968    1.301   .     S
N808   O810    1.301   .     A
O809   N970    1.301   .     S
O811   C815    1.282   .     A
O811   Zn823   1.965   .     S
O812   C816    1.282   .     A
O812   Zn824   1.965   .     S
O813   Zn824   1.978   .     S
O813   C815    1.286   .     A
O814   C816    1.286   .     A
O814   Zn823   1.978   .     S
C815   C845    1.402   .     S
C816   C846    1.402   .     S
O817   C821    1.287   .     A
O817   Zn823   1.991   .     S
O818   C822    1.287   .     A
O818   Zn824   1.991   .     S
O819   Zn824   2.013   .     S
O819   C821    1.287   .     A
O820   C822    1.287   .     A
O820   Zn823   2.013   .     S
C821   C828    1.416   .     S
C822   C827    1.416   .     S
Zn823  N850    2.023   .     S
Zn824  N849    2.023   .     S
C825   H841    1.083   .     S
C825   C835    1.390   .     A
C825   C827    1.383   .     A
C826   H842    1.083   .     S
C826   C828    1.383   .     A
C826   C836    1.390   .     A
C827   C829    1.384   .     A
C828   C830    1.384   .     A
C829   C831    1.389   .     A
C829   H843    1.083   .     S
C830   H844    1.083   .     S
C830   C832    1.389   .     A
C831   C837    1.409   .     A
C831   C833    1.418   .     A
C832   C838    1.409   .     A
C832   C834    1.418   .     A
C833   C835    1.419   .     A
C834   C836    1.419   .     A
C834   C347    1.393   1_556 S
C835   C840    1.410   .     A
C836   C839    1.410   .     A
C837   N853    1.433   .     S
C838   N856    1.433   .     S
C838   C354    1.400   1_556 S
C839   N859    1.437   .     S
C839   C351    1.400   1_556 S
C840   N862    1.437   .     S
C845   C522    1.331   1_565 S
C845   H523    1.088   1_565 S
H848   C522    1.088   1_565 S
N849   N904    1.284   .     S
N849   H905    1.029   .     S
N850   N957    1.284   1_455 S
N850   H960    1.029   1_455 S
H851   N957    1.029   1_455 S
H852   N904    1.029   .     S
N853   O855    1.299   .     A
N853   O854    1.301   .     A
N856   O858    1.299   .     A
N856   O857    1.301   .     A
N859   O861    1.301   .     A
N859   O536    1.301   1_565 S
N862   O864    1.301   .     A
O863   N538    1.301   1_565 S
O865   C869    1.282   .     A
O865   Zn877   1.965   .     S
O866   C870    1.282   .     A
O866   Zn878   1.965   .     S
O867   Zn878   1.978   .     S
O867   C869    1.286   .     A
O868   C870    1.286   .     A
O868   Zn877   1.978   .     S
C869   C899    1.402   .     S
C870   C900    1.402   .     S
O871   C875    1.287   .     A
O871   Zn877   1.991   .     S
O872   C876    1.287   .     A
O872   Zn878   1.991   .     S
O873   Zn878   2.013   .     S
O873   C875    1.287   .     A
O874   C876    1.287   .     A
O874   Zn877   2.013   .     S
C875   C882    1.416   .     S
C876   C881    1.416   .     S
Zn877  N904    2.023   .     S
Zn878  N903    2.023   .     S
C879   H895    1.083   .     S
C879   C889    1.390   .     A
C879   C881    1.383   .     A
C880   H896    1.083   .     S
C880   C882    1.383   .     A
C880   C890    1.390   .     A
C881   C883    1.384   .     A
C882   C884    1.384   .     A
C883   C885    1.389   .     A
C883   H897    1.083   .     S
C884   H898    1.083   .     S
C884   C886    1.389   .     A
C885   C891    1.409   .     A
C885   C887    1.418   .     A
C886   C892    1.409   .     A
C886   C888    1.418   .     A
C887   C889    1.419   .     A
C888   C890    1.419   .     A
C888   C401    1.393   1_556 S
C889   C894    1.410   .     A
C890   C893    1.410   .     A
C891   N907    1.433   .     S
C892   N910    1.433   .     S
C892   C408    1.400   1_556 S
C893   N913    1.437   .     S
C893   C405    1.400   1_556 S
C894   N916    1.437   .     S
C899   C576    1.331   1_565 S
C899   H577    1.088   1_565 S
H902   C576    1.088   1_565 S
N903   N958    1.284   .     S
N903   H959    1.029   .     S
H906   N958    1.029   .     S
N907   O909    1.299   .     A
N907   O908    1.301   .     A
N910   O912    1.299   .     A
N910   O911    1.301   .     A
N913   O915    1.301   .     A
N913   O590    1.301   1_565 S
N916   O918    1.301   .     A
O917   N592    1.301   1_565 S
O919   C923    1.282   .     A
O919   Zn931   1.965   .     S
O920   C924    1.282   .     A
O920   Zn932   1.965   .     S
O921   Zn932   1.978   .     S
O921   C923    1.286   .     A
O922   C924    1.286   .     A
O922   Zn931   1.978   .     S
C923   C953    1.402   .     S
C924   C954    1.402   .     S
O925   C929    1.287   .     A
O925   Zn931   1.991   .     S
O926   C930    1.287   .     A
O926   Zn932   1.991   .     S
O927   Zn932   2.013   .     S
O927   C929    1.287   .     A
O928   C930    1.287   .     A
O928   Zn931   2.013   .     S
C929   C936    1.416   .     S
C930   C935    1.416   .     S
Zn931  N958    2.023   .     S
Zn932  N957    2.023   .     S
C933   H949    1.083   .     S
C933   C943    1.390   .     A
C933   C935    1.383   .     A
C934   H950    1.083   .     S
C934   C936    1.383   .     A
C934   C944    1.390   .     A
C935   C937    1.384   .     A
C936   C938    1.384   .     A
C937   C939    1.389   .     A
C937   H951    1.083   .     S
C938   H952    1.083   .     S
C938   C940    1.389   .     A
C939   C945    1.409   .     A
C939   C941    1.418   .     A
C940   C946    1.409   .     A
C940   C942    1.418   .     A
C941   C943    1.419   .     A
C942   C944    1.419   .     A
C942   C455    1.393   1_556 S
C943   C948    1.410   .     A
C944   C947    1.410   .     A
C945   N961    1.433   .     S
C946   N964    1.433   .     S
C946   C462    1.400   1_556 S
C947   N967    1.437   .     S
C947   C459    1.400   1_556 S
C948   N970    1.437   .     S
C953   C630    1.331   1_565 S
C953   H631    1.088   1_565 S
H956   C630    1.088   1_565 S
N957   N850    1.284   1_655 S
N957   H851    1.029   1_655 S
H960   N850    1.029   1_655 S
N961   O963    1.299   .     A
N961   O962    1.301   .     A
N964   O966    1.299   .     A
N964   O965    1.301   .     A
N967   O969    1.301   .     A
N967   O644    1.301   1_565 S
N970   O972    1.301   .     A
O971   N646    1.301   1_565 S
