data_str_m2_o10_o17_pcu_sym.5
_audit_creation_date              2020-01-03
_audit_creation_method            'Materials Studio'
_symmetry_space_group_name_H-M    'P1'
_symmetry_Int_Tables_number       1
_symmetry_cell_setting            triclinic
loop_
_symmetry_equiv_pos_as_xyz
  x,y,z
_cell_length_a                    30.3270
_cell_length_b                    26.9309
_cell_length_c                    22.5487
_cell_angle_alpha                 102.2493
_cell_angle_beta                  94.0694
_cell_angle_gamma                 95.4390
loop_
_atom_site_label
_atom_site_type_symbol
_atom_site_fract_x
_atom_site_fract_y
_atom_site_fract_z
_atom_site_U_iso_or_equiv
_atom_site_adp_type
_atom_site_occupancy
C1     C     0.24849   0.06671   0.15113   0.00000  Uiso   1.00
C2     C     0.08841   0.12378   0.16473   0.00000  Uiso   1.00
C3     C     0.38424   0.17226   0.16800   0.00000  Uiso   1.00
C4     C     0.11628   0.16966   0.17044   0.00000  Uiso   1.00
C5     C     0.40305   0.12659   0.16317   0.00000  Uiso   1.00
C6     C     0.09824   0.21664   0.17934   0.00000  Uiso   1.00
C7     C     0.44922   0.12684   0.16894   0.00000  Uiso   1.00
C8     C     0.05216   0.21776   0.18442   0.00000  Uiso   1.00
C9     C     0.47738   0.17283   0.17784   0.00000  Uiso   1.00
C10    C     0.02398   0.17162   0.17740   0.00000  Uiso   1.00
C11    C     0.45876   0.21959   0.18468   0.00000  Uiso   1.00
C12    C     0.25195   0.26637   0.18166   0.00000  Uiso   1.00
C13    C     0.04186   0.12406   0.16643   0.00000  Uiso   1.00
C14    C     0.46720   0.08089   0.16208   0.00000  Uiso   1.00
C15    C     0.03354   0.26425   0.19541   0.00000  Uiso   1.00
C16    C     0.39048   0.26827   0.11322   0.00000  Uiso   1.00
C17    C     0.34598   0.28477   0.09732   0.00000  Uiso   1.00
C18    C     0.11164   0.05832   0.09814   0.00000  Uiso   1.00
C19    C     0.11465   0.00191   0.09065   0.00000  Uiso   1.00
C20    C     0.36638   0.06887   0.08303   0.00000  Uiso   1.00
C21    C     0.14373   0.28718   0.23070   0.00000  Uiso   1.00
C22    C     0.00422   0.00171   0.08345   0.00000  Uiso   1.00
C23    C     0.01228   0.07826   0.15554   0.00000  Uiso   1.00
C24    C     0.47483   0.00050   0.26939   0.00000  Uiso   1.00
C25    C     0.21448   0.31275   0.04201   0.00000  Uiso   1.00
C26    C     0.18501   0.26253   0.03729   0.00000  Uiso   1.00
C27    C     0.30819   0.01597   0.26940   0.00000  Uiso   1.00
C28    C     0.33455   0.06788   0.27563   0.00000  Uiso   1.00
C29    C     0.48758   0.26555   0.19733   0.00000  Uiso   1.00
C30    C     0.24830   0.01076   0.14136   0.00000  Uiso   1.00
C31    C     0.25442   0.32200   0.18961   0.00000  Uiso   1.00
C32    C     0.16462   0.16814   0.16772   0.00000  Uiso   1.00
C33    C     0.33561   0.17052   0.16682   0.00000  Uiso   1.00
C34    C     0.41178   0.21884   0.17762   0.00000  Uiso   1.00
Cu35   Cu    0.25501   0.17246   0.22813   0.00000  Uiso   1.00
Cu36   Cu    0.24500   0.16087   0.10521   0.00000  Uiso   1.00
H37    H     0.44554   0.04585   0.15708   0.00000  Uiso   1.00
H38    H     0.14270   0.07558   0.08410   0.00000  Uiso   1.00
H39    H     0.08331   0.06395   0.06675   0.00000  Uiso   1.00
H40    H     0.08745   0.31571   0.10997   0.00000  Uiso   1.00
H41    H     0.11292   0.31793   0.04147   0.00000  Uiso   1.00
H42    H     0.14577   0.33046   0.11629   0.00000  Uiso   1.00
H43    H     0.38806   0.04034   0.06211   0.00000  Uiso   1.00
H44    H     0.37041   0.10227   0.06117   0.00000  Uiso   1.00
H45    H     0.33115   0.05247   0.07300   0.00000  Uiso   1.00
H46    H     0.11906   0.29356   0.26497   0.00000  Uiso   1.00
H47    H     0.15852   0.32537   0.22635   0.00000  Uiso   1.00
H48    H     0.05444   0.30019   0.20233   0.00000  Uiso   1.00
H49    H     0.17110   0.26728   0.24623   0.00000  Uiso   1.00
H50    H     0.02765   0.32861   0.04801   0.00000  Uiso   1.00
H51    H     0.47616   0.01912   0.06441   0.00000  Uiso   1.00
H52    H     0.49151   0.29675   0.08953   0.00000  Uiso   1.00
H53    H     0.01033   0.01281   0.28631   0.00000  Uiso   1.00
H54    H     0.45913   0.30705   0.29527   0.00000  Uiso   1.00
H55    H     0.45702   0.03511   0.27712   0.00000  Uiso   1.00
H56    H     0.22574   0.31273   0.32975   0.00000  Uiso   1.00
H57    H     0.19511   0.01243   0.05214   0.00000  Uiso   1.00
H58    H     0.17582   0.25769   0.08249   0.00000  Uiso   1.00
H59    H     0.21463   0.12606   0.31665   0.00000  Uiso   1.00
H60    H     0.15423   0.25975   0.00729   0.00000  Uiso   1.00
H61    H     0.20230   0.23052   0.01655   0.00000  Uiso   1.00
H62    H     0.32591   0.32020   0.24014   0.00000  Uiso   1.00
H63    H     0.30846   0.00561   0.31426   0.00000  Uiso   1.00
H64    H     0.37011   0.06614   0.28959   0.00000  Uiso   1.00
H65    H     0.33248   0.07879   0.23126   0.00000  Uiso   1.00
H66    H     0.32055   0.09723   0.30912   0.00000  Uiso   1.00
H67    H     0.28562   0.20687   0.01624   0.00000  Uiso   1.00
H68    H     0.39446   0.23284   0.07859   0.00000  Uiso   1.00
H69    H     0.41660   0.29833   0.10869   0.00000  Uiso   1.00
H70    H     0.34070   0.31998   0.13032   0.00000  Uiso   1.00
H71    H     0.34358   0.29068   0.05003   0.00000  Uiso   1.00
H72    H     0.32027   0.25443   0.10089   0.00000  Uiso   1.00
N73    N     0.23745   0.15214   0.01284   0.00000  Uiso   1.00
N74    N     0.26256   0.18119   0.32049   0.00000  Uiso   1.00
O75    O     0.25326   0.09538   0.20659   0.00000  Uiso   1.00
O76    O     0.10729   0.07875   0.16009   0.00000  Uiso   1.00
O77    O     0.37595   0.08088   0.14687   0.00000  Uiso   1.00
O78    O     0.12419   0.25999   0.17320   0.00000  Uiso   1.00
O79    O     0.02716   0.03071   0.13913   0.00000  Uiso   1.00
O80    O     0.47075   0.31209   0.20663   0.00000  Uiso   1.00
O81    O     0.25279   0.31599   0.08288   0.00000  Uiso   1.00
O82    O     0.26335   0.01805   0.24835   0.00000  Uiso   1.00
O83    O     0.24675   0.23796   0.12674   0.00000  Uiso   1.00
O84    O     0.24480   0.08559   0.10279   0.00000  Uiso   1.00
O85    O     0.25520   0.24774   0.23055   0.00000  Uiso   1.00
O86    O     0.18936   0.17155   0.21857   0.00000  Uiso   1.00
O87    O     0.31065   0.16179   0.11476   0.00000  Uiso   1.00
O88    O     0.18090   0.16176   0.11477   0.00000  Uiso   1.00
O89    O     0.31910   0.17157   0.21857   0.00000  Uiso   1.00
O90    O     0.39250   0.26263   0.17440   0.00000  Uiso   1.00
C91    C     0.74849   0.06671   0.15113   0.00000  Uiso   1.00
C92    C     0.58841   0.12378   0.16473   0.00000  Uiso   1.00
C93    C     0.88424   0.17226   0.16800   0.00000  Uiso   1.00
C94    C     0.61628   0.16966   0.17044   0.00000  Uiso   1.00
C95    C     0.90305   0.12659   0.16317   0.00000  Uiso   1.00
C96    C     0.59824   0.21664   0.17934   0.00000  Uiso   1.00
C97    C     0.94922   0.12684   0.16894   0.00000  Uiso   1.00
C98    C     0.55216   0.21776   0.18442   0.00000  Uiso   1.00
C99    C     0.97738   0.17283   0.17784   0.00000  Uiso   1.00
C100   C     0.52398   0.17162   0.17740   0.00000  Uiso   1.00
C101   C     0.95876   0.21959   0.18468   0.00000  Uiso   1.00
C102   C     0.75195   0.26637   0.18166   0.00000  Uiso   1.00
C103   C     0.54186   0.12406   0.16643   0.00000  Uiso   1.00
C104   C     0.96720   0.08089   0.16208   0.00000  Uiso   1.00
C105   C     0.53354   0.26425   0.19541   0.00000  Uiso   1.00
C106   C     0.89048   0.26827   0.11322   0.00000  Uiso   1.00
C107   C     0.84598   0.28477   0.09732   0.00000  Uiso   1.00
C108   C     0.61164   0.05832   0.09814   0.00000  Uiso   1.00
C109   C     0.61465   0.00191   0.09065   0.00000  Uiso   1.00
C110   C     0.86638   0.06887   0.08303   0.00000  Uiso   1.00
C111   C     0.64373   0.28718   0.23070   0.00000  Uiso   1.00
C112   C     0.50422   0.00171   0.08345   0.00000  Uiso   1.00
C113   C     0.51228   0.07826   0.15554   0.00000  Uiso   1.00
C114   C     0.97483   0.00050   0.26939   0.00000  Uiso   1.00
C115   C     0.71448   0.31275   0.04201   0.00000  Uiso   1.00
C116   C     0.68501   0.26253   0.03729   0.00000  Uiso   1.00
C117   C     0.80819   0.01597   0.26940   0.00000  Uiso   1.00
C118   C     0.83455   0.06788   0.27563   0.00000  Uiso   1.00
C119   C     0.98758   0.26555   0.19733   0.00000  Uiso   1.00
C120   C     0.74830   0.01076   0.14136   0.00000  Uiso   1.00
C121   C     0.75442   0.32200   0.18961   0.00000  Uiso   1.00
C122   C     0.66462   0.16814   0.16772   0.00000  Uiso   1.00
C123   C     0.83561   0.17052   0.16682   0.00000  Uiso   1.00
C124   C     0.91178   0.21884   0.17762   0.00000  Uiso   1.00
Cu125  Cu    0.75501   0.17246   0.22813   0.00000  Uiso   1.00
Cu126  Cu    0.74500   0.16087   0.10521   0.00000  Uiso   1.00
H127   H     0.94554   0.04585   0.15708   0.00000  Uiso   1.00
H128   H     0.64270   0.07558   0.08410   0.00000  Uiso   1.00
H129   H     0.58331   0.06395   0.06675   0.00000  Uiso   1.00
H130   H     0.58745   0.31571   0.10997   0.00000  Uiso   1.00
H131   H     0.61292   0.31793   0.04147   0.00000  Uiso   1.00
H132   H     0.64577   0.33046   0.11629   0.00000  Uiso   1.00
H133   H     0.88806   0.04034   0.06211   0.00000  Uiso   1.00
H134   H     0.87041   0.10227   0.06117   0.00000  Uiso   1.00
H135   H     0.83115   0.05247   0.07300   0.00000  Uiso   1.00
H136   H     0.61906   0.29356   0.26497   0.00000  Uiso   1.00
H137   H     0.65852   0.32537   0.22635   0.00000  Uiso   1.00
H138   H     0.55444   0.30019   0.20233   0.00000  Uiso   1.00
H139   H     0.67110   0.26728   0.24623   0.00000  Uiso   1.00
H140   H     0.52765   0.32861   0.04801   0.00000  Uiso   1.00
H141   H     0.97616   0.01912   0.06441   0.00000  Uiso   1.00
H142   H     0.99151   0.29675   0.08953   0.00000  Uiso   1.00
H143   H     0.51033   0.01281   0.28631   0.00000  Uiso   1.00
H144   H     0.95913   0.30705   0.29527   0.00000  Uiso   1.00
H145   H     0.95702   0.03511   0.27712   0.00000  Uiso   1.00
H146   H     0.72574   0.31273   0.32975   0.00000  Uiso   1.00
H147   H     0.69511   0.01243   0.05214   0.00000  Uiso   1.00
H148   H     0.67582   0.25769   0.08249   0.00000  Uiso   1.00
H149   H     0.71463   0.12606   0.31665   0.00000  Uiso   1.00
H150   H     0.65423   0.25975   0.00729   0.00000  Uiso   1.00
H151   H     0.70230   0.23052   0.01655   0.00000  Uiso   1.00
H152   H     0.82591   0.32020   0.24014   0.00000  Uiso   1.00
H153   H     0.80846   0.00561   0.31426   0.00000  Uiso   1.00
H154   H     0.87011   0.06614   0.28959   0.00000  Uiso   1.00
H155   H     0.83248   0.07879   0.23126   0.00000  Uiso   1.00
H156   H     0.82055   0.09723   0.30912   0.00000  Uiso   1.00
H157   H     0.78562   0.20687   0.01624   0.00000  Uiso   1.00
H158   H     0.89446   0.23284   0.07859   0.00000  Uiso   1.00
H159   H     0.91660   0.29833   0.10869   0.00000  Uiso   1.00
H160   H     0.84070   0.31998   0.13032   0.00000  Uiso   1.00
H161   H     0.84358   0.29068   0.05003   0.00000  Uiso   1.00
H162   H     0.82027   0.25443   0.10089   0.00000  Uiso   1.00
N163   N     0.73745   0.15214   0.01284   0.00000  Uiso   1.00
N164   N     0.76256   0.18119   0.32049   0.00000  Uiso   1.00
O165   O     0.75326   0.09538   0.20659   0.00000  Uiso   1.00
O166   O     0.60729   0.07875   0.16009   0.00000  Uiso   1.00
O167   O     0.87595   0.08088   0.14687   0.00000  Uiso   1.00
O168   O     0.62419   0.25999   0.17320   0.00000  Uiso   1.00
O169   O     0.52716   0.03071   0.13913   0.00000  Uiso   1.00
O170   O     0.97075   0.31209   0.20663   0.00000  Uiso   1.00
O171   O     0.75279   0.31599   0.08288   0.00000  Uiso   1.00
O172   O     0.76335   0.01805   0.24835   0.00000  Uiso   1.00
O173   O     0.74675   0.23796   0.12674   0.00000  Uiso   1.00
O174   O     0.74480   0.08559   0.10279   0.00000  Uiso   1.00
O175   O     0.75520   0.24774   0.23055   0.00000  Uiso   1.00
O176   O     0.68936   0.17155   0.21857   0.00000  Uiso   1.00
O177   O     0.81065   0.16179   0.11476   0.00000  Uiso   1.00
O178   O     0.68090   0.16176   0.11477   0.00000  Uiso   1.00
O179   O     0.81910   0.17157   0.21857   0.00000  Uiso   1.00
O180   O     0.89250   0.26263   0.17440   0.00000  Uiso   1.00
C181   C     0.24849   0.40004   0.15113   0.00000  Uiso   1.00
C182   C     0.08841   0.45711   0.16473   0.00000  Uiso   1.00
C183   C     0.38424   0.50560   0.16800   0.00000  Uiso   1.00
C184   C     0.11628   0.50299   0.17044   0.00000  Uiso   1.00
C185   C     0.40305   0.45992   0.16317   0.00000  Uiso   1.00
C186   C     0.09824   0.54997   0.17934   0.00000  Uiso   1.00
C187   C     0.44922   0.46017   0.16894   0.00000  Uiso   1.00
C188   C     0.05216   0.55109   0.18442   0.00000  Uiso   1.00
C189   C     0.47738   0.50616   0.17784   0.00000  Uiso   1.00
C190   C     0.02398   0.50495   0.17740   0.00000  Uiso   1.00
C191   C     0.45876   0.55293   0.18468   0.00000  Uiso   1.00
C192   C     0.25195   0.59970   0.18166   0.00000  Uiso   1.00
C193   C     0.04186   0.45739   0.16643   0.00000  Uiso   1.00
C194   C     0.46720   0.41422   0.16208   0.00000  Uiso   1.00
C195   C     0.03354   0.59759   0.19541   0.00000  Uiso   1.00
C196   C     0.39048   0.60160   0.11322   0.00000  Uiso   1.00
C197   C     0.34598   0.61811   0.09732   0.00000  Uiso   1.00
C198   C     0.11164   0.39166   0.09814   0.00000  Uiso   1.00
C199   C     0.11465   0.33525   0.09065   0.00000  Uiso   1.00
C200   C     0.36638   0.40220   0.08303   0.00000  Uiso   1.00
C201   C     0.14373   0.62052   0.23070   0.00000  Uiso   1.00
C202   C     0.00422   0.33504   0.08345   0.00000  Uiso   1.00
C203   C     0.01228   0.41159   0.15554   0.00000  Uiso   1.00
C204   C     0.47483   0.33384   0.26939   0.00000  Uiso   1.00
C205   C     0.21448   0.64608   0.04201   0.00000  Uiso   1.00
C206   C     0.18501   0.59587   0.03729   0.00000  Uiso   1.00
C207   C     0.30819   0.34930   0.26940   0.00000  Uiso   1.00
C208   C     0.33455   0.40121   0.27563   0.00000  Uiso   1.00
C209   C     0.48758   0.59888   0.19733   0.00000  Uiso   1.00
C210   C     0.24830   0.34409   0.14136   0.00000  Uiso   1.00
C211   C     0.25442   0.65534   0.18961   0.00000  Uiso   1.00
C212   C     0.16462   0.50147   0.16772   0.00000  Uiso   1.00
C213   C     0.33561   0.50385   0.16682   0.00000  Uiso   1.00
C214   C     0.41178   0.55217   0.17762   0.00000  Uiso   1.00
Cu215  Cu    0.25501   0.50579   0.22813   0.00000  Uiso   1.00
Cu216  Cu    0.24500   0.49421   0.10521   0.00000  Uiso   1.00
H217   H     0.44554   0.37918   0.15708   0.00000  Uiso   1.00
H218   H     0.14270   0.40891   0.08410   0.00000  Uiso   1.00
H219   H     0.08331   0.39729   0.06675   0.00000  Uiso   1.00
H220   H     0.08745   0.64904   0.10997   0.00000  Uiso   1.00
H221   H     0.11292   0.65127   0.04147   0.00000  Uiso   1.00
H222   H     0.14577   0.66379   0.11629   0.00000  Uiso   1.00
H223   H     0.38806   0.37367   0.06211   0.00000  Uiso   1.00
H224   H     0.37041   0.43560   0.06117   0.00000  Uiso   1.00
H225   H     0.33115   0.38580   0.07300   0.00000  Uiso   1.00
H226   H     0.11906   0.62689   0.26497   0.00000  Uiso   1.00
H227   H     0.15852   0.65870   0.22635   0.00000  Uiso   1.00
H228   H     0.05444   0.63353   0.20233   0.00000  Uiso   1.00
H229   H     0.17110   0.60061   0.24623   0.00000  Uiso   1.00
H230   H     0.02765   0.66194   0.04801   0.00000  Uiso   1.00
H231   H     0.47616   0.35245   0.06441   0.00000  Uiso   1.00
H232   H     0.49151   0.63008   0.08953   0.00000  Uiso   1.00
H233   H     0.01033   0.34614   0.28631   0.00000  Uiso   1.00
H234   H     0.45913   0.64039   0.29527   0.00000  Uiso   1.00
H235   H     0.45702   0.36844   0.27712   0.00000  Uiso   1.00
H236   H     0.22574   0.64606   0.32975   0.00000  Uiso   1.00
H237   H     0.19511   0.34576   0.05214   0.00000  Uiso   1.00
H238   H     0.17582   0.59102   0.08249   0.00000  Uiso   1.00
H239   H     0.21463   0.45939   0.31665   0.00000  Uiso   1.00
H240   H     0.15423   0.59308   0.00729   0.00000  Uiso   1.00
H241   H     0.20230   0.56386   0.01655   0.00000  Uiso   1.00
H242   H     0.32591   0.65353   0.24014   0.00000  Uiso   1.00
H243   H     0.30846   0.33894   0.31426   0.00000  Uiso   1.00
H244   H     0.37011   0.39948   0.28959   0.00000  Uiso   1.00
H245   H     0.33248   0.41212   0.23126   0.00000  Uiso   1.00
H246   H     0.32055   0.43057   0.30912   0.00000  Uiso   1.00
H247   H     0.28562   0.54021   0.01624   0.00000  Uiso   1.00
H248   H     0.39446   0.56618   0.07859   0.00000  Uiso   1.00
H249   H     0.41660   0.63166   0.10869   0.00000  Uiso   1.00
H250   H     0.34070   0.65332   0.13032   0.00000  Uiso   1.00
H251   H     0.34358   0.62401   0.05003   0.00000  Uiso   1.00
H252   H     0.32027   0.58776   0.10089   0.00000  Uiso   1.00
N253   N     0.23745   0.48547   0.01284   0.00000  Uiso   1.00
N254   N     0.26256   0.51453   0.32049   0.00000  Uiso   1.00
O255   O     0.25326   0.42871   0.20659   0.00000  Uiso   1.00
O256   O     0.10729   0.41208   0.16009   0.00000  Uiso   1.00
O257   O     0.37595   0.41422   0.14687   0.00000  Uiso   1.00
O258   O     0.12419   0.59333   0.17320   0.00000  Uiso   1.00
O259   O     0.02716   0.36405   0.13913   0.00000  Uiso   1.00
O260   O     0.47075   0.64542   0.20663   0.00000  Uiso   1.00
O261   O     0.25279   0.64933   0.08288   0.00000  Uiso   1.00
O262   O     0.26335   0.35138   0.24835   0.00000  Uiso   1.00
O263   O     0.24675   0.57129   0.12674   0.00000  Uiso   1.00
O264   O     0.24480   0.41892   0.10279   0.00000  Uiso   1.00
O265   O     0.25520   0.58108   0.23055   0.00000  Uiso   1.00
O266   O     0.18936   0.50488   0.21857   0.00000  Uiso   1.00
O267   O     0.31065   0.49512   0.11476   0.00000  Uiso   1.00
O268   O     0.18090   0.49510   0.11477   0.00000  Uiso   1.00
O269   O     0.31910   0.50490   0.21857   0.00000  Uiso   1.00
O270   O     0.39250   0.59596   0.17440   0.00000  Uiso   1.00
C271   C     0.74849   0.40004   0.15113   0.00000  Uiso   1.00
C272   C     0.58841   0.45711   0.16473   0.00000  Uiso   1.00
C273   C     0.88424   0.50560   0.16800   0.00000  Uiso   1.00
C274   C     0.61628   0.50299   0.17044   0.00000  Uiso   1.00
C275   C     0.90305   0.45992   0.16317   0.00000  Uiso   1.00
C276   C     0.59824   0.54997   0.17934   0.00000  Uiso   1.00
C277   C     0.94922   0.46017   0.16894   0.00000  Uiso   1.00
C278   C     0.55216   0.55109   0.18442   0.00000  Uiso   1.00
C279   C     0.97738   0.50616   0.17784   0.00000  Uiso   1.00
C280   C     0.52398   0.50495   0.17740   0.00000  Uiso   1.00
C281   C     0.95876   0.55293   0.18468   0.00000  Uiso   1.00
C282   C     0.75195   0.59970   0.18166   0.00000  Uiso   1.00
C283   C     0.54186   0.45739   0.16643   0.00000  Uiso   1.00
C284   C     0.96720   0.41422   0.16208   0.00000  Uiso   1.00
C285   C     0.53354   0.59759   0.19541   0.00000  Uiso   1.00
C286   C     0.89048   0.60160   0.11322   0.00000  Uiso   1.00
C287   C     0.84598   0.61811   0.09732   0.00000  Uiso   1.00
C288   C     0.61164   0.39166   0.09814   0.00000  Uiso   1.00
C289   C     0.61465   0.33525   0.09065   0.00000  Uiso   1.00
C290   C     0.86638   0.40220   0.08303   0.00000  Uiso   1.00
C291   C     0.64373   0.62052   0.23070   0.00000  Uiso   1.00
C292   C     0.50422   0.33504   0.08345   0.00000  Uiso   1.00
C293   C     0.51228   0.41159   0.15554   0.00000  Uiso   1.00
C294   C     0.97483   0.33384   0.26939   0.00000  Uiso   1.00
C295   C     0.71448   0.64608   0.04201   0.00000  Uiso   1.00
C296   C     0.68501   0.59587   0.03729   0.00000  Uiso   1.00
C297   C     0.80819   0.34930   0.26940   0.00000  Uiso   1.00
C298   C     0.83455   0.40121   0.27563   0.00000  Uiso   1.00
C299   C     0.98758   0.59888   0.19733   0.00000  Uiso   1.00
C300   C     0.74830   0.34409   0.14136   0.00000  Uiso   1.00
C301   C     0.75442   0.65534   0.18961   0.00000  Uiso   1.00
C302   C     0.66462   0.50147   0.16772   0.00000  Uiso   1.00
C303   C     0.83561   0.50385   0.16682   0.00000  Uiso   1.00
C304   C     0.91178   0.55217   0.17762   0.00000  Uiso   1.00
Cu305  Cu    0.75501   0.50579   0.22813   0.00000  Uiso   1.00
Cu306  Cu    0.74500   0.49421   0.10521   0.00000  Uiso   1.00
H307   H     0.94554   0.37918   0.15708   0.00000  Uiso   1.00
H308   H     0.64270   0.40891   0.08410   0.00000  Uiso   1.00
H309   H     0.58331   0.39729   0.06675   0.00000  Uiso   1.00
H310   H     0.58745   0.64904   0.10997   0.00000  Uiso   1.00
H311   H     0.61292   0.65127   0.04147   0.00000  Uiso   1.00
H312   H     0.64577   0.66379   0.11629   0.00000  Uiso   1.00
H313   H     0.88806   0.37367   0.06211   0.00000  Uiso   1.00
H314   H     0.87041   0.43560   0.06117   0.00000  Uiso   1.00
H315   H     0.83115   0.38580   0.07300   0.00000  Uiso   1.00
H316   H     0.61906   0.62689   0.26497   0.00000  Uiso   1.00
H317   H     0.65852   0.65870   0.22635   0.00000  Uiso   1.00
H318   H     0.55444   0.63353   0.20233   0.00000  Uiso   1.00
H319   H     0.67110   0.60061   0.24623   0.00000  Uiso   1.00
H320   H     0.52765   0.66194   0.04801   0.00000  Uiso   1.00
H321   H     0.97616   0.35245   0.06441   0.00000  Uiso   1.00
H322   H     0.99151   0.63008   0.08953   0.00000  Uiso   1.00
H323   H     0.51033   0.34614   0.28631   0.00000  Uiso   1.00
H324   H     0.95913   0.64039   0.29527   0.00000  Uiso   1.00
H325   H     0.95702   0.36844   0.27712   0.00000  Uiso   1.00
H326   H     0.72574   0.64606   0.32975   0.00000  Uiso   1.00
H327   H     0.69511   0.34576   0.05214   0.00000  Uiso   1.00
H328   H     0.67582   0.59102   0.08249   0.00000  Uiso   1.00
H329   H     0.71463   0.45939   0.31665   0.00000  Uiso   1.00
H330   H     0.65423   0.59308   0.00729   0.00000  Uiso   1.00
H331   H     0.70230   0.56386   0.01655   0.00000  Uiso   1.00
H332   H     0.82591   0.65353   0.24014   0.00000  Uiso   1.00
H333   H     0.80846   0.33894   0.31426   0.00000  Uiso   1.00
H334   H     0.87011   0.39948   0.28959   0.00000  Uiso   1.00
H335   H     0.83248   0.41212   0.23126   0.00000  Uiso   1.00
H336   H     0.82055   0.43057   0.30912   0.00000  Uiso   1.00
H337   H     0.78562   0.54021   0.01624   0.00000  Uiso   1.00
H338   H     0.89446   0.56618   0.07859   0.00000  Uiso   1.00
H339   H     0.91660   0.63166   0.10869   0.00000  Uiso   1.00
H340   H     0.84070   0.65332   0.13032   0.00000  Uiso   1.00
H341   H     0.84358   0.62401   0.05003   0.00000  Uiso   1.00
H342   H     0.82027   0.58776   0.10089   0.00000  Uiso   1.00
N343   N     0.73745   0.48547   0.01284   0.00000  Uiso   1.00
N344   N     0.76256   0.51453   0.32049   0.00000  Uiso   1.00
O345   O     0.75326   0.42871   0.20659   0.00000  Uiso   1.00
O346   O     0.60729   0.41208   0.16009   0.00000  Uiso   1.00
O347   O     0.87595   0.41422   0.14687   0.00000  Uiso   1.00
O348   O     0.62419   0.59333   0.17320   0.00000  Uiso   1.00
O349   O     0.52716   0.36405   0.13913   0.00000  Uiso   1.00
O350   O     0.97075   0.64542   0.20663   0.00000  Uiso   1.00
O351   O     0.75279   0.64933   0.08288   0.00000  Uiso   1.00
O352   O     0.76335   0.35138   0.24835   0.00000  Uiso   1.00
O353   O     0.74675   0.57129   0.12674   0.00000  Uiso   1.00
O354   O     0.74480   0.41892   0.10279   0.00000  Uiso   1.00
O355   O     0.75520   0.58108   0.23055   0.00000  Uiso   1.00
O356   O     0.68936   0.50488   0.21857   0.00000  Uiso   1.00
O357   O     0.81065   0.49512   0.11476   0.00000  Uiso   1.00
O358   O     0.68090   0.49510   0.11477   0.00000  Uiso   1.00
O359   O     0.81910   0.50490   0.21857   0.00000  Uiso   1.00
O360   O     0.89250   0.59596   0.17440   0.00000  Uiso   1.00
C361   C     0.24849   0.73337   0.15113   0.00000  Uiso   1.00
C362   C     0.08841   0.79045   0.16473   0.00000  Uiso   1.00
C363   C     0.38424   0.83893   0.16800   0.00000  Uiso   1.00
C364   C     0.11628   0.83632   0.17044   0.00000  Uiso   1.00
C365   C     0.40305   0.79325   0.16317   0.00000  Uiso   1.00
C366   C     0.09824   0.88330   0.17934   0.00000  Uiso   1.00
C367   C     0.44922   0.79351   0.16894   0.00000  Uiso   1.00
C368   C     0.05216   0.88443   0.18442   0.00000  Uiso   1.00
C369   C     0.47738   0.83949   0.17784   0.00000  Uiso   1.00
C370   C     0.02398   0.83828   0.17740   0.00000  Uiso   1.00
C371   C     0.45876   0.88626   0.18468   0.00000  Uiso   1.00
C372   C     0.25195   0.93304   0.18166   0.00000  Uiso   1.00
C373   C     0.04186   0.79072   0.16643   0.00000  Uiso   1.00
C374   C     0.46720   0.74756   0.16208   0.00000  Uiso   1.00
C375   C     0.03354   0.93092   0.19541   0.00000  Uiso   1.00
C376   C     0.39048   0.93494   0.11322   0.00000  Uiso   1.00
C377   C     0.34598   0.95144   0.09732   0.00000  Uiso   1.00
C378   C     0.11164   0.72499   0.09814   0.00000  Uiso   1.00
C379   C     0.11465   0.66858   0.09065   0.00000  Uiso   1.00
C380   C     0.36638   0.73554   0.08303   0.00000  Uiso   1.00
C381   C     0.14373   0.95385   0.23070   0.00000  Uiso   1.00
C382   C     0.00422   0.66838   0.08345   0.00000  Uiso   1.00
C383   C     0.01228   0.74492   0.15554   0.00000  Uiso   1.00
C384   C     0.47483   0.66717   0.26939   0.00000  Uiso   1.00
C385   C     0.21448   0.97941   0.04201   0.00000  Uiso   1.00
C386   C     0.18501   0.92920   0.03729   0.00000  Uiso   1.00
C387   C     0.30819   0.68264   0.26940   0.00000  Uiso   1.00
C388   C     0.33455   0.73454   0.27563   0.00000  Uiso   1.00
C389   C     0.48758   0.93222   0.19733   0.00000  Uiso   1.00
C390   C     0.24830   0.67742   0.14136   0.00000  Uiso   1.00
C391   C     0.25442   0.98867   0.18961   0.00000  Uiso   1.00
C392   C     0.16462   0.83481   0.16772   0.00000  Uiso   1.00
C393   C     0.33561   0.83718   0.16682   0.00000  Uiso   1.00
C394   C     0.41178   0.88551   0.17762   0.00000  Uiso   1.00
Cu395  Cu    0.25501   0.83913   0.22813   0.00000  Uiso   1.00
Cu396  Cu    0.24500   0.82754   0.10521   0.00000  Uiso   1.00
H397   H     0.44554   0.71252   0.15708   0.00000  Uiso   1.00
H398   H     0.14270   0.74224   0.08410   0.00000  Uiso   1.00
H399   H     0.08331   0.73062   0.06675   0.00000  Uiso   1.00
H400   H     0.08745   0.98238   0.10997   0.00000  Uiso   1.00
H401   H     0.11292   0.98460   0.04147   0.00000  Uiso   1.00
H402   H     0.14577   0.99713   0.11629   0.00000  Uiso   1.00
H403   H     0.38806   0.70701   0.06211   0.00000  Uiso   1.00
H404   H     0.37041   0.76894   0.06117   0.00000  Uiso   1.00
H405   H     0.33115   0.71913   0.07300   0.00000  Uiso   1.00
H406   H     0.11906   0.96022   0.26497   0.00000  Uiso   1.00
H407   H     0.15852   0.99203   0.22635   0.00000  Uiso   1.00
H408   H     0.05444   0.96686   0.20233   0.00000  Uiso   1.00
H409   H     0.17110   0.93394   0.24623   0.00000  Uiso   1.00
H410   H     0.02765   0.99528   0.04801   0.00000  Uiso   1.00
H411   H     0.47616   0.68578   0.06441   0.00000  Uiso   1.00
H412   H     0.49151   0.96341   0.08953   0.00000  Uiso   1.00
H413   H     0.01033   0.67948   0.28631   0.00000  Uiso   1.00
H414   H     0.45913   0.97372   0.29527   0.00000  Uiso   1.00
H415   H     0.45702   0.70178   0.27712   0.00000  Uiso   1.00
H416   H     0.22574   0.97940   0.32975   0.00000  Uiso   1.00
H417   H     0.19511   0.67910   0.05214   0.00000  Uiso   1.00
H418   H     0.17582   0.92436   0.08249   0.00000  Uiso   1.00
H419   H     0.21463   0.79273   0.31665   0.00000  Uiso   1.00
H420   H     0.15423   0.92642   0.00729   0.00000  Uiso   1.00
H421   H     0.20230   0.89719   0.01655   0.00000  Uiso   1.00
H422   H     0.32591   0.98687   0.24014   0.00000  Uiso   1.00
H423   H     0.30846   0.67227   0.31426   0.00000  Uiso   1.00
H424   H     0.37011   0.73281   0.28959   0.00000  Uiso   1.00
H425   H     0.33248   0.74546   0.23126   0.00000  Uiso   1.00
H426   H     0.32055   0.76390   0.30912   0.00000  Uiso   1.00
H427   H     0.28562   0.87354   0.01624   0.00000  Uiso   1.00
H428   H     0.39446   0.89951   0.07859   0.00000  Uiso   1.00
H429   H     0.41660   0.96499   0.10869   0.00000  Uiso   1.00
H430   H     0.34070   0.98665   0.13032   0.00000  Uiso   1.00
H431   H     0.34358   0.95734   0.05003   0.00000  Uiso   1.00
H432   H     0.32027   0.92109   0.10089   0.00000  Uiso   1.00
N433   N     0.23745   0.81881   0.01284   0.00000  Uiso   1.00
N434   N     0.26256   0.84786   0.32049   0.00000  Uiso   1.00
O435   O     0.25326   0.76204   0.20659   0.00000  Uiso   1.00
O436   O     0.10729   0.74542   0.16009   0.00000  Uiso   1.00
O437   O     0.37595   0.74755   0.14687   0.00000  Uiso   1.00
O438   O     0.12419   0.92666   0.17320   0.00000  Uiso   1.00
O439   O     0.02716   0.69738   0.13913   0.00000  Uiso   1.00
O440   O     0.47075   0.97876   0.20663   0.00000  Uiso   1.00
O441   O     0.25279   0.98266   0.08288   0.00000  Uiso   1.00
O442   O     0.26335   0.68472   0.24835   0.00000  Uiso   1.00
O443   O     0.24675   0.90462   0.12674   0.00000  Uiso   1.00
O444   O     0.24480   0.75226   0.10279   0.00000  Uiso   1.00
O445   O     0.25520   0.91441   0.23055   0.00000  Uiso   1.00
O446   O     0.18936   0.83821   0.21857   0.00000  Uiso   1.00
O447   O     0.31065   0.82845   0.11476   0.00000  Uiso   1.00
O448   O     0.18090   0.82843   0.11477   0.00000  Uiso   1.00
O449   O     0.31910   0.83824   0.21857   0.00000  Uiso   1.00
O450   O     0.39250   0.92929   0.17440   0.00000  Uiso   1.00
C451   C     0.74849   0.73337   0.15113   0.00000  Uiso   1.00
C452   C     0.58841   0.79045   0.16473   0.00000  Uiso   1.00
C453   C     0.88424   0.83893   0.16800   0.00000  Uiso   1.00
C454   C     0.61628   0.83632   0.17044   0.00000  Uiso   1.00
C455   C     0.90305   0.79325   0.16317   0.00000  Uiso   1.00
C456   C     0.59824   0.88330   0.17934   0.00000  Uiso   1.00
C457   C     0.94922   0.79351   0.16894   0.00000  Uiso   1.00
C458   C     0.55216   0.88443   0.18442   0.00000  Uiso   1.00
C459   C     0.97738   0.83949   0.17784   0.00000  Uiso   1.00
C460   C     0.52398   0.83828   0.17740   0.00000  Uiso   1.00
C461   C     0.95876   0.88626   0.18468   0.00000  Uiso   1.00
C462   C     0.75195   0.93304   0.18166   0.00000  Uiso   1.00
C463   C     0.54186   0.79072   0.16643   0.00000  Uiso   1.00
C464   C     0.96720   0.74756   0.16208   0.00000  Uiso   1.00
C465   C     0.53354   0.93092   0.19541   0.00000  Uiso   1.00
C466   C     0.89048   0.93494   0.11322   0.00000  Uiso   1.00
C467   C     0.84598   0.95144   0.09732   0.00000  Uiso   1.00
C468   C     0.61164   0.72499   0.09814   0.00000  Uiso   1.00
C469   C     0.61465   0.66858   0.09065   0.00000  Uiso   1.00
C470   C     0.86638   0.73554   0.08303   0.00000  Uiso   1.00
C471   C     0.64373   0.95385   0.23070   0.00000  Uiso   1.00
C472   C     0.50422   0.66838   0.08345   0.00000  Uiso   1.00
C473   C     0.51228   0.74492   0.15554   0.00000  Uiso   1.00
C474   C     0.97483   0.66717   0.26939   0.00000  Uiso   1.00
C475   C     0.71448   0.97941   0.04201   0.00000  Uiso   1.00
C476   C     0.68501   0.92920   0.03729   0.00000  Uiso   1.00
C477   C     0.80819   0.68264   0.26940   0.00000  Uiso   1.00
C478   C     0.83455   0.73454   0.27563   0.00000  Uiso   1.00
C479   C     0.98758   0.93222   0.19733   0.00000  Uiso   1.00
C480   C     0.74830   0.67742   0.14136   0.00000  Uiso   1.00
C481   C     0.75442   0.98867   0.18961   0.00000  Uiso   1.00
C482   C     0.66462   0.83481   0.16772   0.00000  Uiso   1.00
C483   C     0.83561   0.83718   0.16682   0.00000  Uiso   1.00
C484   C     0.91178   0.88551   0.17762   0.00000  Uiso   1.00
Cu485  Cu    0.75501   0.83913   0.22813   0.00000  Uiso   1.00
Cu486  Cu    0.74500   0.82754   0.10521   0.00000  Uiso   1.00
H487   H     0.94554   0.71252   0.15708   0.00000  Uiso   1.00
H488   H     0.64270   0.74224   0.08410   0.00000  Uiso   1.00
H489   H     0.58331   0.73062   0.06675   0.00000  Uiso   1.00
H490   H     0.58745   0.98238   0.10997   0.00000  Uiso   1.00
H491   H     0.61292   0.98460   0.04147   0.00000  Uiso   1.00
H492   H     0.64577   0.99713   0.11629   0.00000  Uiso   1.00
H493   H     0.88806   0.70701   0.06211   0.00000  Uiso   1.00
H494   H     0.87041   0.76894   0.06117   0.00000  Uiso   1.00
H495   H     0.83115   0.71913   0.07300   0.00000  Uiso   1.00
H496   H     0.61906   0.96022   0.26497   0.00000  Uiso   1.00
H497   H     0.65852   0.99203   0.22635   0.00000  Uiso   1.00
H498   H     0.55444   0.96686   0.20233   0.00000  Uiso   1.00
H499   H     0.67110   0.93394   0.24623   0.00000  Uiso   1.00
H500   H     0.52765   0.99528   0.04801   0.00000  Uiso   1.00
H501   H     0.97616   0.68578   0.06441   0.00000  Uiso   1.00
H502   H     0.99151   0.96341   0.08953   0.00000  Uiso   1.00
H503   H     0.51033   0.67948   0.28631   0.00000  Uiso   1.00
H504   H     0.95913   0.97372   0.29527   0.00000  Uiso   1.00
H505   H     0.95702   0.70178   0.27712   0.00000  Uiso   1.00
H506   H     0.72574   0.97940   0.32975   0.00000  Uiso   1.00
H507   H     0.69511   0.67910   0.05214   0.00000  Uiso   1.00
H508   H     0.67582   0.92436   0.08249   0.00000  Uiso   1.00
H509   H     0.71463   0.79273   0.31665   0.00000  Uiso   1.00
H510   H     0.65423   0.92642   0.00729   0.00000  Uiso   1.00
H511   H     0.70230   0.89719   0.01655   0.00000  Uiso   1.00
H512   H     0.82591   0.98687   0.24014   0.00000  Uiso   1.00
H513   H     0.80846   0.67227   0.31426   0.00000  Uiso   1.00
H514   H     0.87011   0.73281   0.28959   0.00000  Uiso   1.00
H515   H     0.83248   0.74546   0.23126   0.00000  Uiso   1.00
H516   H     0.82055   0.76390   0.30912   0.00000  Uiso   1.00
H517   H     0.78562   0.87354   0.01624   0.00000  Uiso   1.00
H518   H     0.89446   0.89951   0.07859   0.00000  Uiso   1.00
H519   H     0.91660   0.96499   0.10869   0.00000  Uiso   1.00
H520   H     0.84070   0.98665   0.13032   0.00000  Uiso   1.00
H521   H     0.84358   0.95734   0.05003   0.00000  Uiso   1.00
H522   H     0.82027   0.92109   0.10089   0.00000  Uiso   1.00
N523   N     0.73745   0.81881   0.01284   0.00000  Uiso   1.00
N524   N     0.76256   0.84786   0.32049   0.00000  Uiso   1.00
O525   O     0.75326   0.76204   0.20659   0.00000  Uiso   1.00
O526   O     0.60729   0.74542   0.16009   0.00000  Uiso   1.00
O527   O     0.87595   0.74755   0.14687   0.00000  Uiso   1.00
O528   O     0.62419   0.92666   0.17320   0.00000  Uiso   1.00
O529   O     0.52716   0.69738   0.13913   0.00000  Uiso   1.00
O530   O     0.97075   0.97876   0.20663   0.00000  Uiso   1.00
O531   O     0.75279   0.98266   0.08288   0.00000  Uiso   1.00
O532   O     0.76335   0.68472   0.24835   0.00000  Uiso   1.00
O533   O     0.74675   0.90462   0.12674   0.00000  Uiso   1.00
O534   O     0.74480   0.75226   0.10279   0.00000  Uiso   1.00
O535   O     0.75520   0.91441   0.23055   0.00000  Uiso   1.00
O536   O     0.68936   0.83821   0.21857   0.00000  Uiso   1.00
O537   O     0.81065   0.82845   0.11476   0.00000  Uiso   1.00
O538   O     0.68090   0.82843   0.11477   0.00000  Uiso   1.00
O539   O     0.81910   0.83824   0.21857   0.00000  Uiso   1.00
O540   O     0.89250   0.92929   0.17440   0.00000  Uiso   1.00
C541   C     0.24849   0.06671   0.48446   0.00000  Uiso   1.00
C542   C     0.08841   0.12378   0.49807   0.00000  Uiso   1.00
C543   C     0.38424   0.17226   0.50133   0.00000  Uiso   1.00
C544   C     0.11628   0.16966   0.50377   0.00000  Uiso   1.00
C545   C     0.40305   0.12659   0.49651   0.00000  Uiso   1.00
C546   C     0.09824   0.21664   0.51267   0.00000  Uiso   1.00
C547   C     0.44922   0.12684   0.50227   0.00000  Uiso   1.00
C548   C     0.05216   0.21776   0.51776   0.00000  Uiso   1.00
C549   C     0.47738   0.17283   0.51117   0.00000  Uiso   1.00
C550   C     0.02398   0.17162   0.51073   0.00000  Uiso   1.00
C551   C     0.45876   0.21959   0.51801   0.00000  Uiso   1.00
C552   C     0.25195   0.26637   0.51500   0.00000  Uiso   1.00
C553   C     0.04186   0.12406   0.49976   0.00000  Uiso   1.00
C554   C     0.46720   0.08089   0.49541   0.00000  Uiso   1.00
C555   C     0.03354   0.26425   0.52874   0.00000  Uiso   1.00
C556   C     0.39048   0.26827   0.44656   0.00000  Uiso   1.00
C557   C     0.34598   0.28477   0.43065   0.00000  Uiso   1.00
C558   C     0.11164   0.05832   0.43147   0.00000  Uiso   1.00
C559   C     0.11465   0.00191   0.42399   0.00000  Uiso   1.00
C560   C     0.36638   0.06887   0.41636   0.00000  Uiso   1.00
C561   C     0.14373   0.28718   0.56403   0.00000  Uiso   1.00
C562   C     0.00422   0.00171   0.41679   0.00000  Uiso   1.00
C563   C     0.01228   0.07826   0.48887   0.00000  Uiso   1.00
C564   C     0.47483   0.00050   0.60273   0.00000  Uiso   1.00
C565   C     0.21448   0.31275   0.37534   0.00000  Uiso   1.00
C566   C     0.18501   0.26253   0.37063   0.00000  Uiso   1.00
C567   C     0.30819   0.01597   0.60274   0.00000  Uiso   1.00
C568   C     0.33455   0.06788   0.60896   0.00000  Uiso   1.00
C569   C     0.48758   0.26555   0.53066   0.00000  Uiso   1.00
C570   C     0.24830   0.01076   0.47469   0.00000  Uiso   1.00
C571   C     0.25442   0.32200   0.52294   0.00000  Uiso   1.00
C572   C     0.16462   0.16814   0.50105   0.00000  Uiso   1.00
C573   C     0.33561   0.17052   0.50015   0.00000  Uiso   1.00
C574   C     0.41178   0.21884   0.51095   0.00000  Uiso   1.00
Cu575  Cu    0.25501   0.17246   0.56146   0.00000  Uiso   1.00
Cu576  Cu    0.24500   0.16087   0.43854   0.00000  Uiso   1.00
H577   H     0.44554   0.04585   0.49041   0.00000  Uiso   1.00
H578   H     0.14270   0.07558   0.41744   0.00000  Uiso   1.00
H579   H     0.08331   0.06395   0.40008   0.00000  Uiso   1.00
H580   H     0.08745   0.31571   0.44330   0.00000  Uiso   1.00
H581   H     0.11292   0.31793   0.37480   0.00000  Uiso   1.00
H582   H     0.14577   0.33046   0.44962   0.00000  Uiso   1.00
H583   H     0.38806   0.04034   0.39544   0.00000  Uiso   1.00
H584   H     0.37041   0.10227   0.39451   0.00000  Uiso   1.00
H585   H     0.33115   0.05247   0.40633   0.00000  Uiso   1.00
H586   H     0.11906   0.29356   0.59830   0.00000  Uiso   1.00
H587   H     0.15852   0.32537   0.55968   0.00000  Uiso   1.00
H588   H     0.05444   0.30019   0.53566   0.00000  Uiso   1.00
H589   H     0.17110   0.26728   0.57956   0.00000  Uiso   1.00
H590   H     0.02765   0.32861   0.38134   0.00000  Uiso   1.00
H591   H     0.47616   0.01912   0.39774   0.00000  Uiso   1.00
H592   H     0.49151   0.29675   0.42286   0.00000  Uiso   1.00
H593   H     0.01033   0.01281   0.61964   0.00000  Uiso   1.00
H594   H     0.45913   0.30705   0.62861   0.00000  Uiso   1.00
H595   H     0.45702   0.03511   0.61046   0.00000  Uiso   1.00
H596   H     0.22574   0.31273   0.66308   0.00000  Uiso   1.00
H597   H     0.19511   0.01243   0.38547   0.00000  Uiso   1.00
H598   H     0.17582   0.25769   0.41582   0.00000  Uiso   1.00
H599   H     0.21463   0.12606   0.64998   0.00000  Uiso   1.00
H600   H     0.15423   0.25975   0.34062   0.00000  Uiso   1.00
H601   H     0.20230   0.23052   0.34989   0.00000  Uiso   1.00
H602   H     0.32591   0.32020   0.57347   0.00000  Uiso   1.00
H603   H     0.30846   0.00561   0.64759   0.00000  Uiso   1.00
H604   H     0.37011   0.06614   0.62292   0.00000  Uiso   1.00
H605   H     0.33248   0.07879   0.56459   0.00000  Uiso   1.00
H606   H     0.32055   0.09723   0.64245   0.00000  Uiso   1.00
H607   H     0.28562   0.20687   0.34958   0.00000  Uiso   1.00
H608   H     0.39446   0.23284   0.41193   0.00000  Uiso   1.00
H609   H     0.41660   0.29833   0.44202   0.00000  Uiso   1.00
H610   H     0.34070   0.31998   0.46365   0.00000  Uiso   1.00
H611   H     0.34358   0.29068   0.38337   0.00000  Uiso   1.00
H612   H     0.32027   0.25443   0.43423   0.00000  Uiso   1.00
N613   N     0.23745   0.15214   0.34617   0.00000  Uiso   1.00
N614   N     0.26256   0.18119   0.65383   0.00000  Uiso   1.00
O615   O     0.25326   0.09538   0.53992   0.00000  Uiso   1.00
O616   O     0.10729   0.07875   0.49342   0.00000  Uiso   1.00
O617   O     0.37595   0.08088   0.48020   0.00000  Uiso   1.00
O618   O     0.12419   0.25999   0.50653   0.00000  Uiso   1.00
O619   O     0.02716   0.03071   0.47246   0.00000  Uiso   1.00
O620   O     0.47075   0.31209   0.53996   0.00000  Uiso   1.00
O621   O     0.25279   0.31599   0.41622   0.00000  Uiso   1.00
O622   O     0.26335   0.01805   0.58168   0.00000  Uiso   1.00
O623   O     0.24675   0.23796   0.46008   0.00000  Uiso   1.00
O624   O     0.24480   0.08559   0.43612   0.00000  Uiso   1.00
O625   O     0.25520   0.24774   0.56388   0.00000  Uiso   1.00
O626   O     0.18936   0.17155   0.55191   0.00000  Uiso   1.00
O627   O     0.31065   0.16179   0.44809   0.00000  Uiso   1.00
O628   O     0.18090   0.16176   0.44810   0.00000  Uiso   1.00
O629   O     0.31910   0.17157   0.55190   0.00000  Uiso   1.00
O630   O     0.39250   0.26263   0.50773   0.00000  Uiso   1.00
C631   C     0.74849   0.06671   0.48446   0.00000  Uiso   1.00
C632   C     0.58841   0.12378   0.49807   0.00000  Uiso   1.00
C633   C     0.88424   0.17226   0.50133   0.00000  Uiso   1.00
C634   C     0.61628   0.16966   0.50377   0.00000  Uiso   1.00
C635   C     0.90305   0.12659   0.49651   0.00000  Uiso   1.00
C636   C     0.59824   0.21664   0.51267   0.00000  Uiso   1.00
C637   C     0.94922   0.12684   0.50227   0.00000  Uiso   1.00
C638   C     0.55216   0.21776   0.51776   0.00000  Uiso   1.00
C639   C     0.97738   0.17283   0.51117   0.00000  Uiso   1.00
C640   C     0.52398   0.17162   0.51073   0.00000  Uiso   1.00
C641   C     0.95876   0.21959   0.51801   0.00000  Uiso   1.00
C642   C     0.75195   0.26637   0.51500   0.00000  Uiso   1.00
C643   C     0.54186   0.12406   0.49976   0.00000  Uiso   1.00
C644   C     0.96720   0.08089   0.49541   0.00000  Uiso   1.00
C645   C     0.53354   0.26425   0.52874   0.00000  Uiso   1.00
C646   C     0.89048   0.26827   0.44656   0.00000  Uiso   1.00
C647   C     0.84598   0.28477   0.43065   0.00000  Uiso   1.00
C648   C     0.61164   0.05832   0.43147   0.00000  Uiso   1.00
C649   C     0.61465   0.00191   0.42399   0.00000  Uiso   1.00
C650   C     0.86638   0.06887   0.41636   0.00000  Uiso   1.00
C651   C     0.64373   0.28718   0.56403   0.00000  Uiso   1.00
C652   C     0.50422   0.00171   0.41679   0.00000  Uiso   1.00
C653   C     0.51228   0.07826   0.48887   0.00000  Uiso   1.00
C654   C     0.97483   0.00050   0.60273   0.00000  Uiso   1.00
C655   C     0.71448   0.31275   0.37534   0.00000  Uiso   1.00
C656   C     0.68501   0.26253   0.37063   0.00000  Uiso   1.00
C657   C     0.80819   0.01597   0.60274   0.00000  Uiso   1.00
C658   C     0.83455   0.06788   0.60896   0.00000  Uiso   1.00
C659   C     0.98758   0.26555   0.53066   0.00000  Uiso   1.00
C660   C     0.74830   0.01076   0.47469   0.00000  Uiso   1.00
C661   C     0.75442   0.32200   0.52294   0.00000  Uiso   1.00
C662   C     0.66462   0.16814   0.50105   0.00000  Uiso   1.00
C663   C     0.83561   0.17052   0.50015   0.00000  Uiso   1.00
C664   C     0.91178   0.21884   0.51095   0.00000  Uiso   1.00
Cu665  Cu    0.75501   0.17246   0.56146   0.00000  Uiso   1.00
Cu666  Cu    0.74500   0.16087   0.43854   0.00000  Uiso   1.00
H667   H     0.94554   0.04585   0.49041   0.00000  Uiso   1.00
H668   H     0.64270   0.07558   0.41744   0.00000  Uiso   1.00
H669   H     0.58331   0.06395   0.40008   0.00000  Uiso   1.00
H670   H     0.58745   0.31571   0.44330   0.00000  Uiso   1.00
H671   H     0.61292   0.31793   0.37480   0.00000  Uiso   1.00
H672   H     0.64577   0.33046   0.44962   0.00000  Uiso   1.00
H673   H     0.88806   0.04034   0.39544   0.00000  Uiso   1.00
H674   H     0.87041   0.10227   0.39451   0.00000  Uiso   1.00
H675   H     0.83115   0.05247   0.40633   0.00000  Uiso   1.00
H676   H     0.61906   0.29356   0.59830   0.00000  Uiso   1.00
H677   H     0.65852   0.32537   0.55968   0.00000  Uiso   1.00
H678   H     0.55444   0.30019   0.53566   0.00000  Uiso   1.00
H679   H     0.67110   0.26728   0.57956   0.00000  Uiso   1.00
H680   H     0.52765   0.32861   0.38134   0.00000  Uiso   1.00
H681   H     0.97616   0.01912   0.39774   0.00000  Uiso   1.00
H682   H     0.99151   0.29675   0.42286   0.00000  Uiso   1.00
H683   H     0.51033   0.01281   0.61964   0.00000  Uiso   1.00
H684   H     0.95913   0.30705   0.62861   0.00000  Uiso   1.00
H685   H     0.95702   0.03511   0.61046   0.00000  Uiso   1.00
H686   H     0.72574   0.31273   0.66308   0.00000  Uiso   1.00
H687   H     0.69511   0.01243   0.38547   0.00000  Uiso   1.00
H688   H     0.67582   0.25769   0.41582   0.00000  Uiso   1.00
H689   H     0.71463   0.12606   0.64998   0.00000  Uiso   1.00
H690   H     0.65423   0.25975   0.34062   0.00000  Uiso   1.00
H691   H     0.70230   0.23052   0.34989   0.00000  Uiso   1.00
H692   H     0.82591   0.32020   0.57347   0.00000  Uiso   1.00
H693   H     0.80846   0.00561   0.64759   0.00000  Uiso   1.00
H694   H     0.87011   0.06614   0.62292   0.00000  Uiso   1.00
H695   H     0.83248   0.07879   0.56459   0.00000  Uiso   1.00
H696   H     0.82055   0.09723   0.64245   0.00000  Uiso   1.00
H697   H     0.78562   0.20687   0.34958   0.00000  Uiso   1.00
H698   H     0.89446   0.23284   0.41193   0.00000  Uiso   1.00
H699   H     0.91660   0.29833   0.44202   0.00000  Uiso   1.00
H700   H     0.84070   0.31998   0.46365   0.00000  Uiso   1.00
H701   H     0.84358   0.29068   0.38337   0.00000  Uiso   1.00
H702   H     0.82027   0.25443   0.43423   0.00000  Uiso   1.00
N703   N     0.73745   0.15214   0.34617   0.00000  Uiso   1.00
N704   N     0.76256   0.18119   0.65383   0.00000  Uiso   1.00
O705   O     0.75326   0.09538   0.53992   0.00000  Uiso   1.00
O706   O     0.60729   0.07875   0.49342   0.00000  Uiso   1.00
O707   O     0.87595   0.08088   0.48020   0.00000  Uiso   1.00
O708   O     0.62419   0.25999   0.50653   0.00000  Uiso   1.00
O709   O     0.52716   0.03071   0.47246   0.00000  Uiso   1.00
O710   O     0.97075   0.31209   0.53996   0.00000  Uiso   1.00
O711   O     0.75279   0.31599   0.41622   0.00000  Uiso   1.00
O712   O     0.76335   0.01805   0.58168   0.00000  Uiso   1.00
O713   O     0.74675   0.23796   0.46008   0.00000  Uiso   1.00
O714   O     0.74480   0.08559   0.43612   0.00000  Uiso   1.00
O715   O     0.75520   0.24774   0.56388   0.00000  Uiso   1.00
O716   O     0.68936   0.17155   0.55191   0.00000  Uiso   1.00
O717   O     0.81065   0.16179   0.44809   0.00000  Uiso   1.00
O718   O     0.68090   0.16176   0.44810   0.00000  Uiso   1.00
O719   O     0.81910   0.17157   0.55190   0.00000  Uiso   1.00
O720   O     0.89250   0.26263   0.50773   0.00000  Uiso   1.00
C721   C     0.24849   0.40004   0.48446   0.00000  Uiso   1.00
C722   C     0.08841   0.45711   0.49807   0.00000  Uiso   1.00
C723   C     0.38424   0.50560   0.50133   0.00000  Uiso   1.00
C724   C     0.11628   0.50299   0.50377   0.00000  Uiso   1.00
C725   C     0.40305   0.45992   0.49651   0.00000  Uiso   1.00
C726   C     0.09824   0.54997   0.51267   0.00000  Uiso   1.00
C727   C     0.44922   0.46017   0.50227   0.00000  Uiso   1.00
C728   C     0.05216   0.55109   0.51776   0.00000  Uiso   1.00
C729   C     0.47738   0.50616   0.51117   0.00000  Uiso   1.00
C730   C     0.02398   0.50495   0.51073   0.00000  Uiso   1.00
C731   C     0.45876   0.55293   0.51801   0.00000  Uiso   1.00
C732   C     0.25195   0.59970   0.51500   0.00000  Uiso   1.00
C733   C     0.04186   0.45739   0.49976   0.00000  Uiso   1.00
C734   C     0.46720   0.41422   0.49541   0.00000  Uiso   1.00
C735   C     0.03354   0.59759   0.52874   0.00000  Uiso   1.00
C736   C     0.39048   0.60160   0.44656   0.00000  Uiso   1.00
C737   C     0.34598   0.61811   0.43065   0.00000  Uiso   1.00
C738   C     0.11164   0.39166   0.43147   0.00000  Uiso   1.00
C739   C     0.11465   0.33525   0.42399   0.00000  Uiso   1.00
C740   C     0.36638   0.40220   0.41636   0.00000  Uiso   1.00
C741   C     0.14373   0.62052   0.56403   0.00000  Uiso   1.00
C742   C     0.00422   0.33504   0.41679   0.00000  Uiso   1.00
C743   C     0.01228   0.41159   0.48887   0.00000  Uiso   1.00
C744   C     0.47483   0.33384   0.60273   0.00000  Uiso   1.00
C745   C     0.21448   0.64608   0.37534   0.00000  Uiso   1.00
C746   C     0.18501   0.59587   0.37063   0.00000  Uiso   1.00
C747   C     0.30819   0.34930   0.60274   0.00000  Uiso   1.00
C748   C     0.33455   0.40121   0.60896   0.00000  Uiso   1.00
C749   C     0.48758   0.59888   0.53066   0.00000  Uiso   1.00
C750   C     0.24830   0.34409   0.47469   0.00000  Uiso   1.00
C751   C     0.25442   0.65534   0.52294   0.00000  Uiso   1.00
C752   C     0.16462   0.50147   0.50105   0.00000  Uiso   1.00
C753   C     0.33561   0.50385   0.50015   0.00000  Uiso   1.00
C754   C     0.41178   0.55217   0.51095   0.00000  Uiso   1.00
Cu755  Cu    0.25501   0.50579   0.56146   0.00000  Uiso   1.00
Cu756  Cu    0.24500   0.49421   0.43854   0.00000  Uiso   1.00
H757   H     0.44554   0.37918   0.49041   0.00000  Uiso   1.00
H758   H     0.14270   0.40891   0.41744   0.00000  Uiso   1.00
H759   H     0.08331   0.39729   0.40008   0.00000  Uiso   1.00
H760   H     0.08745   0.64904   0.44330   0.00000  Uiso   1.00
H761   H     0.11292   0.65127   0.37480   0.00000  Uiso   1.00
H762   H     0.14577   0.66379   0.44962   0.00000  Uiso   1.00
H763   H     0.38806   0.37367   0.39544   0.00000  Uiso   1.00
H764   H     0.37041   0.43560   0.39451   0.00000  Uiso   1.00
H765   H     0.33115   0.38580   0.40633   0.00000  Uiso   1.00
H766   H     0.11906   0.62689   0.59830   0.00000  Uiso   1.00
H767   H     0.15852   0.65870   0.55968   0.00000  Uiso   1.00
H768   H     0.05444   0.63353   0.53566   0.00000  Uiso   1.00
H769   H     0.17110   0.60061   0.57956   0.00000  Uiso   1.00
H770   H     0.02765   0.66194   0.38134   0.00000  Uiso   1.00
H771   H     0.47616   0.35245   0.39774   0.00000  Uiso   1.00
H772   H     0.49151   0.63008   0.42286   0.00000  Uiso   1.00
H773   H     0.01033   0.34614   0.61964   0.00000  Uiso   1.00
H774   H     0.45913   0.64039   0.62861   0.00000  Uiso   1.00
H775   H     0.45702   0.36844   0.61046   0.00000  Uiso   1.00
H776   H     0.22574   0.64606   0.66308   0.00000  Uiso   1.00
H777   H     0.19511   0.34576   0.38547   0.00000  Uiso   1.00
H778   H     0.17582   0.59102   0.41582   0.00000  Uiso   1.00
H779   H     0.21463   0.45939   0.64998   0.00000  Uiso   1.00
H780   H     0.15423   0.59308   0.34062   0.00000  Uiso   1.00
H781   H     0.20230   0.56386   0.34989   0.00000  Uiso   1.00
H782   H     0.32591   0.65353   0.57347   0.00000  Uiso   1.00
H783   H     0.30846   0.33894   0.64759   0.00000  Uiso   1.00
H784   H     0.37011   0.39948   0.62292   0.00000  Uiso   1.00
H785   H     0.33248   0.41212   0.56459   0.00000  Uiso   1.00
H786   H     0.32055   0.43057   0.64245   0.00000  Uiso   1.00
H787   H     0.28562   0.54021   0.34958   0.00000  Uiso   1.00
H788   H     0.39446   0.56618   0.41193   0.00000  Uiso   1.00
H789   H     0.41660   0.63166   0.44202   0.00000  Uiso   1.00
H790   H     0.34070   0.65332   0.46365   0.00000  Uiso   1.00
H791   H     0.34358   0.62401   0.38337   0.00000  Uiso   1.00
H792   H     0.32027   0.58776   0.43423   0.00000  Uiso   1.00
N793   N     0.23745   0.48547   0.34617   0.00000  Uiso   1.00
N794   N     0.26256   0.51453   0.65383   0.00000  Uiso   1.00
O795   O     0.25326   0.42871   0.53992   0.00000  Uiso   1.00
O796   O     0.10729   0.41208   0.49342   0.00000  Uiso   1.00
O797   O     0.37595   0.41422   0.48020   0.00000  Uiso   1.00
O798   O     0.12419   0.59333   0.50653   0.00000  Uiso   1.00
O799   O     0.02716   0.36405   0.47246   0.00000  Uiso   1.00
O800   O     0.47075   0.64542   0.53996   0.00000  Uiso   1.00
O801   O     0.25279   0.64933   0.41622   0.00000  Uiso   1.00
O802   O     0.26335   0.35138   0.58168   0.00000  Uiso   1.00
O803   O     0.24675   0.57129   0.46008   0.00000  Uiso   1.00
O804   O     0.24480   0.41892   0.43612   0.00000  Uiso   1.00
O805   O     0.25520   0.58108   0.56388   0.00000  Uiso   1.00
O806   O     0.18936   0.50488   0.55191   0.00000  Uiso   1.00
O807   O     0.31065   0.49512   0.44809   0.00000  Uiso   1.00
O808   O     0.18090   0.49510   0.44810   0.00000  Uiso   1.00
O809   O     0.31910   0.50490   0.55190   0.00000  Uiso   1.00
O810   O     0.39250   0.59596   0.50773   0.00000  Uiso   1.00
C811   C     0.74849   0.40004   0.48446   0.00000  Uiso   1.00
C812   C     0.58841   0.45711   0.49807   0.00000  Uiso   1.00
C813   C     0.88424   0.50560   0.50133   0.00000  Uiso   1.00
C814   C     0.61628   0.50299   0.50377   0.00000  Uiso   1.00
C815   C     0.90305   0.45992   0.49651   0.00000  Uiso   1.00
C816   C     0.59824   0.54997   0.51267   0.00000  Uiso   1.00
C817   C     0.94922   0.46017   0.50227   0.00000  Uiso   1.00
C818   C     0.55216   0.55109   0.51776   0.00000  Uiso   1.00
C819   C     0.97738   0.50616   0.51117   0.00000  Uiso   1.00
C820   C     0.52398   0.50495   0.51073   0.00000  Uiso   1.00
C821   C     0.95876   0.55293   0.51801   0.00000  Uiso   1.00
C822   C     0.75195   0.59970   0.51500   0.00000  Uiso   1.00
C823   C     0.54186   0.45739   0.49976   0.00000  Uiso   1.00
C824   C     0.96720   0.41422   0.49541   0.00000  Uiso   1.00
C825   C     0.53354   0.59759   0.52874   0.00000  Uiso   1.00
C826   C     0.89048   0.60160   0.44656   0.00000  Uiso   1.00
C827   C     0.84598   0.61811   0.43065   0.00000  Uiso   1.00
C828   C     0.61164   0.39166   0.43147   0.00000  Uiso   1.00
C829   C     0.61465   0.33525   0.42399   0.00000  Uiso   1.00
C830   C     0.86638   0.40220   0.41636   0.00000  Uiso   1.00
C831   C     0.64373   0.62052   0.56403   0.00000  Uiso   1.00
C832   C     0.50422   0.33504   0.41679   0.00000  Uiso   1.00
C833   C     0.51228   0.41159   0.48887   0.00000  Uiso   1.00
C834   C     0.97483   0.33384   0.60273   0.00000  Uiso   1.00
C835   C     0.71448   0.64608   0.37534   0.00000  Uiso   1.00
C836   C     0.68501   0.59587   0.37063   0.00000  Uiso   1.00
C837   C     0.80819   0.34930   0.60274   0.00000  Uiso   1.00
C838   C     0.83455   0.40121   0.60896   0.00000  Uiso   1.00
C839   C     0.98758   0.59888   0.53066   0.00000  Uiso   1.00
C840   C     0.74830   0.34409   0.47469   0.00000  Uiso   1.00
C841   C     0.75442   0.65534   0.52294   0.00000  Uiso   1.00
C842   C     0.66462   0.50147   0.50105   0.00000  Uiso   1.00
C843   C     0.83561   0.50385   0.50015   0.00000  Uiso   1.00
C844   C     0.91178   0.55217   0.51095   0.00000  Uiso   1.00
Cu845  Cu    0.75501   0.50579   0.56146   0.00000  Uiso   1.00
Cu846  Cu    0.74500   0.49421   0.43854   0.00000  Uiso   1.00
H847   H     0.94554   0.37918   0.49041   0.00000  Uiso   1.00
H848   H     0.64270   0.40891   0.41744   0.00000  Uiso   1.00
H849   H     0.58331   0.39729   0.40008   0.00000  Uiso   1.00
H850   H     0.58745   0.64904   0.44330   0.00000  Uiso   1.00
H851   H     0.61292   0.65127   0.37480   0.00000  Uiso   1.00
H852   H     0.64577   0.66379   0.44962   0.00000  Uiso   1.00
H853   H     0.88806   0.37367   0.39544   0.00000  Uiso   1.00
H854   H     0.87041   0.43560   0.39451   0.00000  Uiso   1.00
H855   H     0.83115   0.38580   0.40633   0.00000  Uiso   1.00
H856   H     0.61906   0.62689   0.59830   0.00000  Uiso   1.00
H857   H     0.65852   0.65870   0.55968   0.00000  Uiso   1.00
H858   H     0.55444   0.63353   0.53566   0.00000  Uiso   1.00
H859   H     0.67110   0.60061   0.57956   0.00000  Uiso   1.00
H860   H     0.52765   0.66194   0.38134   0.00000  Uiso   1.00
H861   H     0.97616   0.35245   0.39774   0.00000  Uiso   1.00
H862   H     0.99151   0.63008   0.42286   0.00000  Uiso   1.00
H863   H     0.51033   0.34614   0.61964   0.00000  Uiso   1.00
H864   H     0.95913   0.64039   0.62861   0.00000  Uiso   1.00
H865   H     0.95702   0.36844   0.61046   0.00000  Uiso   1.00
H866   H     0.72574   0.64606   0.66308   0.00000  Uiso   1.00
H867   H     0.69511   0.34576   0.38547   0.00000  Uiso   1.00
H868   H     0.67582   0.59102   0.41582   0.00000  Uiso   1.00
H869   H     0.71463   0.45939   0.64998   0.00000  Uiso   1.00
H870   H     0.65423   0.59308   0.34062   0.00000  Uiso   1.00
H871   H     0.70230   0.56386   0.34989   0.00000  Uiso   1.00
H872   H     0.82591   0.65353   0.57347   0.00000  Uiso   1.00
H873   H     0.80846   0.33894   0.64759   0.00000  Uiso   1.00
H874   H     0.87011   0.39948   0.62292   0.00000  Uiso   1.00
H875   H     0.83248   0.41212   0.56459   0.00000  Uiso   1.00
H876   H     0.82055   0.43057   0.64245   0.00000  Uiso   1.00
H877   H     0.78562   0.54021   0.34958   0.00000  Uiso   1.00
H878   H     0.89446   0.56618   0.41193   0.00000  Uiso   1.00
H879   H     0.91660   0.63166   0.44202   0.00000  Uiso   1.00
H880   H     0.84070   0.65332   0.46365   0.00000  Uiso   1.00
H881   H     0.84358   0.62401   0.38337   0.00000  Uiso   1.00
H882   H     0.82027   0.58776   0.43423   0.00000  Uiso   1.00
N883   N     0.73745   0.48547   0.34617   0.00000  Uiso   1.00
N884   N     0.76256   0.51453   0.65383   0.00000  Uiso   1.00
O885   O     0.75326   0.42871   0.53992   0.00000  Uiso   1.00
O886   O     0.60729   0.41208   0.49342   0.00000  Uiso   1.00
O887   O     0.87595   0.41422   0.48020   0.00000  Uiso   1.00
O888   O     0.62419   0.59333   0.50653   0.00000  Uiso   1.00
O889   O     0.52716   0.36405   0.47246   0.00000  Uiso   1.00
O890   O     0.97075   0.64542   0.53996   0.00000  Uiso   1.00
O891   O     0.75279   0.64933   0.41622   0.00000  Uiso   1.00
O892   O     0.76335   0.35138   0.58168   0.00000  Uiso   1.00
O893   O     0.74675   0.57129   0.46008   0.00000  Uiso   1.00
O894   O     0.74480   0.41892   0.43612   0.00000  Uiso   1.00
O895   O     0.75520   0.58108   0.56388   0.00000  Uiso   1.00
O896   O     0.68936   0.50488   0.55191   0.00000  Uiso   1.00
O897   O     0.81065   0.49512   0.44809   0.00000  Uiso   1.00
O898   O     0.68090   0.49510   0.44810   0.00000  Uiso   1.00
O899   O     0.81910   0.50490   0.55190   0.00000  Uiso   1.00
O900   O     0.89250   0.59596   0.50773   0.00000  Uiso   1.00
C901   C     0.24849   0.73337   0.48446   0.00000  Uiso   1.00
C902   C     0.08841   0.79045   0.49807   0.00000  Uiso   1.00
C903   C     0.38424   0.83893   0.50133   0.00000  Uiso   1.00
C904   C     0.11628   0.83632   0.50377   0.00000  Uiso   1.00
C905   C     0.40305   0.79325   0.49651   0.00000  Uiso   1.00
C906   C     0.09824   0.88330   0.51267   0.00000  Uiso   1.00
C907   C     0.44922   0.79351   0.50227   0.00000  Uiso   1.00
C908   C     0.05216   0.88443   0.51776   0.00000  Uiso   1.00
C909   C     0.47738   0.83949   0.51117   0.00000  Uiso   1.00
C910   C     0.02398   0.83828   0.51073   0.00000  Uiso   1.00
C911   C     0.45876   0.88626   0.51801   0.00000  Uiso   1.00
C912   C     0.25195   0.93304   0.51500   0.00000  Uiso   1.00
C913   C     0.04186   0.79072   0.49976   0.00000  Uiso   1.00
C914   C     0.46720   0.74756   0.49541   0.00000  Uiso   1.00
C915   C     0.03354   0.93092   0.52874   0.00000  Uiso   1.00
C916   C     0.39048   0.93494   0.44656   0.00000  Uiso   1.00
C917   C     0.34598   0.95144   0.43065   0.00000  Uiso   1.00
C918   C     0.11164   0.72499   0.43147   0.00000  Uiso   1.00
C919   C     0.11465   0.66858   0.42399   0.00000  Uiso   1.00
C920   C     0.36638   0.73554   0.41636   0.00000  Uiso   1.00
C921   C     0.14373   0.95385   0.56403   0.00000  Uiso   1.00
C922   C     0.00422   0.66838   0.41679   0.00000  Uiso   1.00
C923   C     0.01228   0.74492   0.48887   0.00000  Uiso   1.00
C924   C     0.47483   0.66717   0.60273   0.00000  Uiso   1.00
C925   C     0.21448   0.97941   0.37534   0.00000  Uiso   1.00
C926   C     0.18501   0.92920   0.37063   0.00000  Uiso   1.00
C927   C     0.30819   0.68264   0.60274   0.00000  Uiso   1.00
C928   C     0.33455   0.73454   0.60896   0.00000  Uiso   1.00
C929   C     0.48758   0.93222   0.53066   0.00000  Uiso   1.00
C930   C     0.24830   0.67742   0.47469   0.00000  Uiso   1.00
C931   C     0.25442   0.98867   0.52294   0.00000  Uiso   1.00
C932   C     0.16462   0.83481   0.50105   0.00000  Uiso   1.00
C933   C     0.33561   0.83718   0.50015   0.00000  Uiso   1.00
C934   C     0.41178   0.88551   0.51095   0.00000  Uiso   1.00
Cu935  Cu    0.25501   0.83913   0.56146   0.00000  Uiso   1.00
Cu936  Cu    0.24500   0.82754   0.43854   0.00000  Uiso   1.00
H937   H     0.44554   0.71252   0.49041   0.00000  Uiso   1.00
H938   H     0.14270   0.74224   0.41744   0.00000  Uiso   1.00
H939   H     0.08331   0.73062   0.40008   0.00000  Uiso   1.00
H940   H     0.08745   0.98238   0.44330   0.00000  Uiso   1.00
H941   H     0.11292   0.98460   0.37480   0.00000  Uiso   1.00
H942   H     0.14577   0.99713   0.44962   0.00000  Uiso   1.00
H943   H     0.38806   0.70701   0.39544   0.00000  Uiso   1.00
H944   H     0.37041   0.76894   0.39451   0.00000  Uiso   1.00
H945   H     0.33115   0.71913   0.40633   0.00000  Uiso   1.00
H946   H     0.11906   0.96022   0.59830   0.00000  Uiso   1.00
H947   H     0.15852   0.99203   0.55968   0.00000  Uiso   1.00
H948   H     0.05444   0.96686   0.53566   0.00000  Uiso   1.00
H949   H     0.17110   0.93394   0.57956   0.00000  Uiso   1.00
H950   H     0.02765   0.99528   0.38134   0.00000  Uiso   1.00
H951   H     0.47616   0.68578   0.39774   0.00000  Uiso   1.00
H952   H     0.49151   0.96341   0.42286   0.00000  Uiso   1.00
H953   H     0.01033   0.67948   0.61964   0.00000  Uiso   1.00
H954   H     0.45913   0.97372   0.62861   0.00000  Uiso   1.00
H955   H     0.45702   0.70178   0.61046   0.00000  Uiso   1.00
H956   H     0.22574   0.97940   0.66308   0.00000  Uiso   1.00
H957   H     0.19511   0.67910   0.38547   0.00000  Uiso   1.00
H958   H     0.17582   0.92436   0.41582   0.00000  Uiso   1.00
H959   H     0.21463   0.79273   0.64998   0.00000  Uiso   1.00
H960   H     0.15423   0.92642   0.34062   0.00000  Uiso   1.00
H961   H     0.20230   0.89719   0.34989   0.00000  Uiso   1.00
H962   H     0.32591   0.98687   0.57347   0.00000  Uiso   1.00
H963   H     0.30846   0.67227   0.64759   0.00000  Uiso   1.00
H964   H     0.37011   0.73281   0.62292   0.00000  Uiso   1.00
H965   H     0.33248   0.74546   0.56459   0.00000  Uiso   1.00
H966   H     0.32055   0.76390   0.64245   0.00000  Uiso   1.00
H967   H     0.28562   0.87354   0.34958   0.00000  Uiso   1.00
H968   H     0.39446   0.89951   0.41193   0.00000  Uiso   1.00
H969   H     0.41660   0.96499   0.44202   0.00000  Uiso   1.00
H970   H     0.34070   0.98665   0.46365   0.00000  Uiso   1.00
H971   H     0.34358   0.95734   0.38337   0.00000  Uiso   1.00
H972   H     0.32027   0.92109   0.43423   0.00000  Uiso   1.00
N973   N     0.23745   0.81881   0.34617   0.00000  Uiso   1.00
N974   N     0.26256   0.84786   0.65383   0.00000  Uiso   1.00
O975   O     0.25326   0.76204   0.53992   0.00000  Uiso   1.00
O976   O     0.10729   0.74542   0.49342   0.00000  Uiso   1.00
O977   O     0.37595   0.74755   0.48020   0.00000  Uiso   1.00
O978   O     0.12419   0.92666   0.50653   0.00000  Uiso   1.00
O979   O     0.02716   0.69738   0.47246   0.00000  Uiso   1.00
O980   O     0.47075   0.97876   0.53996   0.00000  Uiso   1.00
O981   O     0.25279   0.98266   0.41622   0.00000  Uiso   1.00
O982   O     0.26335   0.68472   0.58168   0.00000  Uiso   1.00
O983   O     0.24675   0.90462   0.46008   0.00000  Uiso   1.00
O984   O     0.24480   0.75226   0.43612   0.00000  Uiso   1.00
O985   O     0.25520   0.91441   0.56388   0.00000  Uiso   1.00
O986   O     0.18936   0.83821   0.55191   0.00000  Uiso   1.00
O987   O     0.31065   0.82845   0.44809   0.00000  Uiso   1.00
O988   O     0.18090   0.82843   0.44810   0.00000  Uiso   1.00
O989   O     0.31910   0.83824   0.55190   0.00000  Uiso   1.00
O990   O     0.39250   0.92929   0.50773   0.00000  Uiso   1.00
C991   C     0.74849   0.73337   0.48446   0.00000  Uiso   1.00
C992   C     0.58841   0.79045   0.49807   0.00000  Uiso   1.00
C993   C     0.88424   0.83893   0.50133   0.00000  Uiso   1.00
C994   C     0.61628   0.83632   0.50377   0.00000  Uiso   1.00
C995   C     0.90305   0.79325   0.49651   0.00000  Uiso   1.00
C996   C     0.59824   0.88330   0.51267   0.00000  Uiso   1.00
C997   C     0.94922   0.79351   0.50227   0.00000  Uiso   1.00
C998   C     0.55216   0.88443   0.51776   0.00000  Uiso   1.00
C999   C     0.97738   0.83949   0.51117   0.00000  Uiso   1.00
C1000  C     0.52398   0.83828   0.51073   0.00000  Uiso   1.00
C1001  C     0.95876   0.88626   0.51801   0.00000  Uiso   1.00
C1002  C     0.75195   0.93304   0.51500   0.00000  Uiso   1.00
C1003  C     0.54186   0.79072   0.49976   0.00000  Uiso   1.00
C1004  C     0.96720   0.74756   0.49541   0.00000  Uiso   1.00
C1005  C     0.53354   0.93092   0.52874   0.00000  Uiso   1.00
C1006  C     0.89048   0.93494   0.44656   0.00000  Uiso   1.00
C1007  C     0.84598   0.95144   0.43065   0.00000  Uiso   1.00
C1008  C     0.61164   0.72499   0.43147   0.00000  Uiso   1.00
C1009  C     0.61465   0.66858   0.42399   0.00000  Uiso   1.00
C1010  C     0.86638   0.73554   0.41636   0.00000  Uiso   1.00
C1011  C     0.64373   0.95385   0.56403   0.00000  Uiso   1.00
C1012  C     0.50422   0.66838   0.41679   0.00000  Uiso   1.00
C1013  C     0.51228   0.74492   0.48887   0.00000  Uiso   1.00
C1014  C     0.97483   0.66717   0.60273   0.00000  Uiso   1.00
C1015  C     0.71448   0.97941   0.37534   0.00000  Uiso   1.00
C1016  C     0.68501   0.92920   0.37063   0.00000  Uiso   1.00
C1017  C     0.80819   0.68264   0.60274   0.00000  Uiso   1.00
C1018  C     0.83455   0.73454   0.60896   0.00000  Uiso   1.00
C1019  C     0.98758   0.93222   0.53066   0.00000  Uiso   1.00
C1020  C     0.74830   0.67742   0.47469   0.00000  Uiso   1.00
C1021  C     0.75442   0.98867   0.52294   0.00000  Uiso   1.00
C1022  C     0.66462   0.83481   0.50105   0.00000  Uiso   1.00
C1023  C     0.83561   0.83718   0.50015   0.00000  Uiso   1.00
C1024  C     0.91178   0.88551   0.51095   0.00000  Uiso   1.00
Cu1025 Cu    0.75501   0.83913   0.56146   0.00000  Uiso   1.00
Cu1026 Cu    0.74500   0.82754   0.43854   0.00000  Uiso   1.00
H1027  H     0.94554   0.71252   0.49041   0.00000  Uiso   1.00
H1028  H     0.64270   0.74224   0.41744   0.00000  Uiso   1.00
H1029  H     0.58331   0.73062   0.40008   0.00000  Uiso   1.00
H1030  H     0.58745   0.98238   0.44330   0.00000  Uiso   1.00
H1031  H     0.61292   0.98460   0.37480   0.00000  Uiso   1.00
H1032  H     0.64577   0.99713   0.44962   0.00000  Uiso   1.00
H1033  H     0.88806   0.70701   0.39544   0.00000  Uiso   1.00
H1034  H     0.87041   0.76894   0.39451   0.00000  Uiso   1.00
H1035  H     0.83115   0.71913   0.40633   0.00000  Uiso   1.00
H1036  H     0.61906   0.96022   0.59830   0.00000  Uiso   1.00
H1037  H     0.65852   0.99203   0.55968   0.00000  Uiso   1.00
H1038  H     0.55444   0.96686   0.53566   0.00000  Uiso   1.00
H1039  H     0.67110   0.93394   0.57956   0.00000  Uiso   1.00
H1040  H     0.52765   0.99528   0.38134   0.00000  Uiso   1.00
H1041  H     0.97616   0.68578   0.39774   0.00000  Uiso   1.00
H1042  H     0.99151   0.96341   0.42286   0.00000  Uiso   1.00
H1043  H     0.51033   0.67948   0.61964   0.00000  Uiso   1.00
H1044  H     0.95913   0.97372   0.62861   0.00000  Uiso   1.00
H1045  H     0.95702   0.70178   0.61046   0.00000  Uiso   1.00
H1046  H     0.72574   0.97940   0.66308   0.00000  Uiso   1.00
H1047  H     0.69511   0.67910   0.38547   0.00000  Uiso   1.00
H1048  H     0.67582   0.92436   0.41582   0.00000  Uiso   1.00
H1049  H     0.71463   0.79273   0.64998   0.00000  Uiso   1.00
H1050  H     0.65423   0.92642   0.34062   0.00000  Uiso   1.00
H1051  H     0.70230   0.89719   0.34989   0.00000  Uiso   1.00
H1052  H     0.82591   0.98687   0.57347   0.00000  Uiso   1.00
H1053  H     0.80846   0.67227   0.64759   0.00000  Uiso   1.00
H1054  H     0.87011   0.73281   0.62292   0.00000  Uiso   1.00
H1055  H     0.83248   0.74546   0.56459   0.00000  Uiso   1.00
H1056  H     0.82055   0.76390   0.64245   0.00000  Uiso   1.00
H1057  H     0.78562   0.87354   0.34958   0.00000  Uiso   1.00
H1058  H     0.89446   0.89951   0.41193   0.00000  Uiso   1.00
H1059  H     0.91660   0.96499   0.44202   0.00000  Uiso   1.00
H1060  H     0.84070   0.98665   0.46365   0.00000  Uiso   1.00
H1061  H     0.84358   0.95734   0.38337   0.00000  Uiso   1.00
H1062  H     0.82027   0.92109   0.43423   0.00000  Uiso   1.00
N1063  N     0.73745   0.81881   0.34617   0.00000  Uiso   1.00
N1064  N     0.76256   0.84786   0.65383   0.00000  Uiso   1.00
O1065  O     0.75326   0.76204   0.53992   0.00000  Uiso   1.00
O1066  O     0.60729   0.74542   0.49342   0.00000  Uiso   1.00
O1067  O     0.87595   0.74755   0.48020   0.00000  Uiso   1.00
O1068  O     0.62419   0.92666   0.50653   0.00000  Uiso   1.00
O1069  O     0.52716   0.69738   0.47246   0.00000  Uiso   1.00
O1070  O     0.97075   0.97876   0.53996   0.00000  Uiso   1.00
O1071  O     0.75279   0.98266   0.41622   0.00000  Uiso   1.00
O1072  O     0.76335   0.68472   0.58168   0.00000  Uiso   1.00
O1073  O     0.74675   0.90462   0.46008   0.00000  Uiso   1.00
O1074  O     0.74480   0.75226   0.43612   0.00000  Uiso   1.00
O1075  O     0.75520   0.91441   0.56388   0.00000  Uiso   1.00
O1076  O     0.68936   0.83821   0.55191   0.00000  Uiso   1.00
O1077  O     0.81065   0.82845   0.44809   0.00000  Uiso   1.00
O1078  O     0.68090   0.82843   0.44810   0.00000  Uiso   1.00
O1079  O     0.81910   0.83824   0.55190   0.00000  Uiso   1.00
O1080  O     0.89250   0.92929   0.50773   0.00000  Uiso   1.00
C1081  C     0.24849   0.06671   0.81780   0.00000  Uiso   1.00
C1082  C     0.08841   0.12378   0.83140   0.00000  Uiso   1.00
C1083  C     0.38424   0.17226   0.83467   0.00000  Uiso   1.00
C1084  C     0.11628   0.16966   0.83711   0.00000  Uiso   1.00
C1085  C     0.40305   0.12659   0.82984   0.00000  Uiso   1.00
C1086  C     0.09824   0.21664   0.84600   0.00000  Uiso   1.00
C1087  C     0.44922   0.12684   0.83560   0.00000  Uiso   1.00
C1088  C     0.05216   0.21776   0.85109   0.00000  Uiso   1.00
C1089  C     0.47738   0.17283   0.84450   0.00000  Uiso   1.00
C1090  C     0.02398   0.17162   0.84407   0.00000  Uiso   1.00
C1091  C     0.45876   0.21959   0.85135   0.00000  Uiso   1.00
C1092  C     0.25195   0.26637   0.84833   0.00000  Uiso   1.00
C1093  C     0.04186   0.12406   0.83310   0.00000  Uiso   1.00
C1094  C     0.46720   0.08089   0.82874   0.00000  Uiso   1.00
C1095  C     0.03354   0.26425   0.86207   0.00000  Uiso   1.00
C1096  C     0.39048   0.26827   0.77989   0.00000  Uiso   1.00
C1097  C     0.34598   0.28477   0.76399   0.00000  Uiso   1.00
C1098  C     0.11164   0.05832   0.76480   0.00000  Uiso   1.00
C1099  C     0.11465   0.00191   0.75732   0.00000  Uiso   1.00
C1100  C     0.36638   0.06887   0.74970   0.00000  Uiso   1.00
C1101  C     0.14373   0.28718   0.89736   0.00000  Uiso   1.00
C1102  C     0.00422   0.00171   0.75012   0.00000  Uiso   1.00
C1103  C     0.01228   0.07826   0.82221   0.00000  Uiso   1.00
C1104  C     0.47483   0.00050   0.93606   0.00000  Uiso   1.00
C1105  C     0.21448   0.31275   0.70867   0.00000  Uiso   1.00
C1106  C     0.18501   0.26253   0.70396   0.00000  Uiso   1.00
C1107  C     0.30819   0.01597   0.93607   0.00000  Uiso   1.00
C1108  C     0.33455   0.06788   0.94230   0.00000  Uiso   1.00
C1109  C     0.48758   0.26555   0.86400   0.00000  Uiso   1.00
C1110  C     0.24830   0.01076   0.80802   0.00000  Uiso   1.00
C1111  C     0.25442   0.32200   0.85627   0.00000  Uiso   1.00
C1112  C     0.16462   0.16814   0.83439   0.00000  Uiso   1.00
C1113  C     0.33561   0.17052   0.83349   0.00000  Uiso   1.00
C1114  C     0.41178   0.21884   0.84428   0.00000  Uiso   1.00
Cu1115 Cu    0.25501   0.17246   0.89479   0.00000  Uiso   1.00
Cu1116 Cu    0.24500   0.16087   0.77187   0.00000  Uiso   1.00
H1117  H     0.44554   0.04585   0.82374   0.00000  Uiso   1.00
H1118  H     0.14270   0.07558   0.75077   0.00000  Uiso   1.00
H1119  H     0.08331   0.06395   0.73342   0.00000  Uiso   1.00
H1120  H     0.08745   0.31571   0.77664   0.00000  Uiso   1.00
H1121  H     0.11292   0.31793   0.70813   0.00000  Uiso   1.00
H1122  H     0.14577   0.33046   0.78295   0.00000  Uiso   1.00
H1123  H     0.38806   0.04034   0.72877   0.00000  Uiso   1.00
H1124  H     0.37041   0.10227   0.72784   0.00000  Uiso   1.00
H1125  H     0.33115   0.05247   0.73966   0.00000  Uiso   1.00
H1126  H     0.11906   0.29356   0.93163   0.00000  Uiso   1.00
H1127  H     0.15852   0.32537   0.89301   0.00000  Uiso   1.00
H1128  H     0.05444   0.30019   0.86899   0.00000  Uiso   1.00
H1129  H     0.17110   0.26728   0.91290   0.00000  Uiso   1.00
H1130  H     0.02765   0.32861   0.71468   0.00000  Uiso   1.00
H1131  H     0.47616   0.01912   0.73108   0.00000  Uiso   1.00
H1132  H     0.49151   0.29675   0.75620   0.00000  Uiso   1.00
H1133  H     0.01033   0.01281   0.95297   0.00000  Uiso   1.00
H1134  H     0.45913   0.30705   0.96194   0.00000  Uiso   1.00
H1135  H     0.45702   0.03511   0.94379   0.00000  Uiso   1.00
H1136  H     0.22574   0.31273   0.99641   0.00000  Uiso   1.00
H1137  H     0.19511   0.01243   0.71880   0.00000  Uiso   1.00
H1138  H     0.17582   0.25769   0.74915   0.00000  Uiso   1.00
H1139  H     0.21463   0.12606   0.98331   0.00000  Uiso   1.00
H1140  H     0.15423   0.25975   0.67396   0.00000  Uiso   1.00
H1141  H     0.20230   0.23052   0.68322   0.00000  Uiso   1.00
H1142  H     0.32591   0.32020   0.90680   0.00000  Uiso   1.00
H1143  H     0.30846   0.00561   0.98093   0.00000  Uiso   1.00
H1144  H     0.37011   0.06614   0.95625   0.00000  Uiso   1.00
H1145  H     0.33248   0.07879   0.89792   0.00000  Uiso   1.00
H1146  H     0.32055   0.09723   0.97578   0.00000  Uiso   1.00
H1147  H     0.28562   0.20687   0.68291   0.00000  Uiso   1.00
H1148  H     0.39446   0.23284   0.74526   0.00000  Uiso   1.00
H1149  H     0.41660   0.29833   0.77536   0.00000  Uiso   1.00
H1150  H     0.34070   0.31998   0.79699   0.00000  Uiso   1.00
H1151  H     0.34358   0.29068   0.71670   0.00000  Uiso   1.00
H1152  H     0.32027   0.25443   0.76756   0.00000  Uiso   1.00
N1153  N     0.23745   0.15214   0.67951   0.00000  Uiso   1.00
N1154  N     0.26256   0.18119   0.98716   0.00000  Uiso   1.00
O1155  O     0.25326   0.09538   0.87326   0.00000  Uiso   1.00
O1156  O     0.10729   0.07875   0.82676   0.00000  Uiso   1.00
O1157  O     0.37595   0.08088   0.81354   0.00000  Uiso   1.00
O1158  O     0.12419   0.25999   0.83987   0.00000  Uiso   1.00
O1159  O     0.02716   0.03071   0.80579   0.00000  Uiso   1.00
O1160  O     0.47075   0.31209   0.87329   0.00000  Uiso   1.00
O1161  O     0.25279   0.31599   0.74955   0.00000  Uiso   1.00
O1162  O     0.26335   0.01805   0.91501   0.00000  Uiso   1.00
O1163  O     0.24675   0.23796   0.79341   0.00000  Uiso   1.00
O1164  O     0.24480   0.08559   0.76945   0.00000  Uiso   1.00
O1165  O     0.25520   0.24774   0.89721   0.00000  Uiso   1.00
O1166  O     0.18936   0.17155   0.88524   0.00000  Uiso   1.00
O1167  O     0.31065   0.16179   0.78143   0.00000  Uiso   1.00
O1168  O     0.18090   0.16176   0.78143   0.00000  Uiso   1.00
O1169  O     0.31910   0.17157   0.88523   0.00000  Uiso   1.00
O1170  O     0.39250   0.26263   0.84106   0.00000  Uiso   1.00
C1171  C     0.74849   0.06671   0.81780   0.00000  Uiso   1.00
C1172  C     0.58841   0.12378   0.83140   0.00000  Uiso   1.00
C1173  C     0.88424   0.17226   0.83467   0.00000  Uiso   1.00
C1174  C     0.61628   0.16966   0.83711   0.00000  Uiso   1.00
C1175  C     0.90305   0.12659   0.82984   0.00000  Uiso   1.00
C1176  C     0.59824   0.21664   0.84600   0.00000  Uiso   1.00
C1177  C     0.94922   0.12684   0.83560   0.00000  Uiso   1.00
C1178  C     0.55216   0.21776   0.85109   0.00000  Uiso   1.00
C1179  C     0.97738   0.17283   0.84450   0.00000  Uiso   1.00
C1180  C     0.52398   0.17162   0.84407   0.00000  Uiso   1.00
C1181  C     0.95876   0.21959   0.85135   0.00000  Uiso   1.00
C1182  C     0.75195   0.26637   0.84833   0.00000  Uiso   1.00
C1183  C     0.54186   0.12406   0.83310   0.00000  Uiso   1.00
C1184  C     0.96720   0.08089   0.82874   0.00000  Uiso   1.00
C1185  C     0.53354   0.26425   0.86207   0.00000  Uiso   1.00
C1186  C     0.89048   0.26827   0.77989   0.00000  Uiso   1.00
C1187  C     0.84598   0.28477   0.76399   0.00000  Uiso   1.00
C1188  C     0.61164   0.05832   0.76480   0.00000  Uiso   1.00
C1189  C     0.61465   0.00191   0.75732   0.00000  Uiso   1.00
C1190  C     0.86638   0.06887   0.74970   0.00000  Uiso   1.00
C1191  C     0.64373   0.28718   0.89736   0.00000  Uiso   1.00
C1192  C     0.50422   0.00171   0.75012   0.00000  Uiso   1.00
C1193  C     0.51228   0.07826   0.82221   0.00000  Uiso   1.00
C1194  C     0.97483   0.00050   0.93606   0.00000  Uiso   1.00
C1195  C     0.71448   0.31275   0.70867   0.00000  Uiso   1.00
C1196  C     0.68501   0.26253   0.70396   0.00000  Uiso   1.00
C1197  C     0.80819   0.01597   0.93607   0.00000  Uiso   1.00
C1198  C     0.83455   0.06788   0.94230   0.00000  Uiso   1.00
C1199  C     0.98758   0.26555   0.86400   0.00000  Uiso   1.00
C1200  C     0.74830   0.01076   0.80802   0.00000  Uiso   1.00
C1201  C     0.75442   0.32200   0.85627   0.00000  Uiso   1.00
C1202  C     0.66462   0.16814   0.83439   0.00000  Uiso   1.00
C1203  C     0.83561   0.17052   0.83349   0.00000  Uiso   1.00
C1204  C     0.91178   0.21884   0.84428   0.00000  Uiso   1.00
Cu1205 Cu    0.75501   0.17246   0.89479   0.00000  Uiso   1.00
Cu1206 Cu    0.74500   0.16087   0.77187   0.00000  Uiso   1.00
H1207  H     0.94554   0.04585   0.82374   0.00000  Uiso   1.00
H1208  H     0.64270   0.07558   0.75077   0.00000  Uiso   1.00
H1209  H     0.58331   0.06395   0.73342   0.00000  Uiso   1.00
H1210  H     0.58745   0.31571   0.77664   0.00000  Uiso   1.00
H1211  H     0.61292   0.31793   0.70813   0.00000  Uiso   1.00
H1212  H     0.64577   0.33046   0.78295   0.00000  Uiso   1.00
H1213  H     0.88806   0.04034   0.72877   0.00000  Uiso   1.00
H1214  H     0.87041   0.10227   0.72784   0.00000  Uiso   1.00
H1215  H     0.83115   0.05247   0.73966   0.00000  Uiso   1.00
H1216  H     0.61906   0.29356   0.93163   0.00000  Uiso   1.00
H1217  H     0.65852   0.32537   0.89301   0.00000  Uiso   1.00
H1218  H     0.55444   0.30019   0.86899   0.00000  Uiso   1.00
H1219  H     0.67110   0.26728   0.91290   0.00000  Uiso   1.00
H1220  H     0.52765   0.32861   0.71468   0.00000  Uiso   1.00
H1221  H     0.97616   0.01912   0.73108   0.00000  Uiso   1.00
H1222  H     0.99151   0.29675   0.75620   0.00000  Uiso   1.00
H1223  H     0.51033   0.01281   0.95297   0.00000  Uiso   1.00
H1224  H     0.95913   0.30705   0.96194   0.00000  Uiso   1.00
H1225  H     0.95702   0.03511   0.94379   0.00000  Uiso   1.00
H1226  H     0.72574   0.31273   0.99641   0.00000  Uiso   1.00
H1227  H     0.69511   0.01243   0.71880   0.00000  Uiso   1.00
H1228  H     0.67582   0.25769   0.74915   0.00000  Uiso   1.00
H1229  H     0.71463   0.12606   0.98331   0.00000  Uiso   1.00
H1230  H     0.65423   0.25975   0.67396   0.00000  Uiso   1.00
H1231  H     0.70230   0.23052   0.68322   0.00000  Uiso   1.00
H1232  H     0.82591   0.32020   0.90680   0.00000  Uiso   1.00
H1233  H     0.80846   0.00561   0.98093   0.00000  Uiso   1.00
H1234  H     0.87011   0.06614   0.95625   0.00000  Uiso   1.00
H1235  H     0.83248   0.07879   0.89792   0.00000  Uiso   1.00
H1236  H     0.82055   0.09723   0.97578   0.00000  Uiso   1.00
H1237  H     0.78562   0.20687   0.68291   0.00000  Uiso   1.00
H1238  H     0.89446   0.23284   0.74526   0.00000  Uiso   1.00
H1239  H     0.91660   0.29833   0.77536   0.00000  Uiso   1.00
H1240  H     0.84070   0.31998   0.79699   0.00000  Uiso   1.00
H1241  H     0.84358   0.29068   0.71670   0.00000  Uiso   1.00
H1242  H     0.82027   0.25443   0.76756   0.00000  Uiso   1.00
N1243  N     0.73745   0.15214   0.67951   0.00000  Uiso   1.00
N1244  N     0.76256   0.18119   0.98716   0.00000  Uiso   1.00
O1245  O     0.75326   0.09538   0.87326   0.00000  Uiso   1.00
O1246  O     0.60729   0.07875   0.82676   0.00000  Uiso   1.00
O1247  O     0.87595   0.08088   0.81354   0.00000  Uiso   1.00
O1248  O     0.62419   0.25999   0.83987   0.00000  Uiso   1.00
O1249  O     0.52716   0.03071   0.80579   0.00000  Uiso   1.00
O1250  O     0.97075   0.31209   0.87329   0.00000  Uiso   1.00
O1251  O     0.75279   0.31599   0.74955   0.00000  Uiso   1.00
O1252  O     0.76335   0.01805   0.91501   0.00000  Uiso   1.00
O1253  O     0.74675   0.23796   0.79341   0.00000  Uiso   1.00
O1254  O     0.74480   0.08559   0.76945   0.00000  Uiso   1.00
O1255  O     0.75520   0.24774   0.89721   0.00000  Uiso   1.00
O1256  O     0.68936   0.17155   0.88524   0.00000  Uiso   1.00
O1257  O     0.81065   0.16179   0.78143   0.00000  Uiso   1.00
O1258  O     0.68090   0.16176   0.78143   0.00000  Uiso   1.00
O1259  O     0.81910   0.17157   0.88523   0.00000  Uiso   1.00
O1260  O     0.89250   0.26263   0.84106   0.00000  Uiso   1.00
C1261  C     0.24849   0.40004   0.81780   0.00000  Uiso   1.00
C1262  C     0.08841   0.45711   0.83140   0.00000  Uiso   1.00
C1263  C     0.38424   0.50560   0.83467   0.00000  Uiso   1.00
C1264  C     0.11628   0.50299   0.83711   0.00000  Uiso   1.00
C1265  C     0.40305   0.45992   0.82984   0.00000  Uiso   1.00
C1266  C     0.09824   0.54997   0.84600   0.00000  Uiso   1.00
C1267  C     0.44922   0.46017   0.83560   0.00000  Uiso   1.00
C1268  C     0.05216   0.55109   0.85109   0.00000  Uiso   1.00
C1269  C     0.47738   0.50616   0.84450   0.00000  Uiso   1.00
C1270  C     0.02398   0.50495   0.84407   0.00000  Uiso   1.00
C1271  C     0.45876   0.55293   0.85135   0.00000  Uiso   1.00
C1272  C     0.25195   0.59970   0.84833   0.00000  Uiso   1.00
C1273  C     0.04186   0.45739   0.83310   0.00000  Uiso   1.00
C1274  C     0.46720   0.41422   0.82874   0.00000  Uiso   1.00
C1275  C     0.03354   0.59759   0.86207   0.00000  Uiso   1.00
C1276  C     0.39048   0.60160   0.77989   0.00000  Uiso   1.00
C1277  C     0.34598   0.61811   0.76399   0.00000  Uiso   1.00
C1278  C     0.11164   0.39166   0.76480   0.00000  Uiso   1.00
C1279  C     0.11465   0.33525   0.75732   0.00000  Uiso   1.00
C1280  C     0.36638   0.40220   0.74970   0.00000  Uiso   1.00
C1281  C     0.14373   0.62052   0.89736   0.00000  Uiso   1.00
C1282  C     0.00422   0.33504   0.75012   0.00000  Uiso   1.00
C1283  C     0.01228   0.41159   0.82221   0.00000  Uiso   1.00
C1284  C     0.47483   0.33384   0.93606   0.00000  Uiso   1.00
C1285  C     0.21448   0.64608   0.70867   0.00000  Uiso   1.00
C1286  C     0.18501   0.59587   0.70396   0.00000  Uiso   1.00
C1287  C     0.30819   0.34930   0.93607   0.00000  Uiso   1.00
C1288  C     0.33455   0.40121   0.94230   0.00000  Uiso   1.00
C1289  C     0.48758   0.59888   0.86400   0.00000  Uiso   1.00
C1290  C     0.24830   0.34409   0.80802   0.00000  Uiso   1.00
C1291  C     0.25442   0.65534   0.85627   0.00000  Uiso   1.00
C1292  C     0.16462   0.50147   0.83439   0.00000  Uiso   1.00
C1293  C     0.33561   0.50385   0.83349   0.00000  Uiso   1.00
C1294  C     0.41178   0.55217   0.84428   0.00000  Uiso   1.00
Cu1295 Cu    0.25501   0.50579   0.89479   0.00000  Uiso   1.00
Cu1296 Cu    0.24500   0.49421   0.77187   0.00000  Uiso   1.00
H1297  H     0.44554   0.37918   0.82374   0.00000  Uiso   1.00
H1298  H     0.14270   0.40891   0.75077   0.00000  Uiso   1.00
H1299  H     0.08331   0.39729   0.73342   0.00000  Uiso   1.00
H1300  H     0.08745   0.64904   0.77664   0.00000  Uiso   1.00
H1301  H     0.11292   0.65127   0.70813   0.00000  Uiso   1.00
H1302  H     0.14577   0.66379   0.78295   0.00000  Uiso   1.00
H1303  H     0.38806   0.37367   0.72877   0.00000  Uiso   1.00
H1304  H     0.37041   0.43560   0.72784   0.00000  Uiso   1.00
H1305  H     0.33115   0.38580   0.73966   0.00000  Uiso   1.00
H1306  H     0.11906   0.62689   0.93163   0.00000  Uiso   1.00
H1307  H     0.15852   0.65870   0.89301   0.00000  Uiso   1.00
H1308  H     0.05444   0.63353   0.86899   0.00000  Uiso   1.00
H1309  H     0.17110   0.60061   0.91290   0.00000  Uiso   1.00
H1310  H     0.02765   0.66194   0.71468   0.00000  Uiso   1.00
H1311  H     0.47616   0.35245   0.73108   0.00000  Uiso   1.00
H1312  H     0.49151   0.63008   0.75620   0.00000  Uiso   1.00
H1313  H     0.01033   0.34614   0.95297   0.00000  Uiso   1.00
H1314  H     0.45913   0.64039   0.96194   0.00000  Uiso   1.00
H1315  H     0.45702   0.36844   0.94379   0.00000  Uiso   1.00
H1316  H     0.22574   0.64606   0.99641   0.00000  Uiso   1.00
H1317  H     0.19511   0.34576   0.71880   0.00000  Uiso   1.00
H1318  H     0.17582   0.59102   0.74915   0.00000  Uiso   1.00
H1319  H     0.21463   0.45939   0.98331   0.00000  Uiso   1.00
H1320  H     0.15423   0.59308   0.67396   0.00000  Uiso   1.00
H1321  H     0.20230   0.56386   0.68322   0.00000  Uiso   1.00
H1322  H     0.32591   0.65353   0.90680   0.00000  Uiso   1.00
H1323  H     0.30846   0.33894   0.98093   0.00000  Uiso   1.00
H1324  H     0.37011   0.39948   0.95625   0.00000  Uiso   1.00
H1325  H     0.33248   0.41212   0.89792   0.00000  Uiso   1.00
H1326  H     0.32055   0.43057   0.97578   0.00000  Uiso   1.00
H1327  H     0.28562   0.54021   0.68291   0.00000  Uiso   1.00
H1328  H     0.39446   0.56618   0.74526   0.00000  Uiso   1.00
H1329  H     0.41660   0.63166   0.77536   0.00000  Uiso   1.00
H1330  H     0.34070   0.65332   0.79699   0.00000  Uiso   1.00
H1331  H     0.34358   0.62401   0.71670   0.00000  Uiso   1.00
H1332  H     0.32027   0.58776   0.76756   0.00000  Uiso   1.00
N1333  N     0.23745   0.48547   0.67951   0.00000  Uiso   1.00
N1334  N     0.26256   0.51453   0.98716   0.00000  Uiso   1.00
O1335  O     0.25326   0.42871   0.87326   0.00000  Uiso   1.00
O1336  O     0.10729   0.41208   0.82676   0.00000  Uiso   1.00
O1337  O     0.37595   0.41422   0.81354   0.00000  Uiso   1.00
O1338  O     0.12419   0.59333   0.83987   0.00000  Uiso   1.00
O1339  O     0.02716   0.36405   0.80579   0.00000  Uiso   1.00
O1340  O     0.47075   0.64542   0.87329   0.00000  Uiso   1.00
O1341  O     0.25279   0.64933   0.74955   0.00000  Uiso   1.00
O1342  O     0.26335   0.35138   0.91501   0.00000  Uiso   1.00
O1343  O     0.24675   0.57129   0.79341   0.00000  Uiso   1.00
O1344  O     0.24480   0.41892   0.76945   0.00000  Uiso   1.00
O1345  O     0.25520   0.58108   0.89721   0.00000  Uiso   1.00
O1346  O     0.18936   0.50488   0.88524   0.00000  Uiso   1.00
O1347  O     0.31065   0.49512   0.78143   0.00000  Uiso   1.00
O1348  O     0.18090   0.49510   0.78143   0.00000  Uiso   1.00
O1349  O     0.31910   0.50490   0.88523   0.00000  Uiso   1.00
O1350  O     0.39250   0.59596   0.84106   0.00000  Uiso   1.00
C1351  C     0.74849   0.40004   0.81780   0.00000  Uiso   1.00
C1352  C     0.58841   0.45711   0.83140   0.00000  Uiso   1.00
C1353  C     0.88424   0.50560   0.83467   0.00000  Uiso   1.00
C1354  C     0.61628   0.50299   0.83711   0.00000  Uiso   1.00
C1355  C     0.90305   0.45992   0.82984   0.00000  Uiso   1.00
C1356  C     0.59824   0.54997   0.84600   0.00000  Uiso   1.00
C1357  C     0.94922   0.46017   0.83560   0.00000  Uiso   1.00
C1358  C     0.55216   0.55109   0.85109   0.00000  Uiso   1.00
C1359  C     0.97738   0.50616   0.84450   0.00000  Uiso   1.00
C1360  C     0.52398   0.50495   0.84407   0.00000  Uiso   1.00
C1361  C     0.95876   0.55293   0.85135   0.00000  Uiso   1.00
C1362  C     0.75195   0.59970   0.84833   0.00000  Uiso   1.00
C1363  C     0.54186   0.45739   0.83310   0.00000  Uiso   1.00
C1364  C     0.96720   0.41422   0.82874   0.00000  Uiso   1.00
C1365  C     0.53354   0.59759   0.86207   0.00000  Uiso   1.00
C1366  C     0.89048   0.60160   0.77989   0.00000  Uiso   1.00
C1367  C     0.84598   0.61811   0.76399   0.00000  Uiso   1.00
C1368  C     0.61164   0.39166   0.76480   0.00000  Uiso   1.00
C1369  C     0.61465   0.33525   0.75732   0.00000  Uiso   1.00
C1370  C     0.86638   0.40220   0.74970   0.00000  Uiso   1.00
C1371  C     0.64373   0.62052   0.89736   0.00000  Uiso   1.00
C1372  C     0.50422   0.33504   0.75012   0.00000  Uiso   1.00
C1373  C     0.51228   0.41159   0.82221   0.00000  Uiso   1.00
C1374  C     0.97483   0.33384   0.93606   0.00000  Uiso   1.00
C1375  C     0.71448   0.64608   0.70867   0.00000  Uiso   1.00
C1376  C     0.68501   0.59587   0.70396   0.00000  Uiso   1.00
C1377  C     0.80819   0.34930   0.93607   0.00000  Uiso   1.00
C1378  C     0.83455   0.40121   0.94230   0.00000  Uiso   1.00
C1379  C     0.98758   0.59888   0.86400   0.00000  Uiso   1.00
C1380  C     0.74830   0.34409   0.80802   0.00000  Uiso   1.00
C1381  C     0.75442   0.65534   0.85627   0.00000  Uiso   1.00
C1382  C     0.66462   0.50147   0.83439   0.00000  Uiso   1.00
C1383  C     0.83561   0.50385   0.83349   0.00000  Uiso   1.00
C1384  C     0.91178   0.55217   0.84428   0.00000  Uiso   1.00
Cu1385 Cu    0.75501   0.50579   0.89479   0.00000  Uiso   1.00
Cu1386 Cu    0.74500   0.49421   0.77187   0.00000  Uiso   1.00
H1387  H     0.94554   0.37918   0.82374   0.00000  Uiso   1.00
H1388  H     0.64270   0.40891   0.75077   0.00000  Uiso   1.00
H1389  H     0.58331   0.39729   0.73342   0.00000  Uiso   1.00
H1390  H     0.58745   0.64904   0.77664   0.00000  Uiso   1.00
H1391  H     0.61292   0.65127   0.70813   0.00000  Uiso   1.00
H1392  H     0.64577   0.66379   0.78295   0.00000  Uiso   1.00
H1393  H     0.88806   0.37367   0.72877   0.00000  Uiso   1.00
H1394  H     0.87041   0.43560   0.72784   0.00000  Uiso   1.00
H1395  H     0.83115   0.38580   0.73966   0.00000  Uiso   1.00
H1396  H     0.61906   0.62689   0.93163   0.00000  Uiso   1.00
H1397  H     0.65852   0.65870   0.89301   0.00000  Uiso   1.00
H1398  H     0.55444   0.63353   0.86899   0.00000  Uiso   1.00
H1399  H     0.67110   0.60061   0.91290   0.00000  Uiso   1.00
H1400  H     0.52765   0.66194   0.71468   0.00000  Uiso   1.00
H1401  H     0.97616   0.35245   0.73108   0.00000  Uiso   1.00
H1402  H     0.99151   0.63008   0.75620   0.00000  Uiso   1.00
H1403  H     0.51033   0.34614   0.95297   0.00000  Uiso   1.00
H1404  H     0.95913   0.64039   0.96194   0.00000  Uiso   1.00
H1405  H     0.95702   0.36844   0.94379   0.00000  Uiso   1.00
H1406  H     0.72574   0.64606   0.99641   0.00000  Uiso   1.00
H1407  H     0.69511   0.34576   0.71880   0.00000  Uiso   1.00
H1408  H     0.67582   0.59102   0.74915   0.00000  Uiso   1.00
H1409  H     0.71463   0.45939   0.98331   0.00000  Uiso   1.00
H1410  H     0.65423   0.59308   0.67396   0.00000  Uiso   1.00
H1411  H     0.70230   0.56386   0.68322   0.00000  Uiso   1.00
H1412  H     0.82591   0.65353   0.90680   0.00000  Uiso   1.00
H1413  H     0.80846   0.33894   0.98093   0.00000  Uiso   1.00
H1414  H     0.87011   0.39948   0.95625   0.00000  Uiso   1.00
H1415  H     0.83248   0.41212   0.89792   0.00000  Uiso   1.00
H1416  H     0.82055   0.43057   0.97578   0.00000  Uiso   1.00
H1417  H     0.78562   0.54021   0.68291   0.00000  Uiso   1.00
H1418  H     0.89446   0.56618   0.74526   0.00000  Uiso   1.00
H1419  H     0.91660   0.63166   0.77536   0.00000  Uiso   1.00
H1420  H     0.84070   0.65332   0.79699   0.00000  Uiso   1.00
H1421  H     0.84358   0.62401   0.71670   0.00000  Uiso   1.00
H1422  H     0.82027   0.58776   0.76756   0.00000  Uiso   1.00
N1423  N     0.73745   0.48547   0.67951   0.00000  Uiso   1.00
N1424  N     0.76256   0.51453   0.98716   0.00000  Uiso   1.00
O1425  O     0.75326   0.42871   0.87326   0.00000  Uiso   1.00
O1426  O     0.60729   0.41208   0.82676   0.00000  Uiso   1.00
O1427  O     0.87595   0.41422   0.81354   0.00000  Uiso   1.00
O1428  O     0.62419   0.59333   0.83987   0.00000  Uiso   1.00
O1429  O     0.52716   0.36405   0.80579   0.00000  Uiso   1.00
O1430  O     0.97075   0.64542   0.87329   0.00000  Uiso   1.00
O1431  O     0.75279   0.64933   0.74955   0.00000  Uiso   1.00
O1432  O     0.76335   0.35138   0.91501   0.00000  Uiso   1.00
O1433  O     0.74675   0.57129   0.79341   0.00000  Uiso   1.00
O1434  O     0.74480   0.41892   0.76945   0.00000  Uiso   1.00
O1435  O     0.75520   0.58108   0.89721   0.00000  Uiso   1.00
O1436  O     0.68936   0.50488   0.88524   0.00000  Uiso   1.00
O1437  O     0.81065   0.49512   0.78143   0.00000  Uiso   1.00
O1438  O     0.68090   0.49510   0.78143   0.00000  Uiso   1.00
O1439  O     0.81910   0.50490   0.88523   0.00000  Uiso   1.00
O1440  O     0.89250   0.59596   0.84106   0.00000  Uiso   1.00
C1441  C     0.24849   0.73337   0.81780   0.00000  Uiso   1.00
C1442  C     0.08841   0.79045   0.83140   0.00000  Uiso   1.00
C1443  C     0.38424   0.83893   0.83467   0.00000  Uiso   1.00
C1444  C     0.11628   0.83632   0.83711   0.00000  Uiso   1.00
C1445  C     0.40305   0.79325   0.82984   0.00000  Uiso   1.00
C1446  C     0.09824   0.88330   0.84600   0.00000  Uiso   1.00
C1447  C     0.44922   0.79351   0.83560   0.00000  Uiso   1.00
C1448  C     0.05216   0.88443   0.85109   0.00000  Uiso   1.00
C1449  C     0.47738   0.83949   0.84450   0.00000  Uiso   1.00
C1450  C     0.02398   0.83828   0.84407   0.00000  Uiso   1.00
C1451  C     0.45876   0.88626   0.85135   0.00000  Uiso   1.00
C1452  C     0.25195   0.93304   0.84833   0.00000  Uiso   1.00
C1453  C     0.04186   0.79072   0.83310   0.00000  Uiso   1.00
C1454  C     0.46720   0.74756   0.82874   0.00000  Uiso   1.00
C1455  C     0.03354   0.93092   0.86207   0.00000  Uiso   1.00
C1456  C     0.39048   0.93494   0.77989   0.00000  Uiso   1.00
C1457  C     0.34598   0.95144   0.76399   0.00000  Uiso   1.00
C1458  C     0.11164   0.72499   0.76480   0.00000  Uiso   1.00
C1459  C     0.11465   0.66858   0.75732   0.00000  Uiso   1.00
C1460  C     0.36638   0.73554   0.74970   0.00000  Uiso   1.00
C1461  C     0.14373   0.95385   0.89736   0.00000  Uiso   1.00
C1462  C     0.00422   0.66838   0.75012   0.00000  Uiso   1.00
C1463  C     0.01228   0.74492   0.82221   0.00000  Uiso   1.00
C1464  C     0.47483   0.66717   0.93606   0.00000  Uiso   1.00
C1465  C     0.21448   0.97941   0.70867   0.00000  Uiso   1.00
C1466  C     0.18501   0.92920   0.70396   0.00000  Uiso   1.00
C1467  C     0.30819   0.68264   0.93607   0.00000  Uiso   1.00
C1468  C     0.33455   0.73454   0.94230   0.00000  Uiso   1.00
C1469  C     0.48758   0.93222   0.86400   0.00000  Uiso   1.00
C1470  C     0.24830   0.67742   0.80802   0.00000  Uiso   1.00
C1471  C     0.25442   0.98867   0.85627   0.00000  Uiso   1.00
C1472  C     0.16462   0.83481   0.83439   0.00000  Uiso   1.00
C1473  C     0.33561   0.83718   0.83349   0.00000  Uiso   1.00
C1474  C     0.41178   0.88551   0.84428   0.00000  Uiso   1.00
Cu1475 Cu    0.25501   0.83913   0.89479   0.00000  Uiso   1.00
Cu1476 Cu    0.24500   0.82754   0.77187   0.00000  Uiso   1.00
H1477  H     0.44554   0.71252   0.82374   0.00000  Uiso   1.00
H1478  H     0.14270   0.74224   0.75077   0.00000  Uiso   1.00
H1479  H     0.08331   0.73062   0.73342   0.00000  Uiso   1.00
H1480  H     0.08745   0.98238   0.77664   0.00000  Uiso   1.00
H1481  H     0.11292   0.98460   0.70813   0.00000  Uiso   1.00
H1482  H     0.14577   0.99713   0.78295   0.00000  Uiso   1.00
H1483  H     0.38806   0.70701   0.72877   0.00000  Uiso   1.00
H1484  H     0.37041   0.76894   0.72784   0.00000  Uiso   1.00
H1485  H     0.33115   0.71913   0.73966   0.00000  Uiso   1.00
H1486  H     0.11906   0.96022   0.93163   0.00000  Uiso   1.00
H1487  H     0.15852   0.99203   0.89301   0.00000  Uiso   1.00
H1488  H     0.05444   0.96686   0.86899   0.00000  Uiso   1.00
H1489  H     0.17110   0.93394   0.91290   0.00000  Uiso   1.00
H1490  H     0.02765   0.99528   0.71468   0.00000  Uiso   1.00
H1491  H     0.47616   0.68578   0.73108   0.00000  Uiso   1.00
H1492  H     0.49151   0.96341   0.75620   0.00000  Uiso   1.00
H1493  H     0.01033   0.67948   0.95297   0.00000  Uiso   1.00
H1494  H     0.45913   0.97372   0.96194   0.00000  Uiso   1.00
H1495  H     0.45702   0.70178   0.94379   0.00000  Uiso   1.00
H1496  H     0.22574   0.97940   0.99641   0.00000  Uiso   1.00
H1497  H     0.19511   0.67910   0.71880   0.00000  Uiso   1.00
H1498  H     0.17582   0.92436   0.74915   0.00000  Uiso   1.00
H1499  H     0.21463   0.79273   0.98331   0.00000  Uiso   1.00
H1500  H     0.15423   0.92642   0.67396   0.00000  Uiso   1.00
H1501  H     0.20230   0.89719   0.68322   0.00000  Uiso   1.00
H1502  H     0.32591   0.98687   0.90680   0.00000  Uiso   1.00
H1503  H     0.30846   0.67227   0.98093   0.00000  Uiso   1.00
H1504  H     0.37011   0.73281   0.95625   0.00000  Uiso   1.00
H1505  H     0.33248   0.74546   0.89792   0.00000  Uiso   1.00
H1506  H     0.32055   0.76390   0.97578   0.00000  Uiso   1.00
H1507  H     0.28562   0.87354   0.68291   0.00000  Uiso   1.00
H1508  H     0.39446   0.89951   0.74526   0.00000  Uiso   1.00
H1509  H     0.41660   0.96499   0.77536   0.00000  Uiso   1.00
H1510  H     0.34070   0.98665   0.79699   0.00000  Uiso   1.00
H1511  H     0.34358   0.95734   0.71670   0.00000  Uiso   1.00
H1512  H     0.32027   0.92109   0.76756   0.00000  Uiso   1.00
N1513  N     0.23745   0.81881   0.67951   0.00000  Uiso   1.00
N1514  N     0.26256   0.84786   0.98716   0.00000  Uiso   1.00
O1515  O     0.25326   0.76204   0.87326   0.00000  Uiso   1.00
O1516  O     0.10729   0.74542   0.82676   0.00000  Uiso   1.00
O1517  O     0.37595   0.74755   0.81354   0.00000  Uiso   1.00
O1518  O     0.12419   0.92666   0.83987   0.00000  Uiso   1.00
O1519  O     0.02716   0.69738   0.80579   0.00000  Uiso   1.00
O1520  O     0.47075   0.97876   0.87329   0.00000  Uiso   1.00
O1521  O     0.25279   0.98266   0.74955   0.00000  Uiso   1.00
O1522  O     0.26335   0.68472   0.91501   0.00000  Uiso   1.00
O1523  O     0.24675   0.90462   0.79341   0.00000  Uiso   1.00
O1524  O     0.24480   0.75226   0.76945   0.00000  Uiso   1.00
O1525  O     0.25520   0.91441   0.89721   0.00000  Uiso   1.00
O1526  O     0.18936   0.83821   0.88524   0.00000  Uiso   1.00
O1527  O     0.31065   0.82845   0.78143   0.00000  Uiso   1.00
O1528  O     0.18090   0.82843   0.78143   0.00000  Uiso   1.00
O1529  O     0.31910   0.83824   0.88523   0.00000  Uiso   1.00
O1530  O     0.39250   0.92929   0.84106   0.00000  Uiso   1.00
C1531  C     0.74849   0.73337   0.81780   0.00000  Uiso   1.00
C1532  C     0.58841   0.79045   0.83140   0.00000  Uiso   1.00
C1533  C     0.88424   0.83893   0.83467   0.00000  Uiso   1.00
C1534  C     0.61628   0.83632   0.83711   0.00000  Uiso   1.00
C1535  C     0.90305   0.79325   0.82984   0.00000  Uiso   1.00
C1536  C     0.59824   0.88330   0.84600   0.00000  Uiso   1.00
C1537  C     0.94922   0.79351   0.83560   0.00000  Uiso   1.00
C1538  C     0.55216   0.88443   0.85109   0.00000  Uiso   1.00
C1539  C     0.97738   0.83949   0.84450   0.00000  Uiso   1.00
C1540  C     0.52398   0.83828   0.84407   0.00000  Uiso   1.00
C1541  C     0.95876   0.88626   0.85135   0.00000  Uiso   1.00
C1542  C     0.75195   0.93304   0.84833   0.00000  Uiso   1.00
C1543  C     0.54186   0.79072   0.83310   0.00000  Uiso   1.00
C1544  C     0.96720   0.74756   0.82874   0.00000  Uiso   1.00
C1545  C     0.53354   0.93092   0.86207   0.00000  Uiso   1.00
C1546  C     0.89048   0.93494   0.77989   0.00000  Uiso   1.00
C1547  C     0.84598   0.95144   0.76399   0.00000  Uiso   1.00
C1548  C     0.61164   0.72499   0.76480   0.00000  Uiso   1.00
C1549  C     0.61465   0.66858   0.75732   0.00000  Uiso   1.00
C1550  C     0.86638   0.73554   0.74970   0.00000  Uiso   1.00
C1551  C     0.64373   0.95385   0.89736   0.00000  Uiso   1.00
C1552  C     0.50422   0.66838   0.75012   0.00000  Uiso   1.00
C1553  C     0.51228   0.74492   0.82221   0.00000  Uiso   1.00
C1554  C     0.97483   0.66717   0.93606   0.00000  Uiso   1.00
C1555  C     0.71448   0.97941   0.70867   0.00000  Uiso   1.00
C1556  C     0.68501   0.92920   0.70396   0.00000  Uiso   1.00
C1557  C     0.80819   0.68264   0.93607   0.00000  Uiso   1.00
C1558  C     0.83455   0.73454   0.94230   0.00000  Uiso   1.00
C1559  C     0.98758   0.93222   0.86400   0.00000  Uiso   1.00
C1560  C     0.74830   0.67742   0.80802   0.00000  Uiso   1.00
C1561  C     0.75442   0.98867   0.85627   0.00000  Uiso   1.00
C1562  C     0.66462   0.83481   0.83439   0.00000  Uiso   1.00
C1563  C     0.83561   0.83718   0.83349   0.00000  Uiso   1.00
C1564  C     0.91178   0.88551   0.84428   0.00000  Uiso   1.00
Cu1565 Cu    0.75501   0.83913   0.89479   0.00000  Uiso   1.00
Cu1566 Cu    0.74500   0.82754   0.77187   0.00000  Uiso   1.00
H1567  H     0.94554   0.71252   0.82374   0.00000  Uiso   1.00
H1568  H     0.64270   0.74224   0.75077   0.00000  Uiso   1.00
H1569  H     0.58331   0.73062   0.73342   0.00000  Uiso   1.00
H1570  H     0.58745   0.98238   0.77664   0.00000  Uiso   1.00
H1571  H     0.61292   0.98460   0.70813   0.00000  Uiso   1.00
H1572  H     0.64577   0.99713   0.78295   0.00000  Uiso   1.00
H1573  H     0.88806   0.70701   0.72877   0.00000  Uiso   1.00
H1574  H     0.87041   0.76894   0.72784   0.00000  Uiso   1.00
H1575  H     0.83115   0.71913   0.73966   0.00000  Uiso   1.00
H1576  H     0.61906   0.96022   0.93163   0.00000  Uiso   1.00
H1577  H     0.65852   0.99203   0.89301   0.00000  Uiso   1.00
H1578  H     0.55444   0.96686   0.86899   0.00000  Uiso   1.00
H1579  H     0.67110   0.93394   0.91290   0.00000  Uiso   1.00
H1580  H     0.52765   0.99528   0.71468   0.00000  Uiso   1.00
H1581  H     0.97616   0.68578   0.73108   0.00000  Uiso   1.00
H1582  H     0.99151   0.96341   0.75620   0.00000  Uiso   1.00
H1583  H     0.51033   0.67948   0.95297   0.00000  Uiso   1.00
H1584  H     0.95913   0.97372   0.96194   0.00000  Uiso   1.00
H1585  H     0.95702   0.70178   0.94379   0.00000  Uiso   1.00
H1586  H     0.72574   0.97940   0.99641   0.00000  Uiso   1.00
H1587  H     0.69511   0.67910   0.71880   0.00000  Uiso   1.00
H1588  H     0.67582   0.92436   0.74915   0.00000  Uiso   1.00
H1589  H     0.71463   0.79273   0.98331   0.00000  Uiso   1.00
H1590  H     0.65423   0.92642   0.67396   0.00000  Uiso   1.00
H1591  H     0.70230   0.89719   0.68322   0.00000  Uiso   1.00
H1592  H     0.82591   0.98687   0.90680   0.00000  Uiso   1.00
H1593  H     0.80846   0.67227   0.98093   0.00000  Uiso   1.00
H1594  H     0.87011   0.73281   0.95625   0.00000  Uiso   1.00
H1595  H     0.83248   0.74546   0.89792   0.00000  Uiso   1.00
H1596  H     0.82055   0.76390   0.97578   0.00000  Uiso   1.00
H1597  H     0.78562   0.87354   0.68291   0.00000  Uiso   1.00
H1598  H     0.89446   0.89951   0.74526   0.00000  Uiso   1.00
H1599  H     0.91660   0.96499   0.77536   0.00000  Uiso   1.00
H1600  H     0.84070   0.98665   0.79699   0.00000  Uiso   1.00
H1601  H     0.84358   0.95734   0.71670   0.00000  Uiso   1.00
H1602  H     0.82027   0.92109   0.76756   0.00000  Uiso   1.00
N1603  N     0.73745   0.81881   0.67951   0.00000  Uiso   1.00
N1604  N     0.76256   0.84786   0.98716   0.00000  Uiso   1.00
O1605  O     0.75326   0.76204   0.87326   0.00000  Uiso   1.00
O1606  O     0.60729   0.74542   0.82676   0.00000  Uiso   1.00
O1607  O     0.87595   0.74755   0.81354   0.00000  Uiso   1.00
O1608  O     0.62419   0.92666   0.83987   0.00000  Uiso   1.00
O1609  O     0.52716   0.69738   0.80579   0.00000  Uiso   1.00
O1610  O     0.97075   0.97876   0.87329   0.00000  Uiso   1.00
O1611  O     0.75279   0.98266   0.74955   0.00000  Uiso   1.00
O1612  O     0.76335   0.68472   0.91501   0.00000  Uiso   1.00
O1613  O     0.74675   0.90462   0.79341   0.00000  Uiso   1.00
O1614  O     0.74480   0.75226   0.76945   0.00000  Uiso   1.00
O1615  O     0.75520   0.91441   0.89721   0.00000  Uiso   1.00
O1616  O     0.68936   0.83821   0.88524   0.00000  Uiso   1.00
O1617  O     0.81065   0.82845   0.78143   0.00000  Uiso   1.00
O1618  O     0.68090   0.82843   0.78143   0.00000  Uiso   1.00
O1619  O     0.81910   0.83824   0.88523   0.00000  Uiso   1.00
O1620  O     0.89250   0.92929   0.84106   0.00000  Uiso   1.00
loop_
_geom_bond_atom_site_label_1
_geom_bond_atom_site_label_2
_geom_bond_distance
_geom_bond_site_symmetry_2
_ccdc_geom_bond_type
C1     O75     1.313   .     A
C1     O84     1.299   .     A
C1     C30     1.475   .     S
C2     C13     1.416   .     A
C2     C4      1.406   .     A
C2     O76     1.377   .     S
C3     C33     1.469   .     S
C3     C34     1.407   .     A
C3     C5      1.391   .     A
C4     C6      1.407   .     A
C4     C32     1.476   .     S
C5     C7      1.396   .     A
C5     O77     1.378   .     S
C6     O78     1.383   .     S
C6     C8      1.413   .     A
C7     C14     1.382   .     A
C7     C9      1.405   .     A
C8     C15     1.404   .     A
C8     C10     1.413   .     A
C9     C11     1.412   .     A
C9     C100    1.417   .     S
C10    C13     1.418   .     A
C10    C99     1.417   1_455 S
C11    C34     1.420   .     A
C11    C29     1.410   .     A
C12    O85     1.306   .     A
C12    O83     1.300   .     A
C12    C31     1.465   .     S
C13    C23     1.420   .     A
C14    H37     1.078   .     S
C14    C113    1.392   .     S
C15    H48     1.081   .     S
C15    C119    1.401   1_455 S
C16    O90     1.417   .     S
C16    C17     1.503   .     S
C16    H68     1.120   .     S
C16    H69     1.104   .     S
C17    H70     1.107   .     S
C17    H71     1.109   .     S
C17    H72     1.095   .     S
C18    C19     1.505   .     S
C18    H39     1.116   .     S
C18    O76     1.409   .     S
C18    H38     1.107   .     S
C19    H400    1.101   1_545 S
C19    H401    1.104   1_545 S
C19    H402    1.104   1_545 S
C20    O77     1.409   .     S
C20    H45     1.105   .     S
C20    H44     1.115   .     S
C20    H43     1.110   .     S
C21    H49     1.105   .     S
C21    O78     1.405   .     S
C21    H46     1.112   .     S
C21    H47     1.109   .     S
C22    O79     1.424   .     S
C22    H410    1.104   1_545 S
C22    H141    1.113   1_455 S
C22    H502    1.106   1_445 S
C23    O79     1.383   .     S
C23    C104    1.392   1_455 S
C24    H55     1.109   .     S
C24    H143    1.111   .     S
C24    H414    1.114   1_545 S
C24    O440    1.404   1_545 S
C25    O81     1.415   .     S
C25    C26     1.528   .     S
C25    H1136   1.106   1_554 S
C25    H237    1.104   .     S
C26    H61     1.089   .     S
C26    H58     1.106   .     S
C26    H60     1.100   .     S
C27    H63     1.105   .     S
C27    O82     1.418   .     S
C27    C28     1.517   .     S
C27    H422    1.118   1_545 S
C28    H66     1.110   .     S
C28    H64     1.110   .     S
C28    H65     1.100   .     S
C29    O80     1.379   .     S
C29    C105    1.401   .     S
C30    C391    1.356   1_545 S
C30    O441    1.397   1_545 S
C31    C210    1.356   .     S
C31    O262    1.385   .     S
C32    O88     1.308   .     A
C32    O86     1.306   .     A
C33    O89     1.298   .     A
C33    O87     1.315   .     A
C34    O90     1.378   .     S
Cu35   N74     2.040   .     S
Cu35   Cu36    2.714   .     S
Cu35   O75     2.024   .     S
Cu35   O86     1.985   .     S
Cu35   O89     1.973   .     S
Cu35   O85     2.016   .     S
Cu36   O88     1.973   .     S
Cu36   O83     2.024   .     S
Cu36   O87     1.985   .     S
Cu36   O84     2.016   .     S
Cu36   N73     2.040   .     S
H40    C199    1.101   .     S
H41    C199    1.104   .     S
H42    C199    1.104   .     S
H50    C202    1.104   .     S
H51    C112    1.113   .     S
H52    C292    1.106   .     S
H53    C114    1.111   1_455 S
H54    C204    1.114   .     S
H56    C565    1.106   .     S
H57    C385    1.104   1_545 S
H59    N613    1.029   .     S
H62    C207    1.118   .     S
H67    N1154   1.024   1_554 S
N73    H1139   1.029   1_554 S
N73    N1154   1.292   1_554 S
N74    N613    1.292   .     S
N74    H607    1.024   .     S
O80    C204    1.404   .     S
O81    C210    1.397   .     S
O82    C391    1.385   1_545 S
C91    O165    1.313   .     A
C91    O174    1.299   .     A
C91    C120    1.475   .     S
C92    C103    1.416   .     A
C92    C94     1.406   .     A
C92    O166    1.377   .     S
C93    C123    1.469   .     S
C93    C124    1.407   .     A
C93    C95     1.391   .     A
C94    C96     1.407   .     A
C94    C122    1.476   .     S
C95    C97     1.396   .     A
C95    O167    1.378   .     S
C96    O168    1.383   .     S
C96    C98     1.413   .     A
C97    C104    1.382   .     A
C97    C99     1.405   .     A
C98    C105    1.404   .     A
C98    C100    1.413   .     A
C99    C101    1.412   .     A
C99    C10     1.417   1_655 S
C100   C103    1.418   .     A
C101   C124    1.420   .     A
C101   C119    1.410   .     A
C102   O175    1.306   .     A
C102   O173    1.300   .     A
C102   C121    1.465   .     S
C103   C113    1.420   .     A
C104   H127    1.078   .     S
C104   C23     1.392   1_655 S
C105   H138    1.081   .     S
C106   O180    1.417   .     S
C106   C107    1.503   .     S
C106   H158    1.120   .     S
C106   H159    1.104   .     S
C107   H160    1.107   .     S
C107   H161    1.109   .     S
C107   H162    1.095   .     S
C108   C109    1.505   .     S
C108   H129    1.116   .     S
C108   O166    1.409   .     S
C108   H128    1.107   .     S
C109   H490    1.101   1_545 S
C109   H491    1.104   1_545 S
C109   H492    1.104   1_545 S
C110   O167    1.409   .     S
C110   H135    1.105   .     S
C110   H134    1.115   .     S
C110   H133    1.110   .     S
C111   H139    1.105   .     S
C111   O168    1.405   .     S
C111   H136    1.112   .     S
C111   H137    1.109   .     S
C112   O169    1.424   .     S
C112   H500    1.104   1_545 S
C112   H412    1.106   1_545 S
C113   O169    1.383   .     S
C114   H145    1.109   .     S
C114   H53     1.111   1_655 S
C114   H504    1.114   1_545 S
C114   O530    1.404   1_545 S
C115   O171    1.415   .     S
C115   C116    1.528   .     S
C115   H1226   1.106   1_554 S
C115   H327    1.104   .     S
C116   H151    1.089   .     S
C116   H148    1.106   .     S
C116   H150    1.100   .     S
C117   H153    1.105   .     S
C117   O172    1.418   .     S
C117   C118    1.517   .     S
C117   H512    1.118   1_545 S
C118   H156    1.110   .     S
C118   H154    1.110   .     S
C118   H155    1.100   .     S
C119   O170    1.379   .     S
C119   C15     1.401   1_655 S
C120   C481    1.356   1_545 S
C120   O531    1.397   1_545 S
C121   C300    1.356   .     S
C121   O352    1.385   .     S
C122   O178    1.308   .     A
C122   O176    1.306   .     A
C123   O179    1.298   .     A
C123   O177    1.315   .     A
C124   O180    1.378   .     S
Cu125  N164    2.040   .     S
Cu125  Cu126   2.714   .     S
Cu125  O165    2.024   .     S
Cu125  O176    1.985   .     S
Cu125  O179    1.973   .     S
Cu125  O175    2.016   .     S
Cu126  O178    1.973   .     S
Cu126  O173    2.024   .     S
Cu126  O177    1.985   .     S
Cu126  O174    2.016   .     S
Cu126  N163    2.040   .     S
H130   C289    1.101   .     S
H131   C289    1.104   .     S
H132   C289    1.104   .     S
H140   C292    1.104   .     S
H141   C22     1.113   1_655 S
H142   C202    1.106   1_655 S
H144   C294    1.114   .     S
H146   C655    1.106   .     S
H147   C475    1.104   1_545 S
H149   N703    1.029   .     S
H152   C297    1.118   .     S
H157   N1244   1.024   1_554 S
N163   H1229   1.029   1_554 S
N163   N1244   1.292   1_554 S
N164   N703    1.292   .     S
N164   H697    1.024   .     S
O170   C294    1.404   .     S
O171   C300    1.397   .     S
O172   C481    1.385   1_545 S
C181   O255    1.313   .     A
C181   O264    1.299   .     A
C181   C210    1.475   .     S
C182   C193    1.416   .     A
C182   C184    1.406   .     A
C182   O256    1.377   .     S
C183   C213    1.469   .     S
C183   C214    1.407   .     A
C183   C185    1.391   .     A
C184   C186    1.407   .     A
C184   C212    1.476   .     S
C185   C187    1.396   .     A
C185   O257    1.378   .     S
C186   O258    1.383   .     S
C186   C188    1.413   .     A
C187   C194    1.382   .     A
C187   C189    1.405   .     A
C188   C195    1.404   .     A
C188   C190    1.413   .     A
C189   C191    1.412   .     A
C189   C280    1.417   .     S
C190   C193    1.418   .     A
C190   C279    1.417   1_455 S
C191   C214    1.420   .     A
C191   C209    1.410   .     A
C192   O265    1.306   .     A
C192   O263    1.300   .     A
C192   C211    1.465   .     S
C193   C203    1.420   .     A
C194   H217    1.078   .     S
C194   C293    1.392   .     S
C195   H228    1.081   .     S
C195   C299    1.401   1_455 S
C196   O270    1.417   .     S
C196   C197    1.503   .     S
C196   H248    1.120   .     S
C196   H249    1.104   .     S
C197   H250    1.107   .     S
C197   H251    1.109   .     S
C197   H252    1.095   .     S
C198   C199    1.505   .     S
C198   H219    1.116   .     S
C198   O256    1.409   .     S
C198   H218    1.107   .     S
C200   O257    1.409   .     S
C200   H225    1.105   .     S
C200   H224    1.115   .     S
C200   H223    1.110   .     S
C201   H229    1.105   .     S
C201   O258    1.405   .     S
C201   H226    1.112   .     S
C201   H227    1.109   .     S
C202   O259    1.424   .     S
C202   H321    1.113   1_455 S
C202   H142    1.106   1_455 S
C203   O259    1.383   .     S
C203   C284    1.392   1_455 S
C204   H235    1.109   .     S
C204   H323    1.111   .     S
C205   O261    1.415   .     S
C205   C206    1.528   .     S
C205   H1316   1.106   1_554 S
C205   H417    1.104   .     S
C206   H241    1.089   .     S
C206   H238    1.106   .     S
C206   H240    1.100   .     S
C207   H243    1.105   .     S
C207   O262    1.418   .     S
C207   C208    1.517   .     S
C208   H246    1.110   .     S
C208   H244    1.110   .     S
C208   H245    1.100   .     S
C209   O260    1.379   .     S
C209   C285    1.401   .     S
C211   C390    1.356   .     S
C211   O442    1.385   .     S
C212   O268    1.308   .     A
C212   O266    1.306   .     A
C213   O269    1.298   .     A
C213   O267    1.315   .     A
C214   O270    1.378   .     S
Cu215  N254    2.040   .     S
Cu215  Cu216   2.714   .     S
Cu215  O255    2.024   .     S
Cu215  O266    1.985   .     S
Cu215  O269    1.973   .     S
Cu215  O265    2.016   .     S
Cu216  O268    1.973   .     S
Cu216  O263    2.024   .     S
Cu216  O267    1.985   .     S
Cu216  O264    2.016   .     S
Cu216  N253    2.040   .     S
H220   C379    1.101   .     S
H221   C379    1.104   .     S
H222   C379    1.104   .     S
H230   C382    1.104   .     S
H231   C292    1.113   .     S
H232   C472    1.106   .     S
H233   C294    1.111   1_455 S
H234   C384    1.114   .     S
H236   C745    1.106   .     S
H239   N793    1.029   .     S
H242   C387    1.118   .     S
H247   N1334   1.024   1_554 S
N253   H1319   1.029   1_554 S
N253   N1334   1.292   1_554 S
N254   N793    1.292   .     S
N254   H787    1.024   .     S
O260   C384    1.404   .     S
O261   C390    1.397   .     S
C271   O345    1.313   .     A
C271   O354    1.299   .     A
C271   C300    1.475   .     S
C272   C283    1.416   .     A
C272   C274    1.406   .     A
C272   O346    1.377   .     S
C273   C303    1.469   .     S
C273   C304    1.407   .     A
C273   C275    1.391   .     A
C274   C276    1.407   .     A
C274   C302    1.476   .     S
C275   C277    1.396   .     A
C275   O347    1.378   .     S
C276   O348    1.383   .     S
C276   C278    1.413   .     A
C277   C284    1.382   .     A
C277   C279    1.405   .     A
C278   C285    1.404   .     A
C278   C280    1.413   .     A
C279   C281    1.412   .     A
C279   C190    1.417   1_655 S
C280   C283    1.418   .     A
C281   C304    1.420   .     A
C281   C299    1.410   .     A
C282   O355    1.306   .     A
C282   O353    1.300   .     A
C282   C301    1.465   .     S
C283   C293    1.420   .     A
C284   H307    1.078   .     S
C284   C203    1.392   1_655 S
C285   H318    1.081   .     S
C286   O360    1.417   .     S
C286   C287    1.503   .     S
C286   H338    1.120   .     S
C286   H339    1.104   .     S
C287   H340    1.107   .     S
C287   H341    1.109   .     S
C287   H342    1.095   .     S
C288   C289    1.505   .     S
C288   H309    1.116   .     S
C288   O346    1.409   .     S
C288   H308    1.107   .     S
C290   O347    1.409   .     S
C290   H315    1.105   .     S
C290   H314    1.115   .     S
C290   H313    1.110   .     S
C291   H319    1.105   .     S
C291   O348    1.405   .     S
C291   H316    1.112   .     S
C291   H317    1.109   .     S
C292   O349    1.424   .     S
C293   O349    1.383   .     S
C294   H325    1.109   .     S
C294   H233    1.111   1_655 S
C295   O351    1.415   .     S
C295   C296    1.528   .     S
C295   H1406   1.106   1_554 S
C295   H507    1.104   .     S
C296   H331    1.089   .     S
C296   H328    1.106   .     S
C296   H330    1.100   .     S
C297   H333    1.105   .     S
C297   O352    1.418   .     S
C297   C298    1.517   .     S
C298   H336    1.110   .     S
C298   H334    1.110   .     S
C298   H335    1.100   .     S
C299   O350    1.379   .     S
C299   C195    1.401   1_655 S
C301   C480    1.356   .     S
C301   O532    1.385   .     S
C302   O358    1.308   .     A
C302   O356    1.306   .     A
C303   O359    1.298   .     A
C303   O357    1.315   .     A
C304   O360    1.378   .     S
Cu305  N344    2.040   .     S
Cu305  Cu306   2.714   .     S
Cu305  O345    2.024   .     S
Cu305  O356    1.985   .     S
Cu305  O359    1.973   .     S
Cu305  O355    2.016   .     S
Cu306  O358    1.973   .     S
Cu306  O353    2.024   .     S
Cu306  O357    1.985   .     S
Cu306  O354    2.016   .     S
Cu306  N343    2.040   .     S
H310   C469    1.101   .     S
H311   C469    1.104   .     S
H312   C469    1.104   .     S
H320   C472    1.104   .     S
H321   C202    1.113   1_655 S
H322   C382    1.106   1_655 S
H324   C474    1.114   .     S
H326   C835    1.106   .     S
H329   N883    1.029   .     S
H332   C477    1.118   .     S
H337   N1424   1.024   1_554 S
N343   H1409   1.029   1_554 S
N343   N1424   1.292   1_554 S
N344   N883    1.292   .     S
N344   H877    1.024   .     S
O350   C474    1.404   .     S
O351   C480    1.397   .     S
C361   O435    1.313   .     A
C361   O444    1.299   .     A
C361   C390    1.475   .     S
C362   C373    1.416   .     A
C362   C364    1.406   .     A
C362   O436    1.377   .     S
C363   C393    1.469   .     S
C363   C394    1.407   .     A
C363   C365    1.391   .     A
C364   C366    1.407   .     A
C364   C392    1.476   .     S
C365   C367    1.396   .     A
C365   O437    1.378   .     S
C366   O438    1.383   .     S
C366   C368    1.413   .     A
C367   C374    1.382   .     A
C367   C369    1.405   .     A
C368   C375    1.404   .     A
C368   C370    1.413   .     A
C369   C371    1.412   .     A
C369   C460    1.417   .     S
C370   C373    1.418   .     A
C370   C459    1.417   1_455 S
C371   C394    1.420   .     A
C371   C389    1.410   .     A
C372   O445    1.306   .     A
C372   O443    1.300   .     A
C372   C391    1.465   .     S
C373   C383    1.420   .     A
C374   H397    1.078   .     S
C374   C473    1.392   .     S
C375   H408    1.081   .     S
C375   C479    1.401   1_455 S
C376   O450    1.417   .     S
C376   C377    1.503   .     S
C376   H428    1.120   .     S
C376   H429    1.104   .     S
C377   H430    1.107   .     S
C377   H431    1.109   .     S
C377   H432    1.095   .     S
C378   C379    1.505   .     S
C378   H399    1.116   .     S
C378   O436    1.409   .     S
C378   H398    1.107   .     S
C380   O437    1.409   .     S
C380   H405    1.105   .     S
C380   H404    1.115   .     S
C380   H403    1.110   .     S
C381   H409    1.105   .     S
C381   O438    1.405   .     S
C381   H406    1.112   .     S
C381   H407    1.109   .     S
C382   O439    1.424   .     S
C382   H501    1.113   1_455 S
C382   H322    1.106   1_455 S
C383   O439    1.383   .     S
C383   C464    1.392   1_455 S
C384   H415    1.109   .     S
C384   H503    1.111   .     S
C385   O441    1.415   .     S
C385   C386    1.528   .     S
C385   H1496   1.106   1_554 S
C385   H57     1.104   1_565 S
C386   H421    1.089   .     S
C386   H418    1.106   .     S
C386   H420    1.100   .     S
C387   H423    1.105   .     S
C387   O442    1.418   .     S
C387   C388    1.517   .     S
C388   H426    1.110   .     S
C388   H424    1.110   .     S
C388   H425    1.100   .     S
C389   O440    1.379   .     S
C389   C465    1.401   .     S
C391   C30     1.356   1_565 S
C391   O82     1.385   1_565 S
C392   O448    1.308   .     A
C392   O446    1.306   .     A
C393   O449    1.298   .     A
C393   O447    1.315   .     A
C394   O450    1.378   .     S
Cu395  N434    2.040   .     S
Cu395  Cu396   2.714   .     S
Cu395  O435    2.024   .     S
Cu395  O446    1.985   .     S
Cu395  O449    1.973   .     S
Cu395  O445    2.016   .     S
Cu396  O448    1.973   .     S
Cu396  O443    2.024   .     S
Cu396  O447    1.985   .     S
Cu396  O444    2.016   .     S
Cu396  N433    2.040   .     S
H400   C19     1.101   1_565 S
H401   C19     1.104   1_565 S
H402   C19     1.104   1_565 S
H410   C22     1.104   1_565 S
H411   C472    1.113   .     S
H412   C112    1.106   1_565 S
H413   C474    1.111   1_455 S
H414   C24     1.114   1_565 S
H416   C925    1.106   .     S
H419   N973    1.029   .     S
H422   C27     1.118   1_565 S
H427   N1514   1.024   1_554 S
N433   H1499   1.029   1_554 S
N433   N1514   1.292   1_554 S
N434   N973    1.292   .     S
N434   H967    1.024   .     S
O440   C24     1.404   1_565 S
O441   C30     1.397   1_565 S
C451   O525    1.313   .     A
C451   O534    1.299   .     A
C451   C480    1.475   .     S
C452   C463    1.416   .     A
C452   C454    1.406   .     A
C452   O526    1.377   .     S
C453   C483    1.469   .     S
C453   C484    1.407   .     A
C453   C455    1.391   .     A
C454   C456    1.407   .     A
C454   C482    1.476   .     S
C455   C457    1.396   .     A
C455   O527    1.378   .     S
C456   O528    1.383   .     S
C456   C458    1.413   .     A
C457   C464    1.382   .     A
C457   C459    1.405   .     A
C458   C465    1.404   .     A
C458   C460    1.413   .     A
C459   C461    1.412   .     A
C459   C370    1.417   1_655 S
C460   C463    1.418   .     A
C461   C484    1.420   .     A
C461   C479    1.410   .     A
C462   O535    1.306   .     A
C462   O533    1.300   .     A
C462   C481    1.465   .     S
C463   C473    1.420   .     A
C464   H487    1.078   .     S
C464   C383    1.392   1_655 S
C465   H498    1.081   .     S
C466   O540    1.417   .     S
C466   C467    1.503   .     S
C466   H518    1.120   .     S
C466   H519    1.104   .     S
C467   H520    1.107   .     S
C467   H521    1.109   .     S
C467   H522    1.095   .     S
C468   C469    1.505   .     S
C468   H489    1.116   .     S
C468   O526    1.409   .     S
C468   H488    1.107   .     S
C470   O527    1.409   .     S
C470   H495    1.105   .     S
C470   H494    1.115   .     S
C470   H493    1.110   .     S
C471   H499    1.105   .     S
C471   O528    1.405   .     S
C471   H496    1.112   .     S
C471   H497    1.109   .     S
C472   O529    1.424   .     S
C473   O529    1.383   .     S
C474   H505    1.109   .     S
C474   H413    1.111   1_655 S
C475   O531    1.415   .     S
C475   C476    1.528   .     S
C475   H1586   1.106   1_554 S
C475   H147    1.104   1_565 S
C476   H511    1.089   .     S
C476   H508    1.106   .     S
C476   H510    1.100   .     S
C477   H513    1.105   .     S
C477   O532    1.418   .     S
C477   C478    1.517   .     S
C478   H516    1.110   .     S
C478   H514    1.110   .     S
C478   H515    1.100   .     S
C479   O530    1.379   .     S
C479   C375    1.401   1_655 S
C481   C120    1.356   1_565 S
C481   O172    1.385   1_565 S
C482   O538    1.308   .     A
C482   O536    1.306   .     A
C483   O539    1.298   .     A
C483   O537    1.315   .     A
C484   O540    1.378   .     S
Cu485  N524    2.040   .     S
Cu485  Cu486   2.714   .     S
Cu485  O525    2.024   .     S
Cu485  O536    1.985   .     S
Cu485  O539    1.973   .     S
Cu485  O535    2.016   .     S
Cu486  O538    1.973   .     S
Cu486  O533    2.024   .     S
Cu486  O537    1.985   .     S
Cu486  O534    2.016   .     S
Cu486  N523    2.040   .     S
H490   C109    1.101   1_565 S
H491   C109    1.104   1_565 S
H492   C109    1.104   1_565 S
H500   C112    1.104   1_565 S
H501   C382    1.113   1_655 S
H502   C22     1.106   1_665 S
H504   C114    1.114   1_565 S
H506   C1015   1.106   .     S
H509   N1063   1.029   .     S
H512   C117    1.118   1_565 S
H517   N1604   1.024   1_554 S
N523   H1589   1.029   1_554 S
N523   N1604   1.292   1_554 S
N524   N1063   1.292   .     S
N524   H1057   1.024   .     S
O530   C114    1.404   1_565 S
O531   C120    1.397   1_565 S
C541   O615    1.313   .     A
C541   O624    1.299   .     A
C541   C570    1.475   .     S
C542   C553    1.416   .     A
C542   C544    1.406   .     A
C542   O616    1.377   .     S
C543   C573    1.469   .     S
C543   C574    1.407   .     A
C543   C545    1.391   .     A
C544   C546    1.407   .     A
C544   C572    1.476   .     S
C545   C547    1.396   .     A
C545   O617    1.378   .     S
C546   O618    1.383   .     S
C546   C548    1.413   .     A
C547   C554    1.382   .     A
C547   C549    1.405   .     A
C548   C555    1.404   .     A
C548   C550    1.413   .     A
C549   C551    1.412   .     A
C549   C640    1.417   .     S
C550   C553    1.418   .     A
C550   C639    1.417   1_455 S
C551   C574    1.420   .     A
C551   C569    1.410   .     A
C552   O625    1.306   .     A
C552   O623    1.300   .     A
C552   C571    1.465   .     S
C553   C563    1.420   .     A
C554   H577    1.078   .     S
C554   C653    1.392   .     S
C555   H588    1.081   .     S
C555   C659    1.401   1_455 S
C556   O630    1.417   .     S
C556   C557    1.503   .     S
C556   H608    1.120   .     S
C556   H609    1.104   .     S
C557   H610    1.107   .     S
C557   H611    1.109   .     S
C557   H612    1.095   .     S
C558   C559    1.505   .     S
C558   H579    1.116   .     S
C558   O616    1.409   .     S
C558   H578    1.107   .     S
C559   H940    1.101   1_545 S
C559   H941    1.104   1_545 S
C559   H942    1.104   1_545 S
C560   O617    1.409   .     S
C560   H585    1.105   .     S
C560   H584    1.115   .     S
C560   H583    1.110   .     S
C561   H589    1.105   .     S
C561   O618    1.405   .     S
C561   H586    1.112   .     S
C561   H587    1.109   .     S
C562   O619    1.424   .     S
C562   H950    1.104   1_545 S
C562   H681    1.113   1_455 S
C562   H1042   1.106   1_445 S
C563   O619    1.383   .     S
C563   C644    1.392   1_455 S
C564   H595    1.109   .     S
C564   H683    1.111   .     S
C564   H954    1.114   1_545 S
C564   O980    1.404   1_545 S
C565   O621    1.415   .     S
C565   C566    1.528   .     S
C565   H777    1.104   .     S
C566   H601    1.089   .     S
C566   H598    1.106   .     S
C566   H600    1.100   .     S
C567   H603    1.105   .     S
C567   O622    1.418   .     S
C567   C568    1.517   .     S
C567   H962    1.118   1_545 S
C568   H606    1.110   .     S
C568   H604    1.110   .     S
C568   H605    1.100   .     S
C569   O620    1.379   .     S
C569   C645    1.401   .     S
C570   C931    1.356   1_545 S
C570   O981    1.397   1_545 S
C571   C750    1.356   .     S
C571   O802    1.385   .     S
C572   O628    1.308   .     A
C572   O626    1.306   .     A
C573   O629    1.298   .     A
C573   O627    1.315   .     A
C574   O630    1.378   .     S
Cu575  N614    2.040   .     S
Cu575  Cu576   2.714   .     S
Cu575  O615    2.024   .     S
Cu575  O626    1.985   .     S
Cu575  O629    1.973   .     S
Cu575  O625    2.016   .     S
Cu576  O628    1.973   .     S
Cu576  O623    2.024   .     S
Cu576  O627    1.985   .     S
Cu576  O624    2.016   .     S
Cu576  N613    2.040   .     S
H580   C739    1.101   .     S
H581   C739    1.104   .     S
H582   C739    1.104   .     S
H590   C742    1.104   .     S
H591   C652    1.113   .     S
H592   C832    1.106   .     S
H593   C654    1.111   1_455 S
H594   C744    1.114   .     S
H596   C1105   1.106   .     S
H597   C925    1.104   1_545 S
H599   N1153   1.029   .     S
H602   C747    1.118   .     S
N614   N1153   1.292   .     S
N614   H1147   1.024   .     S
O620   C744    1.404   .     S
O621   C750    1.397   .     S
O622   C931    1.385   1_545 S
C631   O705    1.313   .     A
C631   O714    1.299   .     A
C631   C660    1.475   .     S
C632   C643    1.416   .     A
C632   C634    1.406   .     A
C632   O706    1.377   .     S
C633   C663    1.469   .     S
C633   C664    1.407   .     A
C633   C635    1.391   .     A
C634   C636    1.407   .     A
C634   C662    1.476   .     S
C635   C637    1.396   .     A
C635   O707    1.378   .     S
C636   O708    1.383   .     S
C636   C638    1.413   .     A
C637   C644    1.382   .     A
C637   C639    1.405   .     A
C638   C645    1.404   .     A
C638   C640    1.413   .     A
C639   C641    1.412   .     A
C639   C550    1.417   1_655 S
C640   C643    1.418   .     A
C641   C664    1.420   .     A
C641   C659    1.410   .     A
C642   O715    1.306   .     A
C642   O713    1.300   .     A
C642   C661    1.465   .     S
C643   C653    1.420   .     A
C644   H667    1.078   .     S
C644   C563    1.392   1_655 S
C645   H678    1.081   .     S
C646   O720    1.417   .     S
C646   C647    1.503   .     S
C646   H698    1.120   .     S
C646   H699    1.104   .     S
C647   H700    1.107   .     S
C647   H701    1.109   .     S
C647   H702    1.095   .     S
C648   C649    1.505   .     S
C648   H669    1.116   .     S
C648   O706    1.409   .     S
C648   H668    1.107   .     S
C649   H1030   1.101   1_545 S
C649   H1031   1.104   1_545 S
C649   H1032   1.104   1_545 S
C650   O707    1.409   .     S
C650   H675    1.105   .     S
C650   H674    1.115   .     S
C650   H673    1.110   .     S
C651   H679    1.105   .     S
C651   O708    1.405   .     S
C651   H676    1.112   .     S
C651   H677    1.109   .     S
C652   O709    1.424   .     S
C652   H1040   1.104   1_545 S
C652   H952    1.106   1_545 S
C653   O709    1.383   .     S
C654   H685    1.109   .     S
C654   H593    1.111   1_655 S
C654   H1044   1.114   1_545 S
C654   O1070   1.404   1_545 S
C655   O711    1.415   .     S
C655   C656    1.528   .     S
C655   H867    1.104   .     S
C656   H691    1.089   .     S
C656   H688    1.106   .     S
C656   H690    1.100   .     S
C657   H693    1.105   .     S
C657   O712    1.418   .     S
C657   C658    1.517   .     S
C657   H1052   1.118   1_545 S
C658   H696    1.110   .     S
C658   H694    1.110   .     S
C658   H695    1.100   .     S
C659   O710    1.379   .     S
C659   C555    1.401   1_655 S
C660   C1021   1.356   1_545 S
C660   O1071   1.397   1_545 S
C661   C840    1.356   .     S
C661   O892    1.385   .     S
C662   O718    1.308   .     A
C662   O716    1.306   .     A
C663   O719    1.298   .     A
C663   O717    1.315   .     A
C664   O720    1.378   .     S
Cu665  N704    2.040   .     S
Cu665  Cu666   2.714   .     S
Cu665  O705    2.024   .     S
Cu665  O716    1.985   .     S
Cu665  O719    1.973   .     S
Cu665  O715    2.016   .     S
Cu666  O718    1.973   .     S
Cu666  O713    2.024   .     S
Cu666  O717    1.985   .     S
Cu666  O714    2.016   .     S
Cu666  N703    2.040   .     S
H670   C829    1.101   .     S
H671   C829    1.104   .     S
H672   C829    1.104   .     S
H680   C832    1.104   .     S
H681   C562    1.113   1_655 S
H682   C742    1.106   1_655 S
H684   C834    1.114   .     S
H686   C1195   1.106   .     S
H687   C1015   1.104   1_545 S
H689   N1243   1.029   .     S
H692   C837    1.118   .     S
N704   N1243   1.292   .     S
N704   H1237   1.024   .     S
O710   C834    1.404   .     S
O711   C840    1.397   .     S
O712   C1021   1.385   1_545 S
C721   O795    1.313   .     A
C721   O804    1.299   .     A
C721   C750    1.475   .     S
C722   C733    1.416   .     A
C722   C724    1.406   .     A
C722   O796    1.377   .     S
C723   C753    1.469   .     S
C723   C754    1.407   .     A
C723   C725    1.391   .     A
C724   C726    1.407   .     A
C724   C752    1.476   .     S
C725   C727    1.396   .     A
C725   O797    1.378   .     S
C726   O798    1.383   .     S
C726   C728    1.413   .     A
C727   C734    1.382   .     A
C727   C729    1.405   .     A
C728   C735    1.404   .     A
C728   C730    1.413   .     A
C729   C731    1.412   .     A
C729   C820    1.417   .     S
C730   C733    1.418   .     A
C730   C819    1.417   1_455 S
C731   C754    1.420   .     A
C731   C749    1.410   .     A
C732   O805    1.306   .     A
C732   O803    1.300   .     A
C732   C751    1.465   .     S
C733   C743    1.420   .     A
C734   H757    1.078   .     S
C734   C833    1.392   .     S
C735   H768    1.081   .     S
C735   C839    1.401   1_455 S
C736   O810    1.417   .     S
C736   C737    1.503   .     S
C736   H788    1.120   .     S
C736   H789    1.104   .     S
C737   H790    1.107   .     S
C737   H791    1.109   .     S
C737   H792    1.095   .     S
C738   C739    1.505   .     S
C738   H759    1.116   .     S
C738   O796    1.409   .     S
C738   H758    1.107   .     S
C740   O797    1.409   .     S
C740   H765    1.105   .     S
C740   H764    1.115   .     S
C740   H763    1.110   .     S
C741   H769    1.105   .     S
C741   O798    1.405   .     S
C741   H766    1.112   .     S
C741   H767    1.109   .     S
C742   O799    1.424   .     S
C742   H861    1.113   1_455 S
C742   H682    1.106   1_455 S
C743   O799    1.383   .     S
C743   C824    1.392   1_455 S
C744   H775    1.109   .     S
C744   H863    1.111   .     S
C745   O801    1.415   .     S
C745   C746    1.528   .     S
C745   H957    1.104   .     S
C746   H781    1.089   .     S
C746   H778    1.106   .     S
C746   H780    1.100   .     S
C747   H783    1.105   .     S
C747   O802    1.418   .     S
C747   C748    1.517   .     S
C748   H786    1.110   .     S
C748   H784    1.110   .     S
C748   H785    1.100   .     S
C749   O800    1.379   .     S
C749   C825    1.401   .     S
C751   C930    1.356   .     S
C751   O982    1.385   .     S
C752   O808    1.308   .     A
C752   O806    1.306   .     A
C753   O809    1.298   .     A
C753   O807    1.315   .     A
C754   O810    1.378   .     S
Cu755  N794    2.040   .     S
Cu755  Cu756   2.714   .     S
Cu755  O795    2.024   .     S
Cu755  O806    1.985   .     S
Cu755  O809    1.973   .     S
Cu755  O805    2.016   .     S
Cu756  O808    1.973   .     S
Cu756  O803    2.024   .     S
Cu756  O807    1.985   .     S
Cu756  O804    2.016   .     S
Cu756  N793    2.040   .     S
H760   C919    1.101   .     S
H761   C919    1.104   .     S
H762   C919    1.104   .     S
H770   C922    1.104   .     S
H771   C832    1.113   .     S
H772   C1012   1.106   .     S
H773   C834    1.111   1_455 S
H774   C924    1.114   .     S
H776   C1285   1.106   .     S
H779   N1333   1.029   .     S
H782   C927    1.118   .     S
N794   N1333   1.292   .     S
N794   H1327   1.024   .     S
O800   C924    1.404   .     S
O801   C930    1.397   .     S
C811   O885    1.313   .     A
C811   O894    1.299   .     A
C811   C840    1.475   .     S
C812   C823    1.416   .     A
C812   C814    1.406   .     A
C812   O886    1.377   .     S
C813   C843    1.469   .     S
C813   C844    1.407   .     A
C813   C815    1.391   .     A
C814   C816    1.407   .     A
C814   C842    1.476   .     S
C815   C817    1.396   .     A
C815   O887    1.378   .     S
C816   O888    1.383   .     S
C816   C818    1.413   .     A
C817   C824    1.382   .     A
C817   C819    1.405   .     A
C818   C825    1.404   .     A
C818   C820    1.413   .     A
C819   C821    1.412   .     A
C819   C730    1.417   1_655 S
C820   C823    1.418   .     A
C821   C844    1.420   .     A
C821   C839    1.410   .     A
C822   O895    1.306   .     A
C822   O893    1.300   .     A
C822   C841    1.465   .     S
C823   C833    1.420   .     A
C824   H847    1.078   .     S
C824   C743    1.392   1_655 S
C825   H858    1.081   .     S
C826   O900    1.417   .     S
C826   C827    1.503   .     S
C826   H878    1.120   .     S
C826   H879    1.104   .     S
C827   H880    1.107   .     S
C827   H881    1.109   .     S
C827   H882    1.095   .     S
C828   C829    1.505   .     S
C828   H849    1.116   .     S
C828   O886    1.409   .     S
C828   H848    1.107   .     S
C830   O887    1.409   .     S
C830   H855    1.105   .     S
C830   H854    1.115   .     S
C830   H853    1.110   .     S
C831   H859    1.105   .     S
C831   O888    1.405   .     S
C831   H856    1.112   .     S
C831   H857    1.109   .     S
C832   O889    1.424   .     S
C833   O889    1.383   .     S
C834   H865    1.109   .     S
C834   H773    1.111   1_655 S
C835   O891    1.415   .     S
C835   C836    1.528   .     S
C835   H1047   1.104   .     S
C836   H871    1.089   .     S
C836   H868    1.106   .     S
C836   H870    1.100   .     S
C837   H873    1.105   .     S
C837   O892    1.418   .     S
C837   C838    1.517   .     S
C838   H876    1.110   .     S
C838   H874    1.110   .     S
C838   H875    1.100   .     S
C839   O890    1.379   .     S
C839   C735    1.401   1_655 S
C841   C1020   1.356   .     S
C841   O1072   1.385   .     S
C842   O898    1.308   .     A
C842   O896    1.306   .     A
C843   O899    1.298   .     A
C843   O897    1.315   .     A
C844   O900    1.378   .     S
Cu845  N884    2.040   .     S
Cu845  Cu846   2.714   .     S
Cu845  O885    2.024   .     S
Cu845  O896    1.985   .     S
Cu845  O899    1.973   .     S
Cu845  O895    2.016   .     S
Cu846  O898    1.973   .     S
Cu846  O893    2.024   .     S
Cu846  O897    1.985   .     S
Cu846  O894    2.016   .     S
Cu846  N883    2.040   .     S
H850   C1009   1.101   .     S
H851   C1009   1.104   .     S
H852   C1009   1.104   .     S
H860   C1012   1.104   .     S
H861   C742    1.113   1_655 S
H862   C922    1.106   1_655 S
H864   C1014   1.114   .     S
H866   C1375   1.106   .     S
H869   N1423   1.029   .     S
H872   C1017   1.118   .     S
N884   N1423   1.292   .     S
N884   H1417   1.024   .     S
O890   C1014   1.404   .     S
O891   C1020   1.397   .     S
C901   O975    1.313   .     A
C901   O984    1.299   .     A
C901   C930    1.475   .     S
C902   C913    1.416   .     A
C902   C904    1.406   .     A
C902   O976    1.377   .     S
C903   C933    1.469   .     S
C903   C934    1.407   .     A
C903   C905    1.391   .     A
C904   C906    1.407   .     A
C904   C932    1.476   .     S
C905   C907    1.396   .     A
C905   O977    1.378   .     S
C906   O978    1.383   .     S
C906   C908    1.413   .     A
C907   C914    1.382   .     A
C907   C909    1.405   .     A
C908   C915    1.404   .     A
C908   C910    1.413   .     A
C909   C911    1.412   .     A
C909   C1000   1.417   .     S
C910   C913    1.418   .     A
C910   C999    1.417   1_455 S
C911   C934    1.420   .     A
C911   C929    1.410   .     A
C912   O985    1.306   .     A
C912   O983    1.300   .     A
C912   C931    1.465   .     S
C913   C923    1.420   .     A
C914   H937    1.078   .     S
C914   C1013   1.392   .     S
C915   H948    1.081   .     S
C915   C1019   1.401   1_455 S
C916   O990    1.417   .     S
C916   C917    1.503   .     S
C916   H968    1.120   .     S
C916   H969    1.104   .     S
C917   H970    1.107   .     S
C917   H971    1.109   .     S
C917   H972    1.095   .     S
C918   C919    1.505   .     S
C918   H939    1.116   .     S
C918   O976    1.409   .     S
C918   H938    1.107   .     S
C920   O977    1.409   .     S
C920   H945    1.105   .     S
C920   H944    1.115   .     S
C920   H943    1.110   .     S
C921   H949    1.105   .     S
C921   O978    1.405   .     S
C921   H946    1.112   .     S
C921   H947    1.109   .     S
C922   O979    1.424   .     S
C922   H1041   1.113   1_455 S
C922   H862    1.106   1_455 S
C923   O979    1.383   .     S
C923   C1004   1.392   1_455 S
C924   H955    1.109   .     S
C924   H1043   1.111   .     S
C925   O981    1.415   .     S
C925   C926    1.528   .     S
C925   H597    1.104   1_565 S
C926   H961    1.089   .     S
C926   H958    1.106   .     S
C926   H960    1.100   .     S
C927   H963    1.105   .     S
C927   O982    1.418   .     S
C927   C928    1.517   .     S
C928   H966    1.110   .     S
C928   H964    1.110   .     S
C928   H965    1.100   .     S
C929   O980    1.379   .     S
C929   C1005   1.401   .     S
C931   C570    1.356   1_565 S
C931   O622    1.385   1_565 S
C932   O988    1.308   .     A
C932   O986    1.306   .     A
C933   O989    1.298   .     A
C933   O987    1.315   .     A
C934   O990    1.378   .     S
Cu935  N974    2.040   .     S
Cu935  Cu936   2.714   .     S
Cu935  O975    2.024   .     S
Cu935  O986    1.985   .     S
Cu935  O989    1.973   .     S
Cu935  O985    2.016   .     S
Cu936  O988    1.973   .     S
Cu936  O983    2.024   .     S
Cu936  O987    1.985   .     S
Cu936  O984    2.016   .     S
Cu936  N973    2.040   .     S
H940   C559    1.101   1_565 S
H941   C559    1.104   1_565 S
H942   C559    1.104   1_565 S
H950   C562    1.104   1_565 S
H951   C1012   1.113   .     S
H952   C652    1.106   1_565 S
H953   C1014   1.111   1_455 S
H954   C564    1.114   1_565 S
H956   C1465   1.106   .     S
H959   N1513   1.029   .     S
H962   C567    1.118   1_565 S
N974   N1513   1.292   .     S
N974   H1507   1.024   .     S
O980   C564    1.404   1_565 S
O981   C570    1.397   1_565 S
C991   O1065   1.313   .     A
C991   O1074   1.299   .     A
C991   C1020   1.475   .     S
C992   C1003   1.416   .     A
C992   C994    1.406   .     A
C992   O1066   1.377   .     S
C993   C1023   1.469   .     S
C993   C1024   1.407   .     A
C993   C995    1.391   .     A
C994   C996    1.407   .     A
C994   C1022   1.476   .     S
C995   C997    1.396   .     A
C995   O1067   1.378   .     S
C996   O1068   1.383   .     S
C996   C998    1.413   .     A
C997   C1004   1.382   .     A
C997   C999    1.405   .     A
C998   C1005   1.404   .     A
C998   C1000   1.413   .     A
C999   C1001   1.412   .     A
C999   C910    1.417   1_655 S
C1000  C1003   1.418   .     A
C1001  C1024   1.420   .     A
C1001  C1019   1.410   .     A
C1002  O1075   1.306   .     A
C1002  O1073   1.300   .     A
C1002  C1021   1.465   .     S
C1003  C1013   1.420   .     A
C1004  H1027   1.078   .     S
C1004  C923    1.392   1_655 S
C1005  H1038   1.081   .     S
C1006  O1080   1.417   .     S
C1006  C1007   1.503   .     S
C1006  H1058   1.120   .     S
C1006  H1059   1.104   .     S
C1007  H1060   1.107   .     S
C1007  H1061   1.109   .     S
C1007  H1062   1.095   .     S
C1008  C1009   1.505   .     S
C1008  H1029   1.116   .     S
C1008  O1066   1.409   .     S
C1008  H1028   1.107   .     S
C1010  O1067   1.409   .     S
C1010  H1035   1.105   .     S
C1010  H1034   1.115   .     S
C1010  H1033   1.110   .     S
C1011  H1039   1.105   .     S
C1011  O1068   1.405   .     S
C1011  H1036   1.112   .     S
C1011  H1037   1.109   .     S
C1012  O1069   1.424   .     S
C1013  O1069   1.383   .     S
C1014  H1045   1.109   .     S
C1014  H953    1.111   1_655 S
C1015  O1071   1.415   .     S
C1015  C1016   1.528   .     S
C1015  H687    1.104   1_565 S
C1016  H1051   1.089   .     S
C1016  H1048   1.106   .     S
C1016  H1050   1.100   .     S
C1017  H1053   1.105   .     S
C1017  O1072   1.418   .     S
C1017  C1018   1.517   .     S
C1018  H1056   1.110   .     S
C1018  H1054   1.110   .     S
C1018  H1055   1.100   .     S
C1019  O1070   1.379   .     S
C1019  C915    1.401   1_655 S
C1021  C660    1.356   1_565 S
C1021  O712    1.385   1_565 S
C1022  O1078   1.308   .     A
C1022  O1076   1.306   .     A
C1023  O1079   1.298   .     A
C1023  O1077   1.315   .     A
C1024  O1080   1.378   .     S
Cu1025 N1064   2.040   .     S
Cu1025 Cu1026  2.714   .     S
Cu1025 O1065   2.024   .     S
Cu1025 O1076   1.985   .     S
Cu1025 O1079   1.973   .     S
Cu1025 O1075   2.016   .     S
Cu1026 O1078   1.973   .     S
Cu1026 O1073   2.024   .     S
Cu1026 O1077   1.985   .     S
Cu1026 O1074   2.016   .     S
Cu1026 N1063   2.040   .     S
H1030  C649    1.101   1_565 S
H1031  C649    1.104   1_565 S
H1032  C649    1.104   1_565 S
H1040  C652    1.104   1_565 S
H1041  C922    1.113   1_655 S
H1042  C562    1.106   1_665 S
H1044  C654    1.114   1_565 S
H1046  C1555   1.106   .     S
H1049  N1603   1.029   .     S
H1052  C657    1.118   1_565 S
N1064  N1603   1.292   .     S
N1064  H1597   1.024   .     S
O1070  C654    1.404   1_565 S
O1071  C660    1.397   1_565 S
C1081  O1155   1.313   .     A
C1081  O1164   1.299   .     A
C1081  C1110   1.475   .     S
C1082  C1093   1.416   .     A
C1082  C1084   1.406   .     A
C1082  O1156   1.377   .     S
C1083  C1113   1.469   .     S
C1083  C1114   1.407   .     A
C1083  C1085   1.391   .     A
C1084  C1086   1.407   .     A
C1084  C1112   1.476   .     S
C1085  C1087   1.396   .     A
C1085  O1157   1.378   .     S
C1086  O1158   1.383   .     S
C1086  C1088   1.413   .     A
C1087  C1094   1.382   .     A
C1087  C1089   1.405   .     A
C1088  C1095   1.404   .     A
C1088  C1090   1.413   .     A
C1089  C1091   1.412   .     A
C1089  C1180   1.417   .     S
C1090  C1093   1.418   .     A
C1090  C1179   1.417   1_455 S
C1091  C1114   1.420   .     A
C1091  C1109   1.410   .     A
C1092  O1165   1.306   .     A
C1092  O1163   1.300   .     A
C1092  C1111   1.465   .     S
C1093  C1103   1.420   .     A
C1094  H1117   1.078   .     S
C1094  C1193   1.392   .     S
C1095  H1128   1.081   .     S
C1095  C1199   1.401   1_455 S
C1096  O1170   1.417   .     S
C1096  C1097   1.503   .     S
C1096  H1148   1.120   .     S
C1096  H1149   1.104   .     S
C1097  H1150   1.107   .     S
C1097  H1151   1.109   .     S
C1097  H1152   1.095   .     S
C1098  C1099   1.505   .     S
C1098  H1119   1.116   .     S
C1098  O1156   1.409   .     S
C1098  H1118   1.107   .     S
C1099  H1480   1.101   1_545 S
C1099  H1481   1.104   1_545 S
C1099  H1482   1.104   1_545 S
C1100  O1157   1.409   .     S
C1100  H1125   1.105   .     S
C1100  H1124   1.115   .     S
C1100  H1123   1.110   .     S
C1101  H1129   1.105   .     S
C1101  O1158   1.405   .     S
C1101  H1126   1.112   .     S
C1101  H1127   1.109   .     S
C1102  O1159   1.424   .     S
C1102  H1490   1.104   1_545 S
C1102  H1221   1.113   1_455 S
C1102  H1582   1.106   1_445 S
C1103  O1159   1.383   .     S
C1103  C1184   1.392   1_455 S
C1104  H1135   1.109   .     S
C1104  H1223   1.111   .     S
C1104  H1494   1.114   1_545 S
C1104  O1520   1.404   1_545 S
C1105  O1161   1.415   .     S
C1105  C1106   1.528   .     S
C1105  H1317   1.104   .     S
C1106  H1141   1.089   .     S
C1106  H1138   1.106   .     S
C1106  H1140   1.100   .     S
C1107  H1143   1.105   .     S
C1107  O1162   1.418   .     S
C1107  C1108   1.517   .     S
C1107  H1502   1.118   1_545 S
C1108  H1146   1.110   .     S
C1108  H1144   1.110   .     S
C1108  H1145   1.100   .     S
C1109  O1160   1.379   .     S
C1109  C1185   1.401   .     S
C1110  C1471   1.356   1_545 S
C1110  O1521   1.397   1_545 S
C1111  C1290   1.356   .     S
C1111  O1342   1.385   .     S
C1112  O1168   1.308   .     A
C1112  O1166   1.306   .     A
C1113  O1169   1.298   .     A
C1113  O1167   1.315   .     A
C1114  O1170   1.378   .     S
Cu1115 N1154   2.040   .     S
Cu1115 Cu1116  2.714   .     S
Cu1115 O1155   2.024   .     S
Cu1115 O1166   1.985   .     S
Cu1115 O1169   1.973   .     S
Cu1115 O1165   2.016   .     S
Cu1116 O1168   1.973   .     S
Cu1116 O1163   2.024   .     S
Cu1116 O1167   1.985   .     S
Cu1116 O1164   2.016   .     S
Cu1116 N1153   2.040   .     S
H1120  C1279   1.101   .     S
H1121  C1279   1.104   .     S
H1122  C1279   1.104   .     S
H1130  C1282   1.104   .     S
H1131  C1192   1.113   .     S
H1132  C1372   1.106   .     S
H1133  C1194   1.111   1_455 S
H1134  C1284   1.114   .     S
H1136  C25     1.106   1_556 S
H1137  C1465   1.104   1_545 S
H1139  N73     1.029   1_556 S
H1142  C1287   1.118   .     S
N1154  N73     1.292   1_556 S
N1154  H67     1.024   1_556 S
O1160  C1284   1.404   .     S
O1161  C1290   1.397   .     S
O1162  C1471   1.385   1_545 S
C1171  O1245   1.313   .     A
C1171  O1254   1.299   .     A
C1171  C1200   1.475   .     S
C1172  C1183   1.416   .     A
C1172  C1174   1.406   .     A
C1172  O1246   1.377   .     S
C1173  C1203   1.469   .     S
C1173  C1204   1.407   .     A
C1173  C1175   1.391   .     A
C1174  C1176   1.407   .     A
C1174  C1202   1.476   .     S
C1175  C1177   1.396   .     A
C1175  O1247   1.378   .     S
C1176  O1248   1.383   .     S
C1176  C1178   1.413   .     A
C1177  C1184   1.382   .     A
C1177  C1179   1.405   .     A
C1178  C1185   1.404   .     A
C1178  C1180   1.413   .     A
C1179  C1181   1.412   .     A
C1179  C1090   1.417   1_655 S
C1180  C1183   1.418   .     A
C1181  C1204   1.420   .     A
C1181  C1199   1.410   .     A
C1182  O1255   1.306   .     A
C1182  O1253   1.300   .     A
C1182  C1201   1.465   .     S
C1183  C1193   1.420   .     A
C1184  H1207   1.078   .     S
C1184  C1103   1.392   1_655 S
C1185  H1218   1.081   .     S
C1186  O1260   1.417   .     S
C1186  C1187   1.503   .     S
C1186  H1238   1.120   .     S
C1186  H1239   1.104   .     S
C1187  H1240   1.107   .     S
C1187  H1241   1.109   .     S
C1187  H1242   1.095   .     S
C1188  C1189   1.505   .     S
C1188  H1209   1.116   .     S
C1188  O1246   1.409   .     S
C1188  H1208   1.107   .     S
C1189  H1570   1.101   1_545 S
C1189  H1571   1.104   1_545 S
C1189  H1572   1.104   1_545 S
C1190  O1247   1.409   .     S
C1190  H1215   1.105   .     S
C1190  H1214   1.115   .     S
C1190  H1213   1.110   .     S
C1191  H1219   1.105   .     S
C1191  O1248   1.405   .     S
C1191  H1216   1.112   .     S
C1191  H1217   1.109   .     S
C1192  O1249   1.424   .     S
C1192  H1580   1.104   1_545 S
C1192  H1492   1.106   1_545 S
C1193  O1249   1.383   .     S
C1194  H1225   1.109   .     S
C1194  H1133   1.111   1_655 S
C1194  H1584   1.114   1_545 S
C1194  O1610   1.404   1_545 S
C1195  O1251   1.415   .     S
C1195  C1196   1.528   .     S
C1195  H1407   1.104   .     S
C1196  H1231   1.089   .     S
C1196  H1228   1.106   .     S
C1196  H1230   1.100   .     S
C1197  H1233   1.105   .     S
C1197  O1252   1.418   .     S
C1197  C1198   1.517   .     S
C1197  H1592   1.118   1_545 S
C1198  H1236   1.110   .     S
C1198  H1234   1.110   .     S
C1198  H1235   1.100   .     S
C1199  O1250   1.379   .     S
C1199  C1095   1.401   1_655 S
C1200  C1561   1.356   1_545 S
C1200  O1611   1.397   1_545 S
C1201  C1380   1.356   .     S
C1201  O1432   1.385   .     S
C1202  O1258   1.308   .     A
C1202  O1256   1.306   .     A
C1203  O1259   1.298   .     A
C1203  O1257   1.315   .     A
C1204  O1260   1.378   .     S
Cu1205 N1244   2.040   .     S
Cu1205 Cu1206  2.714   .     S
Cu1205 O1245   2.024   .     S
Cu1205 O1256   1.985   .     S
Cu1205 O1259   1.973   .     S
Cu1205 O1255   2.016   .     S
Cu1206 O1258   1.973   .     S
Cu1206 O1253   2.024   .     S
Cu1206 O1257   1.985   .     S
Cu1206 O1254   2.016   .     S
Cu1206 N1243   2.040   .     S
H1210  C1369   1.101   .     S
H1211  C1369   1.104   .     S
H1212  C1369   1.104   .     S
H1220  C1372   1.104   .     S
H1221  C1102   1.113   1_655 S
H1222  C1282   1.106   1_655 S
H1224  C1374   1.114   .     S
H1226  C115    1.106   1_556 S
H1227  C1555   1.104   1_545 S
H1229  N163    1.029   1_556 S
H1232  C1377   1.118   .     S
N1244  N163    1.292   1_556 S
N1244  H157    1.024   1_556 S
O1250  C1374   1.404   .     S
O1251  C1380   1.397   .     S
O1252  C1561   1.385   1_545 S
C1261  O1335   1.313   .     A
C1261  O1344   1.299   .     A
C1261  C1290   1.475   .     S
C1262  C1273   1.416   .     A
C1262  C1264   1.406   .     A
C1262  O1336   1.377   .     S
C1263  C1293   1.469   .     S
C1263  C1294   1.407   .     A
C1263  C1265   1.391   .     A
C1264  C1266   1.407   .     A
C1264  C1292   1.476   .     S
C1265  C1267   1.396   .     A
C1265  O1337   1.378   .     S
C1266  O1338   1.383   .     S
C1266  C1268   1.413   .     A
C1267  C1274   1.382   .     A
C1267  C1269   1.405   .     A
C1268  C1275   1.404   .     A
C1268  C1270   1.413   .     A
C1269  C1271   1.412   .     A
C1269  C1360   1.417   .     S
C1270  C1273   1.418   .     A
C1270  C1359   1.417   1_455 S
C1271  C1294   1.420   .     A
C1271  C1289   1.410   .     A
C1272  O1345   1.306   .     A
C1272  O1343   1.300   .     A
C1272  C1291   1.465   .     S
C1273  C1283   1.420   .     A
C1274  H1297   1.078   .     S
C1274  C1373   1.392   .     S
C1275  H1308   1.081   .     S
C1275  C1379   1.401   1_455 S
C1276  O1350   1.417   .     S
C1276  C1277   1.503   .     S
C1276  H1328   1.120   .     S
C1276  H1329   1.104   .     S
C1277  H1330   1.107   .     S
C1277  H1331   1.109   .     S
C1277  H1332   1.095   .     S
C1278  C1279   1.505   .     S
C1278  H1299   1.116   .     S
C1278  O1336   1.409   .     S
C1278  H1298   1.107   .     S
C1280  O1337   1.409   .     S
C1280  H1305   1.105   .     S
C1280  H1304   1.115   .     S
C1280  H1303   1.110   .     S
C1281  H1309   1.105   .     S
C1281  O1338   1.405   .     S
C1281  H1306   1.112   .     S
C1281  H1307   1.109   .     S
C1282  O1339   1.424   .     S
C1282  H1401   1.113   1_455 S
C1282  H1222   1.106   1_455 S
C1283  O1339   1.383   .     S
C1283  C1364   1.392   1_455 S
C1284  H1315   1.109   .     S
C1284  H1403   1.111   .     S
C1285  O1341   1.415   .     S
C1285  C1286   1.528   .     S
C1285  H1497   1.104   .     S
C1286  H1321   1.089   .     S
C1286  H1318   1.106   .     S
C1286  H1320   1.100   .     S
C1287  H1323   1.105   .     S
C1287  O1342   1.418   .     S
C1287  C1288   1.517   .     S
C1288  H1326   1.110   .     S
C1288  H1324   1.110   .     S
C1288  H1325   1.100   .     S
C1289  O1340   1.379   .     S
C1289  C1365   1.401   .     S
C1291  C1470   1.356   .     S
C1291  O1522   1.385   .     S
C1292  O1348   1.308   .     A
C1292  O1346   1.306   .     A
C1293  O1349   1.298   .     A
C1293  O1347   1.315   .     A
C1294  O1350   1.378   .     S
Cu1295 N1334   2.040   .     S
Cu1295 Cu1296  2.714   .     S
Cu1295 O1335   2.024   .     S
Cu1295 O1346   1.985   .     S
Cu1295 O1349   1.973   .     S
Cu1295 O1345   2.016   .     S
Cu1296 O1348   1.973   .     S
Cu1296 O1343   2.024   .     S
Cu1296 O1347   1.985   .     S
Cu1296 O1344   2.016   .     S
Cu1296 N1333   2.040   .     S
H1300  C1459   1.101   .     S
H1301  C1459   1.104   .     S
H1302  C1459   1.104   .     S
H1310  C1462   1.104   .     S
H1311  C1372   1.113   .     S
H1312  C1552   1.106   .     S
H1313  C1374   1.111   1_455 S
H1314  C1464   1.114   .     S
H1316  C205    1.106   1_556 S
H1319  N253    1.029   1_556 S
H1322  C1467   1.118   .     S
N1334  N253    1.292   1_556 S
N1334  H247    1.024   1_556 S
O1340  C1464   1.404   .     S
O1341  C1470   1.397   .     S
C1351  O1425   1.313   .     A
C1351  O1434   1.299   .     A
C1351  C1380   1.475   .     S
C1352  C1363   1.416   .     A
C1352  C1354   1.406   .     A
C1352  O1426   1.377   .     S
C1353  C1383   1.469   .     S
C1353  C1384   1.407   .     A
C1353  C1355   1.391   .     A
C1354  C1356   1.407   .     A
C1354  C1382   1.476   .     S
C1355  C1357   1.396   .     A
C1355  O1427   1.378   .     S
C1356  O1428   1.383   .     S
C1356  C1358   1.413   .     A
C1357  C1364   1.382   .     A
C1357  C1359   1.405   .     A
C1358  C1365   1.404   .     A
C1358  C1360   1.413   .     A
C1359  C1361   1.412   .     A
C1359  C1270   1.417   1_655 S
C1360  C1363   1.418   .     A
C1361  C1384   1.420   .     A
C1361  C1379   1.410   .     A
C1362  O1435   1.306   .     A
C1362  O1433   1.300   .     A
C1362  C1381   1.465   .     S
C1363  C1373   1.420   .     A
C1364  H1387   1.078   .     S
C1364  C1283   1.392   1_655 S
C1365  H1398   1.081   .     S
C1366  O1440   1.417   .     S
C1366  C1367   1.503   .     S
C1366  H1418   1.120   .     S
C1366  H1419   1.104   .     S
C1367  H1420   1.107   .     S
C1367  H1421   1.109   .     S
C1367  H1422   1.095   .     S
C1368  C1369   1.505   .     S
C1368  H1389   1.116   .     S
C1368  O1426   1.409   .     S
C1368  H1388   1.107   .     S
C1370  O1427   1.409   .     S
C1370  H1395   1.105   .     S
C1370  H1394   1.115   .     S
C1370  H1393   1.110   .     S
C1371  H1399   1.105   .     S
C1371  O1428   1.405   .     S
C1371  H1396   1.112   .     S
C1371  H1397   1.109   .     S
C1372  O1429   1.424   .     S
C1373  O1429   1.383   .     S
C1374  H1405   1.109   .     S
C1374  H1313   1.111   1_655 S
C1375  O1431   1.415   .     S
C1375  C1376   1.528   .     S
C1375  H1587   1.104   .     S
C1376  H1411   1.089   .     S
C1376  H1408   1.106   .     S
C1376  H1410   1.100   .     S
C1377  H1413   1.105   .     S
C1377  O1432   1.418   .     S
C1377  C1378   1.517   .     S
C1378  H1416   1.110   .     S
C1378  H1414   1.110   .     S
C1378  H1415   1.100   .     S
C1379  O1430   1.379   .     S
C1379  C1275   1.401   1_655 S
C1381  C1560   1.356   .     S
C1381  O1612   1.385   .     S
C1382  O1438   1.308   .     A
C1382  O1436   1.306   .     A
C1383  O1439   1.298   .     A
C1383  O1437   1.315   .     A
C1384  O1440   1.378   .     S
Cu1385 N1424   2.040   .     S
Cu1385 Cu1386  2.714   .     S
Cu1385 O1425   2.024   .     S
Cu1385 O1436   1.985   .     S
Cu1385 O1439   1.973   .     S
Cu1385 O1435   2.016   .     S
Cu1386 O1438   1.973   .     S
Cu1386 O1433   2.024   .     S
Cu1386 O1437   1.985   .     S
Cu1386 O1434   2.016   .     S
Cu1386 N1423   2.040   .     S
H1390  C1549   1.101   .     S
H1391  C1549   1.104   .     S
H1392  C1549   1.104   .     S
H1400  C1552   1.104   .     S
H1401  C1282   1.113   1_655 S
H1402  C1462   1.106   1_655 S
H1404  C1554   1.114   .     S
H1406  C295    1.106   1_556 S
H1409  N343    1.029   1_556 S
H1412  C1557   1.118   .     S
N1424  N343    1.292   1_556 S
N1424  H337    1.024   1_556 S
O1430  C1554   1.404   .     S
O1431  C1560   1.397   .     S
C1441  O1515   1.313   .     A
C1441  O1524   1.299   .     A
C1441  C1470   1.475   .     S
C1442  C1453   1.416   .     A
C1442  C1444   1.406   .     A
C1442  O1516   1.377   .     S
C1443  C1473   1.469   .     S
C1443  C1474   1.407   .     A
C1443  C1445   1.391   .     A
C1444  C1446   1.407   .     A
C1444  C1472   1.476   .     S
C1445  C1447   1.396   .     A
C1445  O1517   1.378   .     S
C1446  O1518   1.383   .     S
C1446  C1448   1.413   .     A
C1447  C1454   1.382   .     A
C1447  C1449   1.405   .     A
C1448  C1455   1.404   .     A
C1448  C1450   1.413   .     A
C1449  C1451   1.412   .     A
C1449  C1540   1.417   .     S
C1450  C1453   1.418   .     A
C1450  C1539   1.417   1_455 S
C1451  C1474   1.420   .     A
C1451  C1469   1.410   .     A
C1452  O1525   1.306   .     A
C1452  O1523   1.300   .     A
C1452  C1471   1.465   .     S
C1453  C1463   1.420   .     A
C1454  H1477   1.078   .     S
C1454  C1553   1.392   .     S
C1455  H1488   1.081   .     S
C1455  C1559   1.401   1_455 S
C1456  O1530   1.417   .     S
C1456  C1457   1.503   .     S
C1456  H1508   1.120   .     S
C1456  H1509   1.104   .     S
C1457  H1510   1.107   .     S
C1457  H1511   1.109   .     S
C1457  H1512   1.095   .     S
C1458  C1459   1.505   .     S
C1458  H1479   1.116   .     S
C1458  O1516   1.409   .     S
C1458  H1478   1.107   .     S
C1460  O1517   1.409   .     S
C1460  H1485   1.105   .     S
C1460  H1484   1.115   .     S
C1460  H1483   1.110   .     S
C1461  H1489   1.105   .     S
C1461  O1518   1.405   .     S
C1461  H1486   1.112   .     S
C1461  H1487   1.109   .     S
C1462  O1519   1.424   .     S
C1462  H1581   1.113   1_455 S
C1462  H1402   1.106   1_455 S
C1463  O1519   1.383   .     S
C1463  C1544   1.392   1_455 S
C1464  H1495   1.109   .     S
C1464  H1583   1.111   .     S
C1465  O1521   1.415   .     S
C1465  C1466   1.528   .     S
C1465  H1137   1.104   1_565 S
C1466  H1501   1.089   .     S
C1466  H1498   1.106   .     S
C1466  H1500   1.100   .     S
C1467  H1503   1.105   .     S
C1467  O1522   1.418   .     S
C1467  C1468   1.517   .     S
C1468  H1506   1.110   .     S
C1468  H1504   1.110   .     S
C1468  H1505   1.100   .     S
C1469  O1520   1.379   .     S
C1469  C1545   1.401   .     S
C1471  C1110   1.356   1_565 S
C1471  O1162   1.385   1_565 S
C1472  O1528   1.308   .     A
C1472  O1526   1.306   .     A
C1473  O1529   1.298   .     A
C1473  O1527   1.315   .     A
C1474  O1530   1.378   .     S
Cu1475 N1514   2.040   .     S
Cu1475 Cu1476  2.714   .     S
Cu1475 O1515   2.024   .     S
Cu1475 O1526   1.985   .     S
Cu1475 O1529   1.973   .     S
Cu1475 O1525   2.016   .     S
Cu1476 O1528   1.973   .     S
Cu1476 O1523   2.024   .     S
Cu1476 O1527   1.985   .     S
Cu1476 O1524   2.016   .     S
Cu1476 N1513   2.040   .     S
H1480  C1099   1.101   1_565 S
H1481  C1099   1.104   1_565 S
H1482  C1099   1.104   1_565 S
H1490  C1102   1.104   1_565 S
H1491  C1552   1.113   .     S
H1492  C1192   1.106   1_565 S
H1493  C1554   1.111   1_455 S
H1494  C1104   1.114   1_565 S
H1496  C385    1.106   1_556 S
H1499  N433    1.029   1_556 S
H1502  C1107   1.118   1_565 S
N1514  N433    1.292   1_556 S
N1514  H427    1.024   1_556 S
O1520  C1104   1.404   1_565 S
O1521  C1110   1.397   1_565 S
C1531  O1605   1.313   .     A
C1531  O1614   1.299   .     A
C1531  C1560   1.475   .     S
C1532  C1543   1.416   .     A
C1532  C1534   1.406   .     A
C1532  O1606   1.377   .     S
C1533  C1563   1.469   .     S
C1533  C1564   1.407   .     A
C1533  C1535   1.391   .     A
C1534  C1536   1.407   .     A
C1534  C1562   1.476   .     S
C1535  C1537   1.396   .     A
C1535  O1607   1.378   .     S
C1536  O1608   1.383   .     S
C1536  C1538   1.413   .     A
C1537  C1544   1.382   .     A
C1537  C1539   1.405   .     A
C1538  C1545   1.404   .     A
C1538  C1540   1.413   .     A
C1539  C1541   1.412   .     A
C1539  C1450   1.417   1_655 S
C1540  C1543   1.418   .     A
C1541  C1564   1.420   .     A
C1541  C1559   1.410   .     A
C1542  O1615   1.306   .     A
C1542  O1613   1.300   .     A
C1542  C1561   1.465   .     S
C1543  C1553   1.420   .     A
C1544  H1567   1.078   .     S
C1544  C1463   1.392   1_655 S
C1545  H1578   1.081   .     S
C1546  O1620   1.417   .     S
C1546  C1547   1.503   .     S
C1546  H1598   1.120   .     S
C1546  H1599   1.104   .     S
C1547  H1600   1.107   .     S
C1547  H1601   1.109   .     S
C1547  H1602   1.095   .     S
C1548  C1549   1.505   .     S
C1548  H1569   1.116   .     S
C1548  O1606   1.409   .     S
C1548  H1568   1.107   .     S
C1550  O1607   1.409   .     S
C1550  H1575   1.105   .     S
C1550  H1574   1.115   .     S
C1550  H1573   1.110   .     S
C1551  H1579   1.105   .     S
C1551  O1608   1.405   .     S
C1551  H1576   1.112   .     S
C1551  H1577   1.109   .     S
C1552  O1609   1.424   .     S
C1553  O1609   1.383   .     S
C1554  H1585   1.109   .     S
C1554  H1493   1.111   1_655 S
C1555  O1611   1.415   .     S
C1555  C1556   1.528   .     S
C1555  H1227   1.104   1_565 S
C1556  H1591   1.089   .     S
C1556  H1588   1.106   .     S
C1556  H1590   1.100   .     S
C1557  H1593   1.105   .     S
C1557  O1612   1.418   .     S
C1557  C1558   1.517   .     S
C1558  H1596   1.110   .     S
C1558  H1594   1.110   .     S
C1558  H1595   1.100   .     S
C1559  O1610   1.379   .     S
C1559  C1455   1.401   1_655 S
C1561  C1200   1.356   1_565 S
C1561  O1252   1.385   1_565 S
C1562  O1618   1.308   .     A
C1562  O1616   1.306   .     A
C1563  O1619   1.298   .     A
C1563  O1617   1.315   .     A
C1564  O1620   1.378   .     S
Cu1565 N1604   2.040   .     S
Cu1565 Cu1566  2.714   .     S
Cu1565 O1605   2.024   .     S
Cu1565 O1616   1.985   .     S
Cu1565 O1619   1.973   .     S
Cu1565 O1615   2.016   .     S
Cu1566 O1618   1.973   .     S
Cu1566 O1613   2.024   .     S
Cu1566 O1617   1.985   .     S
Cu1566 O1614   2.016   .     S
Cu1566 N1603   2.040   .     S
H1570  C1189   1.101   1_565 S
H1571  C1189   1.104   1_565 S
H1572  C1189   1.104   1_565 S
H1580  C1192   1.104   1_565 S
H1581  C1462   1.113   1_655 S
H1582  C1102   1.106   1_665 S
H1584  C1194   1.114   1_565 S
H1586  C475    1.106   1_556 S
H1589  N523    1.029   1_556 S
H1592  C1197   1.118   1_565 S
N1604  N523    1.292   1_556 S
N1604  H517    1.024   1_556 S
O1610  C1194   1.404   1_565 S
O1611  C1200   1.397   1_565 S
