data_str_m1_o1_o17_pcu_sym.129
_audit_creation_date              2020-01-03
_audit_creation_method            'Materials Studio'
_symmetry_space_group_name_H-M    'P1'
_symmetry_Int_Tables_number       1
_symmetry_cell_setting            triclinic
loop_
_symmetry_equiv_pos_as_xyz
  x,y,z
_cell_length_a                    36.6565
_cell_length_b                    36.6565
_cell_length_c                    34.4766
_cell_angle_alpha                 90.0000
_cell_angle_beta                  90.0000
_cell_angle_gamma                 90.0000
loop_
_atom_site_label
_atom_site_type_symbol
_atom_site_fract_x
_atom_site_fract_y
_atom_site_fract_z
_atom_site_U_iso_or_equiv
_atom_site_adp_type
_atom_site_occupancy
C1     C     0.46987   0.26409   0.41874   0.00000  Uiso   1.00
C2     C     0.21987   0.48591   0.08126   0.00000  Uiso   1.00
C3     C     0.23585   0.46972   0.54074   0.00000  Uiso   1.00
C4     C     0.46972   0.26414   0.45926   0.00000  Uiso   1.00
C5     C     0.03028   0.23586   0.54074   0.00000  Uiso   1.00
C6     C     0.23585   0.46972   0.45926   0.00000  Uiso   1.00
C7     C     0.26415   0.03028   0.54074   0.00000  Uiso   1.00
C8     C     0.21972   0.48585   0.95926   0.00000  Uiso   1.00
C9     C     0.28028   0.01415   0.04074   0.00000  Uiso   1.00
C10    C     0.01414   0.21972   0.95926   0.00000  Uiso   1.00
C11    C     0.48586   0.28028   0.04074   0.00000  Uiso   1.00
C12    C     0.28028   0.01415   0.95926   0.00000  Uiso   1.00
C13    C     0.48591   0.28013   0.91874   0.00000  Uiso   1.00
C14    C     0.21972   0.48585   0.04074   0.00000  Uiso   1.00
C15    C     0.48586   0.28028   0.95926   0.00000  Uiso   1.00
C16    C     0.01414   0.21972   0.04074   0.00000  Uiso   1.00
C17    C     0.09813   0.34813   0.25000   0.00000  Uiso   1.00
C18    C     0.40187   0.15187   0.75000   0.00000  Uiso   1.00
C19    C     0.15187   0.09813   0.25000   0.00000  Uiso   1.00
C20    C     0.34813   0.40187   0.75000   0.00000  Uiso   1.00
C21    C     0.40187   0.15187   0.25000   0.00000  Uiso   1.00
C22    C     0.09813   0.34813   0.75000   0.00000  Uiso   1.00
C23    C     0.34813   0.40187   0.25000   0.00000  Uiso   1.00
C24    C     0.01408   0.21987   0.08126   0.00000  Uiso   1.00
C25    C     0.15187   0.09813   0.75000   0.00000  Uiso   1.00
C26    C     0.09813   0.15187   0.75000   0.00000  Uiso   1.00
C27    C     0.40187   0.34813   0.25000   0.00000  Uiso   1.00
C28    C     0.15187   0.40187   0.75000   0.00000  Uiso   1.00
C29    C     0.34813   0.09813   0.25000   0.00000  Uiso   1.00
C30    C     0.40187   0.34813   0.75000   0.00000  Uiso   1.00
C31    C     0.09813   0.15187   0.25000   0.00000  Uiso   1.00
C32    C     0.34813   0.09813   0.75000   0.00000  Uiso   1.00
C33    C     0.15187   0.40187   0.25000   0.00000  Uiso   1.00
C34    C    -0.00000   0.25000   0.47961   0.00000  Uiso   1.00
C35    C     0.21987   0.48591   0.91874   0.00000  Uiso   1.00
C36    C    -0.00000   0.25000   0.52039   0.00000  Uiso   1.00
C37    C     0.25000  -0.00000   0.47961   0.00000  Uiso   1.00
C38    C     0.25000  -0.00000   0.52039   0.00000  Uiso   1.00
C39    C     0.25000   0.00000   0.97961   0.00000  Uiso   1.00
C40    C     0.25000  -0.00000   0.02039   0.00000  Uiso   1.00
C41    C    -0.00000   0.25000   0.97961   0.00000  Uiso   1.00
C42    C     0.00000   0.25000   0.02039   0.00000  Uiso   1.00
C43    C     0.28013   0.01409   0.08126   0.00000  Uiso   1.00
C44    C     0.01408   0.21987   0.91874   0.00000  Uiso   1.00
C45    C     0.48591   0.28013   0.08126   0.00000  Uiso   1.00
C46    C    -0.00000   0.25000   0.39842   0.00000  Uiso   1.00
C47    C    -0.00000   0.25000   0.60158   0.00000  Uiso   1.00
C48    C     0.25000  -0.00000   0.39842   0.00000  Uiso   1.00
C49    C     0.03013   0.23591   0.58126   0.00000  Uiso   1.00
C50    C     0.25000  -0.00000   0.60158   0.00000  Uiso   1.00
C51    C     0.25000  -0.00000   0.89842   0.00000  Uiso   1.00
C52    C     0.25000  -0.00000   0.10158   0.00000  Uiso   1.00
C53    C    -0.00000   0.25000   0.89842   0.00000  Uiso   1.00
C54    C    -0.00000   0.25000   0.10158   0.00000  Uiso   1.00
C55    C     0.06017   0.22181   0.47981   0.00000  Uiso   1.00
C56    C     0.43983   0.27819   0.52019   0.00000  Uiso   1.00
C57    C     0.27819   0.06016   0.47981   0.00000  Uiso   1.00
C58    C     0.22181   0.43984   0.52019   0.00000  Uiso   1.00
C59    C     0.43983   0.27819   0.47981   0.00000  Uiso   1.00
C60    C     0.23591   0.46987   0.41874   0.00000  Uiso   1.00
C61    C     0.06017   0.22181   0.52019   0.00000  Uiso   1.00
C62    C     0.22181   0.43984   0.47981   0.00000  Uiso   1.00
C63    C     0.27819   0.06016   0.52019   0.00000  Uiso   1.00
C64    C     0.18983   0.47181   0.97981   0.00000  Uiso   1.00
C65    C     0.31016   0.02819   0.02019   0.00000  Uiso   1.00
C66    C     0.02818   0.18983   0.97981   0.00000  Uiso   1.00
C67    C     0.47182   0.31017   0.02019   0.00000  Uiso   1.00
C68    C     0.31016   0.02819   0.97981   0.00000  Uiso   1.00
C69    C     0.18983   0.47181   0.02019   0.00000  Uiso   1.00
C70    C     0.47182   0.31017   0.97981   0.00000  Uiso   1.00
C71    C     0.26409   0.03013   0.58126   0.00000  Uiso   1.00
C72    C     0.02818   0.18983   0.02019   0.00000  Uiso   1.00
C73    C     0.25000   0.00000   0.35596   0.00000  Uiso   1.00
C74    C     0.25000  -0.00000   0.64404   0.00000  Uiso   1.00
C75    C    -0.00000   0.25000   0.35596   0.00000  Uiso   1.00
C76    C     0.00000   0.25000   0.64404   0.00000  Uiso   1.00
C77    C    -0.00000   0.25000   0.85596   0.00000  Uiso   1.00
C78    C     0.00000   0.25000   0.14404   0.00000  Uiso   1.00
C79    C     0.25000  -0.00000   0.85596   0.00000  Uiso   1.00
C80    C     0.25000  -0.00000   0.14404   0.00000  Uiso   1.00
C81    C     0.17994   0.07006   0.25000   0.00000  Uiso   1.00
C82    C     0.03013   0.23591   0.41874   0.00000  Uiso   1.00
C83    C     0.32006   0.42994   0.75000   0.00000  Uiso   1.00
C84    C     0.42994   0.17994   0.25000   0.00000  Uiso   1.00
C85    C     0.07006   0.32006   0.75000   0.00000  Uiso   1.00
C86    C     0.32006   0.42994   0.25000   0.00000  Uiso   1.00
C87    C     0.17994   0.07006   0.75000   0.00000  Uiso   1.00
C88    C     0.07006   0.32006   0.25000   0.00000  Uiso   1.00
C89    C     0.42994   0.17994   0.75000   0.00000  Uiso   1.00
C90    C     0.17994   0.42994   0.75000   0.00000  Uiso   1.00
C91    C     0.32006   0.07006   0.25000   0.00000  Uiso   1.00
C92    C     0.42994   0.32006   0.75000   0.00000  Uiso   1.00
C93    C     0.46987   0.26409   0.58126   0.00000  Uiso   1.00
C94    C     0.07006   0.17994   0.25000   0.00000  Uiso   1.00
C95    C     0.32006   0.07006   0.75000   0.00000  Uiso   1.00
C96    C     0.17994   0.42994   0.25000   0.00000  Uiso   1.00
C97    C     0.07006   0.17994   0.75000   0.00000  Uiso   1.00
C98    C     0.42994   0.32006   0.25000   0.00000  Uiso   1.00
C99    C     0.12196   0.40478   0.22486   0.00000  Uiso   1.00
C100   C     0.37804   0.09522   0.77514   0.00000  Uiso   1.00
C101   C     0.09522   0.12196   0.22487   0.00000  Uiso   1.00
C102   C     0.40478   0.37804   0.77514   0.00000  Uiso   1.00
C103   C     0.37804   0.09522   0.22487   0.00000  Uiso   1.00
C104   C     0.26409   0.03013   0.41874   0.00000  Uiso   1.00
C105   C     0.12196   0.40478   0.77514   0.00000  Uiso   1.00
C106   C     0.40478   0.37804   0.22487   0.00000  Uiso   1.00
C107   C     0.09522   0.12196   0.77514   0.00000  Uiso   1.00
C108   C     0.12195   0.09522   0.77513   0.00000  Uiso   1.00
C109   C     0.37805   0.40478   0.22487   0.00000  Uiso   1.00
C110   C     0.09522   0.37805   0.77513   0.00000  Uiso   1.00
C111   C     0.40478   0.12195   0.22487   0.00000  Uiso   1.00
C112   C     0.37805   0.40478   0.77513   0.00000  Uiso   1.00
C113   C     0.12195   0.09522   0.22487   0.00000  Uiso   1.00
C114   C     0.40478   0.12195   0.77513   0.00000  Uiso   1.00
C115   C     0.23591   0.46987   0.58126   0.00000  Uiso   1.00
C116   C     0.09522   0.37805   0.22487   0.00000  Uiso   1.00
C117   C     0.37195   0.15478   0.72487   0.00000  Uiso   1.00
C118   C     0.12805   0.34522   0.27513   0.00000  Uiso   1.00
C119   C     0.34522   0.37195   0.72487   0.00000  Uiso   1.00
C120   C     0.15478   0.12805   0.27513   0.00000  Uiso   1.00
C121   C     0.12805   0.34522   0.72487   0.00000  Uiso   1.00
C122   C     0.37195   0.15478   0.27513   0.00000  Uiso   1.00
C123   C     0.15478   0.12805   0.72487   0.00000  Uiso   1.00
C124   C     0.34522   0.37195   0.27513   0.00000  Uiso   1.00
C125   C     0.37196   0.34522   0.27514   0.00000  Uiso   1.00
C126   C     0.28013   0.01409   0.91874   0.00000  Uiso   1.00
C127   C     0.12804   0.15478   0.72487   0.00000  Uiso   1.00
C128   C     0.34522   0.12804   0.27514   0.00000  Uiso   1.00
C129   C     0.15478   0.37196   0.72487   0.00000  Uiso   1.00
C130   C     0.12804   0.15478   0.27514   0.00000  Uiso   1.00
C131   C     0.37196   0.34522   0.72487   0.00000  Uiso   1.00
C132   C     0.15478   0.37196   0.27514   0.00000  Uiso   1.00
C133   C     0.34522   0.12804   0.72487   0.00000  Uiso   1.00
C134   C     0.03028   0.23586   0.45926   0.00000  Uiso   1.00
C135   C     0.46972   0.26414   0.54074   0.00000  Uiso   1.00
C136   C     0.26415   0.03028   0.45926   0.00000  Uiso   1.00
F137   F     0.44103   0.27844   0.39915   0.00000  Uiso   1.00
F138   F     0.19103   0.47155   0.10085   0.00000  Uiso   1.00
F139   F     0.47156   0.30897   0.89915   0.00000  Uiso   1.00
F140   F     0.02844   0.19103   0.10085   0.00000  Uiso   1.00
F141   F     0.19103   0.47155   0.89915   0.00000  Uiso   1.00
F142   F     0.30897   0.02845   0.10085   0.00000  Uiso   1.00
F143   F     0.02844   0.19103   0.89915   0.00000  Uiso   1.00
F144   F     0.47156   0.30897   0.10085   0.00000  Uiso   1.00
F145   F     0.05897   0.22156   0.60085   0.00000  Uiso   1.00
F146   F     0.22155   0.44103   0.39915   0.00000  Uiso   1.00
F147   F     0.27845   0.05897   0.60085   0.00000  Uiso   1.00
F148   F     0.05897   0.22156   0.39915   0.00000  Uiso   1.00
F149   F     0.44103   0.27844   0.60085   0.00000  Uiso   1.00
F150   F     0.27845   0.05897   0.39915   0.00000  Uiso   1.00
F151   F     0.22155   0.44103   0.60085   0.00000  Uiso   1.00
F152   F     0.30897   0.02845   0.89915   0.00000  Uiso   1.00
H153   H     0.08366   0.21081   0.46476   0.00000  Uiso   1.00
H154   H     0.33366   0.03919   0.03524   0.00000  Uiso   1.00
H155   H     0.03918   0.16634   0.96476   0.00000  Uiso   1.00
H156   H     0.46082   0.33366   0.03524   0.00000  Uiso   1.00
H157   H     0.33366   0.03919   0.96476   0.00000  Uiso   1.00
H158   H     0.16634   0.46081   0.03524   0.00000  Uiso   1.00
H159   H     0.46082   0.33366   0.96476   0.00000  Uiso   1.00
H160   H     0.03918   0.16634   0.03524   0.00000  Uiso   1.00
H161   H     0.11917   0.42766   0.20520   0.00000  Uiso   1.00
H162   H     0.38083   0.07234   0.79480   0.00000  Uiso   1.00
H163   H     0.07234   0.11917   0.20520   0.00000  Uiso   1.00
H164   H     0.41634   0.28919   0.53524   0.00000  Uiso   1.00
H165   H     0.42766   0.38083   0.79480   0.00000  Uiso   1.00
H166   H     0.38083   0.07234   0.20520   0.00000  Uiso   1.00
H167   H     0.11917   0.42766   0.79480   0.00000  Uiso   1.00
H168   H     0.42766   0.38083   0.20520   0.00000  Uiso   1.00
H169   H     0.07234   0.11917   0.79480   0.00000  Uiso   1.00
H170   H     0.11917   0.07234   0.79479   0.00000  Uiso   1.00
H171   H     0.38083   0.42766   0.20521   0.00000  Uiso   1.00
H172   H     0.07234   0.38083   0.79479   0.00000  Uiso   1.00
H173   H     0.42766   0.11917   0.20521   0.00000  Uiso   1.00
H174   H     0.38083   0.42766   0.79479   0.00000  Uiso   1.00
H175   H     0.28919   0.08366   0.46476   0.00000  Uiso   1.00
H176   H     0.11917   0.07234   0.20521   0.00000  Uiso   1.00
H177   H     0.42766   0.11917   0.79479   0.00000  Uiso   1.00
H178   H     0.07234   0.38083   0.20521   0.00000  Uiso   1.00
H179   H     0.36917   0.17766   0.70521   0.00000  Uiso   1.00
H180   H     0.13083   0.32234   0.29479   0.00000  Uiso   1.00
H181   H     0.32234   0.36917   0.70521   0.00000  Uiso   1.00
H182   H     0.17766   0.13083   0.29479   0.00000  Uiso   1.00
H183   H     0.13083   0.32234   0.70521   0.00000  Uiso   1.00
H184   H     0.36917   0.17766   0.29479   0.00000  Uiso   1.00
H185   H     0.17766   0.13083   0.70521   0.00000  Uiso   1.00
H186   H     0.21081   0.41634   0.53524   0.00000  Uiso   1.00
H187   H     0.32234   0.36917   0.29479   0.00000  Uiso   1.00
H188   H     0.36917   0.32234   0.29480   0.00000  Uiso   1.00
H189   H     0.13083   0.17766   0.70520   0.00000  Uiso   1.00
H190   H     0.32234   0.13083   0.29480   0.00000  Uiso   1.00
H191   H     0.17766   0.36917   0.70520   0.00000  Uiso   1.00
H192   H     0.13083   0.17766   0.29480   0.00000  Uiso   1.00
H193   H     0.36917   0.32234   0.70520   0.00000  Uiso   1.00
H194   H     0.17766   0.36917   0.29480   0.00000  Uiso   1.00
H195   H     0.32234   0.13083   0.70520   0.00000  Uiso   1.00
H196   H     0.41634   0.28919   0.46476   0.00000  Uiso   1.00
H197   H     0.08366   0.21081   0.53524   0.00000  Uiso   1.00
H198   H     0.21081   0.41634   0.46476   0.00000  Uiso   1.00
H199   H     0.28919   0.08366   0.53524   0.00000  Uiso   1.00
H200   H     0.16634   0.46081   0.96476   0.00000  Uiso   1.00
O201   O     0.25000  -0.00000   0.25000   0.00000  Uiso   1.00
O202   O     0.25000   0.46963   0.66245   0.00000  Uiso   1.00
O203   O     0.46963   0.25000   0.33755   0.00000  Uiso   1.00
O204   O     0.03036   0.25000   0.66245   0.00000  Uiso   1.00
O205   O     0.00000   0.21963   0.83755   0.00000  Uiso   1.00
O206   O     0.00000   0.28036   0.16245   0.00000  Uiso   1.00
O207   O     0.28036  -0.00000   0.83755   0.00000  Uiso   1.00
O208   O     0.21963  -0.00000   0.16245   0.00000  Uiso   1.00
O209   O     0.00000   0.28036   0.83755   0.00000  Uiso   1.00
O210   O    -0.00000   0.21964   0.16245   0.00000  Uiso   1.00
O211   O     0.21963  -0.00000   0.83755   0.00000  Uiso   1.00
O212   O     0.25000  -0.00000   0.75000   0.00000  Uiso   1.00
O213   O     0.28036  -0.00000   0.16245   0.00000  Uiso   1.00
O214   O     0.20724   0.07308   0.27302   0.00000  Uiso   1.00
O215   O     0.29275   0.42692   0.72698   0.00000  Uiso   1.00
O216   O     0.42692   0.20725   0.27302   0.00000  Uiso   1.00
O217   O     0.07307   0.29275   0.72698   0.00000  Uiso   1.00
O218   O     0.29275   0.42692   0.27302   0.00000  Uiso   1.00
O219   O     0.20724   0.07308   0.72698   0.00000  Uiso   1.00
O220   O     0.07307   0.29275   0.27302   0.00000  Uiso   1.00
O221   O     0.42692   0.20725   0.72698   0.00000  Uiso   1.00
O222   O     0.20724   0.42692   0.72698   0.00000  Uiso   1.00
O223   O     0.00000   0.25000   0.25000   0.00000  Uiso   1.00
O224   O     0.29275   0.07308   0.27302   0.00000  Uiso   1.00
O225   O     0.42692   0.29276   0.72698   0.00000  Uiso   1.00
O226   O     0.07307   0.20724   0.27302   0.00000  Uiso   1.00
O227   O     0.29275   0.07308   0.72698   0.00000  Uiso   1.00
O228   O     0.20724   0.42692   0.27302   0.00000  Uiso   1.00
O229   O     0.07307   0.20724   0.72698   0.00000  Uiso   1.00
O230   O     0.42692   0.29276   0.27302   0.00000  Uiso   1.00
O231   O     0.45724   0.32308   0.77302   0.00000  Uiso   1.00
O232   O     0.04275   0.17692   0.22698   0.00000  Uiso   1.00
O233   O     0.17692   0.45724   0.77302   0.00000  Uiso   1.00
O234   O    -0.00000   0.25000   0.75000   0.00000  Uiso   1.00
O235   O     0.32307   0.04276   0.22698   0.00000  Uiso   1.00
O236   O     0.04275   0.17692   0.77302   0.00000  Uiso   1.00
O237   O     0.45724   0.32308   0.22698   0.00000  Uiso   1.00
O238   O     0.32307   0.04276   0.77302   0.00000  Uiso   1.00
O239   O     0.17692   0.45724   0.22698   0.00000  Uiso   1.00
O240   O     0.45724   0.17693   0.22698   0.00000  Uiso   1.00
O241   O     0.04275   0.32307   0.77302   0.00000  Uiso   1.00
O242   O     0.17692   0.04276   0.22698   0.00000  Uiso   1.00
O243   O     0.32307   0.45724   0.77302   0.00000  Uiso   1.00
O244   O     0.04275   0.32307   0.22698   0.00000  Uiso   1.00
O245   O     0.25000   0.46963   0.33755   0.00000  Uiso   1.00
O246   O     0.45724   0.17693   0.77302   0.00000  Uiso   1.00
O247   O     0.32307   0.45724   0.22698   0.00000  Uiso   1.00
O248   O     0.17692   0.04276   0.77302   0.00000  Uiso   1.00
O249   O     0.25000   0.03037   0.66245   0.00000  Uiso   1.00
O250   O     0.03036   0.25000   0.33755   0.00000  Uiso   1.00
O251   O     0.46963   0.25000   0.66245   0.00000  Uiso   1.00
O252   O     0.25000   0.03037   0.33755   0.00000  Uiso   1.00
Zn253  Zn    0.20659  -0.00000   0.21735   0.00000  Uiso   1.00
Zn254  Zn    0.04340   0.25000   0.28265   0.00000  Uiso   1.00
Zn255  Zn    0.25000   0.45659   0.71735   0.00000  Uiso   1.00
Zn256  Zn    0.25000   0.04341   0.28265   0.00000  Uiso   1.00
Zn257  Zn    0.04340   0.25000   0.71735   0.00000  Uiso   1.00
Zn258  Zn    0.45659   0.25000   0.28265   0.00000  Uiso   1.00
Zn259  Zn    0.25000   0.04341   0.71735   0.00000  Uiso   1.00
Zn260  Zn    0.25000   0.45659   0.28265   0.00000  Uiso   1.00
Zn261  Zn    0.29340  -0.00000   0.78265   0.00000  Uiso   1.00
Zn262  Zn   -0.00000   0.20660   0.21735   0.00000  Uiso   1.00
Zn263  Zn   -0.00000   0.29341   0.78265   0.00000  Uiso   1.00
Zn264  Zn    0.29340  -0.00000   0.21735   0.00000  Uiso   1.00
Zn265  Zn    0.20659  -0.00000   0.78265   0.00000  Uiso   1.00
Zn266  Zn   -0.00000   0.29341   0.21735   0.00000  Uiso   1.00
Zn267  Zn   -0.00000   0.20660   0.78265   0.00000  Uiso   1.00
Zn268  Zn    0.45659   0.25000   0.71735   0.00000  Uiso   1.00
C269   C     0.96987   0.26409   0.41874   0.00000  Uiso   1.00
C270   C     0.71987   0.48591   0.08126   0.00000  Uiso   1.00
C271   C     0.73585   0.46972   0.54074   0.00000  Uiso   1.00
C272   C     0.96972   0.26414   0.45926   0.00000  Uiso   1.00
C273   C     0.53028   0.23586   0.54074   0.00000  Uiso   1.00
C274   C     0.73585   0.46972   0.45926   0.00000  Uiso   1.00
C275   C     0.76415   0.03028   0.54074   0.00000  Uiso   1.00
C276   C     0.71972   0.48585   0.95926   0.00000  Uiso   1.00
C277   C     0.78028   0.01415   0.04074   0.00000  Uiso   1.00
C278   C     0.51414   0.21972   0.95926   0.00000  Uiso   1.00
C279   C     0.98586   0.28028   0.04074   0.00000  Uiso   1.00
C280   C     0.78028   0.01415   0.95926   0.00000  Uiso   1.00
C281   C     0.98591   0.28013   0.91874   0.00000  Uiso   1.00
C282   C     0.71972   0.48585   0.04074   0.00000  Uiso   1.00
C283   C     0.98586   0.28028   0.95926   0.00000  Uiso   1.00
C284   C     0.51414   0.21972   0.04074   0.00000  Uiso   1.00
C285   C     0.59813   0.34813   0.25000   0.00000  Uiso   1.00
C286   C     0.90187   0.15187   0.75000   0.00000  Uiso   1.00
C287   C     0.65187   0.09813   0.25000   0.00000  Uiso   1.00
C288   C     0.84813   0.40187   0.75000   0.00000  Uiso   1.00
C289   C     0.90187   0.15187   0.25000   0.00000  Uiso   1.00
C290   C     0.59813   0.34813   0.75000   0.00000  Uiso   1.00
C291   C     0.84813   0.40187   0.25000   0.00000  Uiso   1.00
C292   C     0.51408   0.21987   0.08126   0.00000  Uiso   1.00
C293   C     0.65187   0.09813   0.75000   0.00000  Uiso   1.00
C294   C     0.59813   0.15187   0.75000   0.00000  Uiso   1.00
C295   C     0.90187   0.34813   0.25000   0.00000  Uiso   1.00
C296   C     0.65187   0.40187   0.75000   0.00000  Uiso   1.00
C297   C     0.84813   0.09813   0.25000   0.00000  Uiso   1.00
C298   C     0.90187   0.34813   0.75000   0.00000  Uiso   1.00
C299   C     0.59813   0.15187   0.25000   0.00000  Uiso   1.00
C300   C     0.84813   0.09813   0.75000   0.00000  Uiso   1.00
C301   C     0.65187   0.40187   0.25000   0.00000  Uiso   1.00
C302   C     0.50000   0.25000   0.47961   0.00000  Uiso   1.00
C303   C     0.71987   0.48591   0.91874   0.00000  Uiso   1.00
C304   C     0.50000   0.25000   0.52039   0.00000  Uiso   1.00
C305   C     0.75000  -0.00000   0.47961   0.00000  Uiso   1.00
C306   C     0.75000  -0.00000   0.52039   0.00000  Uiso   1.00
C307   C     0.75000   0.00000   0.97961   0.00000  Uiso   1.00
C308   C     0.75000  -0.00000   0.02039   0.00000  Uiso   1.00
C309   C     0.50000   0.25000   0.97961   0.00000  Uiso   1.00
C310   C     0.50000   0.25000   0.02039   0.00000  Uiso   1.00
C311   C     0.78013   0.01409   0.08126   0.00000  Uiso   1.00
C312   C     0.51408   0.21987   0.91874   0.00000  Uiso   1.00
C313   C     0.98591   0.28013   0.08126   0.00000  Uiso   1.00
C314   C     0.50000   0.25000   0.39842   0.00000  Uiso   1.00
C315   C     0.50000   0.25000   0.60158   0.00000  Uiso   1.00
C316   C     0.75000  -0.00000   0.39842   0.00000  Uiso   1.00
C317   C     0.53013   0.23591   0.58126   0.00000  Uiso   1.00
C318   C     0.75000  -0.00000   0.60158   0.00000  Uiso   1.00
C319   C     0.75000  -0.00000   0.89842   0.00000  Uiso   1.00
C320   C     0.75000  -0.00000   0.10158   0.00000  Uiso   1.00
C321   C     0.50000   0.25000   0.89842   0.00000  Uiso   1.00
C322   C     0.50000   0.25000   0.10158   0.00000  Uiso   1.00
C323   C     0.56017   0.22181   0.47981   0.00000  Uiso   1.00
C324   C     0.93983   0.27819   0.52019   0.00000  Uiso   1.00
C325   C     0.77819   0.06016   0.47981   0.00000  Uiso   1.00
C326   C     0.72181   0.43984   0.52019   0.00000  Uiso   1.00
C327   C     0.93983   0.27819   0.47981   0.00000  Uiso   1.00
C328   C     0.73591   0.46987   0.41874   0.00000  Uiso   1.00
C329   C     0.56017   0.22181   0.52019   0.00000  Uiso   1.00
C330   C     0.72181   0.43984   0.47981   0.00000  Uiso   1.00
C331   C     0.77819   0.06016   0.52019   0.00000  Uiso   1.00
C332   C     0.68983   0.47181   0.97981   0.00000  Uiso   1.00
C333   C     0.81016   0.02819   0.02019   0.00000  Uiso   1.00
C334   C     0.52818   0.18983   0.97981   0.00000  Uiso   1.00
C335   C     0.97182   0.31017   0.02019   0.00000  Uiso   1.00
C336   C     0.81016   0.02819   0.97981   0.00000  Uiso   1.00
C337   C     0.68983   0.47181   0.02019   0.00000  Uiso   1.00
C338   C     0.97182   0.31017   0.97981   0.00000  Uiso   1.00
C339   C     0.76409   0.03013   0.58126   0.00000  Uiso   1.00
C340   C     0.52818   0.18983   0.02019   0.00000  Uiso   1.00
C341   C     0.75000   0.00000   0.35596   0.00000  Uiso   1.00
C342   C     0.75000  -0.00000   0.64404   0.00000  Uiso   1.00
C343   C     0.50000   0.25000   0.35596   0.00000  Uiso   1.00
C344   C     0.50000   0.25000   0.64404   0.00000  Uiso   1.00
C345   C     0.50000   0.25000   0.85596   0.00000  Uiso   1.00
C346   C     0.50000   0.25000   0.14404   0.00000  Uiso   1.00
C347   C     0.75000  -0.00000   0.85596   0.00000  Uiso   1.00
C348   C     0.75000  -0.00000   0.14404   0.00000  Uiso   1.00
C349   C     0.67994   0.07006   0.25000   0.00000  Uiso   1.00
C350   C     0.53013   0.23591   0.41874   0.00000  Uiso   1.00
C351   C     0.82006   0.42994   0.75000   0.00000  Uiso   1.00
C352   C     0.92994   0.17994   0.25000   0.00000  Uiso   1.00
C353   C     0.57006   0.32006   0.75000   0.00000  Uiso   1.00
C354   C     0.82006   0.42994   0.25000   0.00000  Uiso   1.00
C355   C     0.67994   0.07006   0.75000   0.00000  Uiso   1.00
C356   C     0.57006   0.32006   0.25000   0.00000  Uiso   1.00
C357   C     0.92994   0.17994   0.75000   0.00000  Uiso   1.00
C358   C     0.67994   0.42994   0.75000   0.00000  Uiso   1.00
C359   C     0.82006   0.07006   0.25000   0.00000  Uiso   1.00
C360   C     0.92994   0.32006   0.75000   0.00000  Uiso   1.00
C361   C     0.96987   0.26409   0.58126   0.00000  Uiso   1.00
C362   C     0.57006   0.17994   0.25000   0.00000  Uiso   1.00
C363   C     0.82006   0.07006   0.75000   0.00000  Uiso   1.00
C364   C     0.67994   0.42994   0.25000   0.00000  Uiso   1.00
C365   C     0.57006   0.17994   0.75000   0.00000  Uiso   1.00
C366   C     0.92994   0.32006   0.25000   0.00000  Uiso   1.00
C367   C     0.62196   0.40478   0.22486   0.00000  Uiso   1.00
C368   C     0.87804   0.09522   0.77514   0.00000  Uiso   1.00
C369   C     0.59522   0.12196   0.22487   0.00000  Uiso   1.00
C370   C     0.90478   0.37804   0.77514   0.00000  Uiso   1.00
C371   C     0.87804   0.09522   0.22487   0.00000  Uiso   1.00
C372   C     0.76409   0.03013   0.41874   0.00000  Uiso   1.00
C373   C     0.62196   0.40478   0.77514   0.00000  Uiso   1.00
C374   C     0.90478   0.37804   0.22487   0.00000  Uiso   1.00
C375   C     0.59522   0.12196   0.77514   0.00000  Uiso   1.00
C376   C     0.62195   0.09522   0.77513   0.00000  Uiso   1.00
C377   C     0.87805   0.40478   0.22487   0.00000  Uiso   1.00
C378   C     0.59522   0.37805   0.77513   0.00000  Uiso   1.00
C379   C     0.90478   0.12195   0.22487   0.00000  Uiso   1.00
C380   C     0.87805   0.40478   0.77513   0.00000  Uiso   1.00
C381   C     0.62195   0.09522   0.22487   0.00000  Uiso   1.00
C382   C     0.90478   0.12195   0.77513   0.00000  Uiso   1.00
C383   C     0.73591   0.46987   0.58126   0.00000  Uiso   1.00
C384   C     0.59522   0.37805   0.22487   0.00000  Uiso   1.00
C385   C     0.87195   0.15478   0.72487   0.00000  Uiso   1.00
C386   C     0.62805   0.34522   0.27513   0.00000  Uiso   1.00
C387   C     0.84522   0.37195   0.72487   0.00000  Uiso   1.00
C388   C     0.65478   0.12805   0.27513   0.00000  Uiso   1.00
C389   C     0.62805   0.34522   0.72487   0.00000  Uiso   1.00
C390   C     0.87195   0.15478   0.27513   0.00000  Uiso   1.00
C391   C     0.65478   0.12805   0.72487   0.00000  Uiso   1.00
C392   C     0.84522   0.37195   0.27513   0.00000  Uiso   1.00
C393   C     0.87196   0.34522   0.27514   0.00000  Uiso   1.00
C394   C     0.78013   0.01409   0.91874   0.00000  Uiso   1.00
C395   C     0.62804   0.15478   0.72487   0.00000  Uiso   1.00
C396   C     0.84522   0.12804   0.27514   0.00000  Uiso   1.00
C397   C     0.65478   0.37196   0.72487   0.00000  Uiso   1.00
C398   C     0.62804   0.15478   0.27514   0.00000  Uiso   1.00
C399   C     0.87196   0.34522   0.72487   0.00000  Uiso   1.00
C400   C     0.65478   0.37196   0.27514   0.00000  Uiso   1.00
C401   C     0.84522   0.12804   0.72487   0.00000  Uiso   1.00
C402   C     0.53028   0.23586   0.45926   0.00000  Uiso   1.00
C403   C     0.96972   0.26414   0.54074   0.00000  Uiso   1.00
C404   C     0.76415   0.03028   0.45926   0.00000  Uiso   1.00
F405   F     0.94103   0.27844   0.39915   0.00000  Uiso   1.00
F406   F     0.69103   0.47155   0.10085   0.00000  Uiso   1.00
F407   F     0.97156   0.30897   0.89915   0.00000  Uiso   1.00
F408   F     0.52844   0.19103   0.10085   0.00000  Uiso   1.00
F409   F     0.69103   0.47155   0.89915   0.00000  Uiso   1.00
F410   F     0.80897   0.02845   0.10085   0.00000  Uiso   1.00
F411   F     0.52844   0.19103   0.89915   0.00000  Uiso   1.00
F412   F     0.97156   0.30897   0.10085   0.00000  Uiso   1.00
F413   F     0.55897   0.22156   0.60085   0.00000  Uiso   1.00
F414   F     0.72155   0.44103   0.39915   0.00000  Uiso   1.00
F415   F     0.77845   0.05897   0.60085   0.00000  Uiso   1.00
F416   F     0.55897   0.22156   0.39915   0.00000  Uiso   1.00
F417   F     0.94103   0.27844   0.60085   0.00000  Uiso   1.00
F418   F     0.77845   0.05897   0.39915   0.00000  Uiso   1.00
F419   F     0.72155   0.44103   0.60085   0.00000  Uiso   1.00
F420   F     0.80897   0.02845   0.89915   0.00000  Uiso   1.00
H421   H     0.58366   0.21081   0.46476   0.00000  Uiso   1.00
H422   H     0.83366   0.03919   0.03524   0.00000  Uiso   1.00
H423   H     0.53918   0.16634   0.96476   0.00000  Uiso   1.00
H424   H     0.96082   0.33366   0.03524   0.00000  Uiso   1.00
H425   H     0.83366   0.03919   0.96476   0.00000  Uiso   1.00
H426   H     0.66634   0.46081   0.03524   0.00000  Uiso   1.00
H427   H     0.96082   0.33366   0.96476   0.00000  Uiso   1.00
H428   H     0.53918   0.16634   0.03524   0.00000  Uiso   1.00
H429   H     0.61917   0.42766   0.20520   0.00000  Uiso   1.00
H430   H     0.88083   0.07234   0.79480   0.00000  Uiso   1.00
H431   H     0.57234   0.11917   0.20520   0.00000  Uiso   1.00
H432   H     0.91634   0.28919   0.53524   0.00000  Uiso   1.00
H433   H     0.92766   0.38083   0.79480   0.00000  Uiso   1.00
H434   H     0.88083   0.07234   0.20520   0.00000  Uiso   1.00
H435   H     0.61917   0.42766   0.79480   0.00000  Uiso   1.00
H436   H     0.92766   0.38083   0.20520   0.00000  Uiso   1.00
H437   H     0.57234   0.11917   0.79480   0.00000  Uiso   1.00
H438   H     0.61917   0.07234   0.79479   0.00000  Uiso   1.00
H439   H     0.88083   0.42766   0.20521   0.00000  Uiso   1.00
H440   H     0.57234   0.38083   0.79479   0.00000  Uiso   1.00
H441   H     0.92766   0.11917   0.20521   0.00000  Uiso   1.00
H442   H     0.88083   0.42766   0.79479   0.00000  Uiso   1.00
H443   H     0.78919   0.08366   0.46476   0.00000  Uiso   1.00
H444   H     0.61917   0.07234   0.20521   0.00000  Uiso   1.00
H445   H     0.92766   0.11917   0.79479   0.00000  Uiso   1.00
H446   H     0.57234   0.38083   0.20521   0.00000  Uiso   1.00
H447   H     0.86917   0.17766   0.70521   0.00000  Uiso   1.00
H448   H     0.63083   0.32234   0.29479   0.00000  Uiso   1.00
H449   H     0.82234   0.36917   0.70521   0.00000  Uiso   1.00
H450   H     0.67766   0.13083   0.29479   0.00000  Uiso   1.00
H451   H     0.63083   0.32234   0.70521   0.00000  Uiso   1.00
H452   H     0.86917   0.17766   0.29479   0.00000  Uiso   1.00
H453   H     0.67766   0.13083   0.70521   0.00000  Uiso   1.00
H454   H     0.71081   0.41634   0.53524   0.00000  Uiso   1.00
H455   H     0.82234   0.36917   0.29479   0.00000  Uiso   1.00
H456   H     0.86917   0.32234   0.29480   0.00000  Uiso   1.00
H457   H     0.63083   0.17766   0.70520   0.00000  Uiso   1.00
H458   H     0.82234   0.13083   0.29480   0.00000  Uiso   1.00
H459   H     0.67766   0.36917   0.70520   0.00000  Uiso   1.00
H460   H     0.63083   0.17766   0.29480   0.00000  Uiso   1.00
H461   H     0.86917   0.32234   0.70520   0.00000  Uiso   1.00
H462   H     0.67766   0.36917   0.29480   0.00000  Uiso   1.00
H463   H     0.82234   0.13083   0.70520   0.00000  Uiso   1.00
H464   H     0.91634   0.28919   0.46476   0.00000  Uiso   1.00
H465   H     0.58366   0.21081   0.53524   0.00000  Uiso   1.00
H466   H     0.71081   0.41634   0.46476   0.00000  Uiso   1.00
H467   H     0.78919   0.08366   0.53524   0.00000  Uiso   1.00
H468   H     0.66634   0.46081   0.96476   0.00000  Uiso   1.00
O469   O     0.75000  -0.00000   0.25000   0.00000  Uiso   1.00
O470   O     0.75000   0.46963   0.66245   0.00000  Uiso   1.00
O471   O     0.96963   0.25000   0.33755   0.00000  Uiso   1.00
O472   O     0.53036   0.25000   0.66245   0.00000  Uiso   1.00
O473   O     0.50000   0.21963   0.83755   0.00000  Uiso   1.00
O474   O     0.50000   0.28036   0.16245   0.00000  Uiso   1.00
O475   O     0.78036  -0.00000   0.83755   0.00000  Uiso   1.00
O476   O     0.71963  -0.00000   0.16245   0.00000  Uiso   1.00
O477   O     0.50000   0.28036   0.83755   0.00000  Uiso   1.00
O478   O     0.50000   0.21964   0.16245   0.00000  Uiso   1.00
O479   O     0.71963  -0.00000   0.83755   0.00000  Uiso   1.00
O480   O     0.75000  -0.00000   0.75000   0.00000  Uiso   1.00
O481   O     0.78036  -0.00000   0.16245   0.00000  Uiso   1.00
O482   O     0.70724   0.07308   0.27302   0.00000  Uiso   1.00
O483   O     0.79275   0.42692   0.72698   0.00000  Uiso   1.00
O484   O     0.92692   0.20725   0.27302   0.00000  Uiso   1.00
O485   O     0.57307   0.29275   0.72698   0.00000  Uiso   1.00
O486   O     0.79275   0.42692   0.27302   0.00000  Uiso   1.00
O487   O     0.70724   0.07308   0.72698   0.00000  Uiso   1.00
O488   O     0.57307   0.29275   0.27302   0.00000  Uiso   1.00
O489   O     0.92692   0.20725   0.72698   0.00000  Uiso   1.00
O490   O     0.70724   0.42692   0.72698   0.00000  Uiso   1.00
O491   O     0.50000   0.25000   0.25000   0.00000  Uiso   1.00
O492   O     0.79275   0.07308   0.27302   0.00000  Uiso   1.00
O493   O     0.92692   0.29276   0.72698   0.00000  Uiso   1.00
O494   O     0.57307   0.20724   0.27302   0.00000  Uiso   1.00
O495   O     0.79275   0.07308   0.72698   0.00000  Uiso   1.00
O496   O     0.70724   0.42692   0.27302   0.00000  Uiso   1.00
O497   O     0.57307   0.20724   0.72698   0.00000  Uiso   1.00
O498   O     0.92692   0.29276   0.27302   0.00000  Uiso   1.00
O499   O     0.95724   0.32308   0.77302   0.00000  Uiso   1.00
O500   O     0.54275   0.17692   0.22698   0.00000  Uiso   1.00
O501   O     0.67692   0.45724   0.77302   0.00000  Uiso   1.00
O502   O     0.50000   0.25000   0.75000   0.00000  Uiso   1.00
O503   O     0.82307   0.04276   0.22698   0.00000  Uiso   1.00
O504   O     0.54275   0.17692   0.77302   0.00000  Uiso   1.00
O505   O     0.95724   0.32308   0.22698   0.00000  Uiso   1.00
O506   O     0.82307   0.04276   0.77302   0.00000  Uiso   1.00
O507   O     0.67692   0.45724   0.22698   0.00000  Uiso   1.00
O508   O     0.95724   0.17693   0.22698   0.00000  Uiso   1.00
O509   O     0.54275   0.32307   0.77302   0.00000  Uiso   1.00
O510   O     0.67692   0.04276   0.22698   0.00000  Uiso   1.00
O511   O     0.82307   0.45724   0.77302   0.00000  Uiso   1.00
O512   O     0.54275   0.32307   0.22698   0.00000  Uiso   1.00
O513   O     0.75000   0.46963   0.33755   0.00000  Uiso   1.00
O514   O     0.95724   0.17693   0.77302   0.00000  Uiso   1.00
O515   O     0.82307   0.45724   0.22698   0.00000  Uiso   1.00
O516   O     0.67692   0.04276   0.77302   0.00000  Uiso   1.00
O517   O     0.75000   0.03037   0.66245   0.00000  Uiso   1.00
O518   O     0.53036   0.25000   0.33755   0.00000  Uiso   1.00
O519   O     0.96963   0.25000   0.66245   0.00000  Uiso   1.00
O520   O     0.75000   0.03037   0.33755   0.00000  Uiso   1.00
Zn521  Zn    0.70659  -0.00000   0.21735   0.00000  Uiso   1.00
Zn522  Zn    0.54340   0.25000   0.28265   0.00000  Uiso   1.00
Zn523  Zn    0.75000   0.45659   0.71735   0.00000  Uiso   1.00
Zn524  Zn    0.75000   0.04341   0.28265   0.00000  Uiso   1.00
Zn525  Zn    0.54340   0.25000   0.71735   0.00000  Uiso   1.00
Zn526  Zn    0.95659   0.25000   0.28265   0.00000  Uiso   1.00
Zn527  Zn    0.75000   0.04341   0.71735   0.00000  Uiso   1.00
Zn528  Zn    0.75000   0.45659   0.28265   0.00000  Uiso   1.00
Zn529  Zn    0.79340  -0.00000   0.78265   0.00000  Uiso   1.00
Zn530  Zn    0.50000   0.20660   0.21735   0.00000  Uiso   1.00
Zn531  Zn    0.50000   0.29341   0.78265   0.00000  Uiso   1.00
Zn532  Zn    0.79340  -0.00000   0.21735   0.00000  Uiso   1.00
Zn533  Zn    0.70659  -0.00000   0.78265   0.00000  Uiso   1.00
Zn534  Zn    0.50000   0.29341   0.21735   0.00000  Uiso   1.00
Zn535  Zn    0.50000   0.20660   0.78265   0.00000  Uiso   1.00
Zn536  Zn    0.95659   0.25000   0.71735   0.00000  Uiso   1.00
C537   C     0.46987   0.76409   0.41874   0.00000  Uiso   1.00
C538   C     0.21987   0.98591   0.08126   0.00000  Uiso   1.00
C539   C     0.23585   0.96972   0.54074   0.00000  Uiso   1.00
C540   C     0.46972   0.76414   0.45926   0.00000  Uiso   1.00
C541   C     0.03028   0.73586   0.54074   0.00000  Uiso   1.00
C542   C     0.23585   0.96972   0.45926   0.00000  Uiso   1.00
C543   C     0.26415   0.53028   0.54074   0.00000  Uiso   1.00
C544   C     0.21972   0.98585   0.95926   0.00000  Uiso   1.00
C545   C     0.28028   0.51415   0.04074   0.00000  Uiso   1.00
C546   C     0.01414   0.71972   0.95926   0.00000  Uiso   1.00
C547   C     0.48586   0.78028   0.04074   0.00000  Uiso   1.00
C548   C     0.28028   0.51415   0.95926   0.00000  Uiso   1.00
C549   C     0.48591   0.78013   0.91874   0.00000  Uiso   1.00
C550   C     0.21972   0.98585   0.04074   0.00000  Uiso   1.00
C551   C     0.48586   0.78028   0.95926   0.00000  Uiso   1.00
C552   C     0.01414   0.71972   0.04074   0.00000  Uiso   1.00
C553   C     0.09813   0.84813   0.25000   0.00000  Uiso   1.00
C554   C     0.40187   0.65187   0.75000   0.00000  Uiso   1.00
C555   C     0.15187   0.59813   0.25000   0.00000  Uiso   1.00
C556   C     0.34813   0.90187   0.75000   0.00000  Uiso   1.00
C557   C     0.40187   0.65187   0.25000   0.00000  Uiso   1.00
C558   C     0.09813   0.84813   0.75000   0.00000  Uiso   1.00
C559   C     0.34813   0.90187   0.25000   0.00000  Uiso   1.00
C560   C     0.01408   0.71987   0.08126   0.00000  Uiso   1.00
C561   C     0.15187   0.59813   0.75000   0.00000  Uiso   1.00
C562   C     0.09813   0.65187   0.75000   0.00000  Uiso   1.00
C563   C     0.40187   0.84813   0.25000   0.00000  Uiso   1.00
C564   C     0.15187   0.90187   0.75000   0.00000  Uiso   1.00
C565   C     0.34813   0.59813   0.25000   0.00000  Uiso   1.00
C566   C     0.40187   0.84813   0.75000   0.00000  Uiso   1.00
C567   C     0.09813   0.65187   0.25000   0.00000  Uiso   1.00
C568   C     0.34813   0.59813   0.75000   0.00000  Uiso   1.00
C569   C     0.15187   0.90187   0.25000   0.00000  Uiso   1.00
C570   C    -0.00000   0.75000   0.47961   0.00000  Uiso   1.00
C571   C     0.21987   0.98591   0.91874   0.00000  Uiso   1.00
C572   C    -0.00000   0.75000   0.52039   0.00000  Uiso   1.00
C573   C     0.25000   0.50000   0.47961   0.00000  Uiso   1.00
C574   C     0.25000   0.50000   0.52039   0.00000  Uiso   1.00
C575   C     0.25000   0.50000   0.97961   0.00000  Uiso   1.00
C576   C     0.25000   0.50000   0.02039   0.00000  Uiso   1.00
C577   C    -0.00000   0.75000   0.97961   0.00000  Uiso   1.00
C578   C     0.00000   0.75000   0.02039   0.00000  Uiso   1.00
C579   C     0.28013   0.51409   0.08126   0.00000  Uiso   1.00
C580   C     0.01408   0.71987   0.91874   0.00000  Uiso   1.00
C581   C     0.48591   0.78013   0.08126   0.00000  Uiso   1.00
C582   C    -0.00000   0.75000   0.39842   0.00000  Uiso   1.00
C583   C    -0.00000   0.75000   0.60158   0.00000  Uiso   1.00
C584   C     0.25000   0.50000   0.39842   0.00000  Uiso   1.00
C585   C     0.03013   0.73591   0.58126   0.00000  Uiso   1.00
C586   C     0.25000   0.50000   0.60158   0.00000  Uiso   1.00
C587   C     0.25000   0.50000   0.89842   0.00000  Uiso   1.00
C588   C     0.25000   0.50000   0.10158   0.00000  Uiso   1.00
C589   C    -0.00000   0.75000   0.89842   0.00000  Uiso   1.00
C590   C    -0.00000   0.75000   0.10158   0.00000  Uiso   1.00
C591   C     0.06017   0.72181   0.47981   0.00000  Uiso   1.00
C592   C     0.43983   0.77819   0.52019   0.00000  Uiso   1.00
C593   C     0.27819   0.56016   0.47981   0.00000  Uiso   1.00
C594   C     0.22181   0.93984   0.52019   0.00000  Uiso   1.00
C595   C     0.43983   0.77819   0.47981   0.00000  Uiso   1.00
C596   C     0.23591   0.96987   0.41874   0.00000  Uiso   1.00
C597   C     0.06017   0.72181   0.52019   0.00000  Uiso   1.00
C598   C     0.22181   0.93984   0.47981   0.00000  Uiso   1.00
C599   C     0.27819   0.56016   0.52019   0.00000  Uiso   1.00
C600   C     0.18983   0.97181   0.97981   0.00000  Uiso   1.00
C601   C     0.31016   0.52819   0.02019   0.00000  Uiso   1.00
C602   C     0.02818   0.68983   0.97981   0.00000  Uiso   1.00
C603   C     0.47182   0.81017   0.02019   0.00000  Uiso   1.00
C604   C     0.31016   0.52819   0.97981   0.00000  Uiso   1.00
C605   C     0.18983   0.97181   0.02019   0.00000  Uiso   1.00
C606   C     0.47182   0.81017   0.97981   0.00000  Uiso   1.00
C607   C     0.26409   0.53013   0.58126   0.00000  Uiso   1.00
C608   C     0.02818   0.68983   0.02019   0.00000  Uiso   1.00
C609   C     0.25000   0.50000   0.35596   0.00000  Uiso   1.00
C610   C     0.25000   0.50000   0.64404   0.00000  Uiso   1.00
C611   C    -0.00000   0.75000   0.35596   0.00000  Uiso   1.00
C612   C     0.00000   0.75000   0.64404   0.00000  Uiso   1.00
C613   C    -0.00000   0.75000   0.85596   0.00000  Uiso   1.00
C614   C     0.00000   0.75000   0.14404   0.00000  Uiso   1.00
C615   C     0.25000   0.50000   0.85596   0.00000  Uiso   1.00
C616   C     0.25000   0.50000   0.14404   0.00000  Uiso   1.00
C617   C     0.17994   0.57006   0.25000   0.00000  Uiso   1.00
C618   C     0.03013   0.73591   0.41874   0.00000  Uiso   1.00
C619   C     0.32006   0.92994   0.75000   0.00000  Uiso   1.00
C620   C     0.42994   0.67994   0.25000   0.00000  Uiso   1.00
C621   C     0.07006   0.82006   0.75000   0.00000  Uiso   1.00
C622   C     0.32006   0.92994   0.25000   0.00000  Uiso   1.00
C623   C     0.17994   0.57006   0.75000   0.00000  Uiso   1.00
C624   C     0.07006   0.82006   0.25000   0.00000  Uiso   1.00
C625   C     0.42994   0.67994   0.75000   0.00000  Uiso   1.00
C626   C     0.17994   0.92994   0.75000   0.00000  Uiso   1.00
C627   C     0.32006   0.57006   0.25000   0.00000  Uiso   1.00
C628   C     0.42994   0.82006   0.75000   0.00000  Uiso   1.00
C629   C     0.46987   0.76409   0.58126   0.00000  Uiso   1.00
C630   C     0.07006   0.67994   0.25000   0.00000  Uiso   1.00
C631   C     0.32006   0.57006   0.75000   0.00000  Uiso   1.00
C632   C     0.17994   0.92994   0.25000   0.00000  Uiso   1.00
C633   C     0.07006   0.67994   0.75000   0.00000  Uiso   1.00
C634   C     0.42994   0.82006   0.25000   0.00000  Uiso   1.00
C635   C     0.12196   0.90478   0.22486   0.00000  Uiso   1.00
C636   C     0.37804   0.59522   0.77514   0.00000  Uiso   1.00
C637   C     0.09522   0.62196   0.22487   0.00000  Uiso   1.00
C638   C     0.40478   0.87804   0.77514   0.00000  Uiso   1.00
C639   C     0.37804   0.59522   0.22487   0.00000  Uiso   1.00
C640   C     0.26409   0.53013   0.41874   0.00000  Uiso   1.00
C641   C     0.12196   0.90478   0.77514   0.00000  Uiso   1.00
C642   C     0.40478   0.87804   0.22487   0.00000  Uiso   1.00
C643   C     0.09522   0.62196   0.77514   0.00000  Uiso   1.00
C644   C     0.12195   0.59522   0.77513   0.00000  Uiso   1.00
C645   C     0.37805   0.90478   0.22487   0.00000  Uiso   1.00
C646   C     0.09522   0.87805   0.77513   0.00000  Uiso   1.00
C647   C     0.40478   0.62195   0.22487   0.00000  Uiso   1.00
C648   C     0.37805   0.90478   0.77513   0.00000  Uiso   1.00
C649   C     0.12195   0.59522   0.22487   0.00000  Uiso   1.00
C650   C     0.40478   0.62195   0.77513   0.00000  Uiso   1.00
C651   C     0.23591   0.96987   0.58126   0.00000  Uiso   1.00
C652   C     0.09522   0.87805   0.22487   0.00000  Uiso   1.00
C653   C     0.37195   0.65478   0.72487   0.00000  Uiso   1.00
C654   C     0.12805   0.84522   0.27513   0.00000  Uiso   1.00
C655   C     0.34522   0.87195   0.72487   0.00000  Uiso   1.00
C656   C     0.15478   0.62805   0.27513   0.00000  Uiso   1.00
C657   C     0.12805   0.84522   0.72487   0.00000  Uiso   1.00
C658   C     0.37195   0.65478   0.27513   0.00000  Uiso   1.00
C659   C     0.15478   0.62805   0.72487   0.00000  Uiso   1.00
C660   C     0.34522   0.87195   0.27513   0.00000  Uiso   1.00
C661   C     0.37196   0.84522   0.27514   0.00000  Uiso   1.00
C662   C     0.28013   0.51409   0.91874   0.00000  Uiso   1.00
C663   C     0.12804   0.65478   0.72487   0.00000  Uiso   1.00
C664   C     0.34522   0.62804   0.27514   0.00000  Uiso   1.00
C665   C     0.15478   0.87196   0.72487   0.00000  Uiso   1.00
C666   C     0.12804   0.65478   0.27514   0.00000  Uiso   1.00
C667   C     0.37196   0.84522   0.72487   0.00000  Uiso   1.00
C668   C     0.15478   0.87196   0.27514   0.00000  Uiso   1.00
C669   C     0.34522   0.62804   0.72487   0.00000  Uiso   1.00
C670   C     0.03028   0.73586   0.45926   0.00000  Uiso   1.00
C671   C     0.46972   0.76414   0.54074   0.00000  Uiso   1.00
C672   C     0.26415   0.53028   0.45926   0.00000  Uiso   1.00
F673   F     0.44103   0.77844   0.39915   0.00000  Uiso   1.00
F674   F     0.19103   0.97155   0.10085   0.00000  Uiso   1.00
F675   F     0.47156   0.80897   0.89915   0.00000  Uiso   1.00
F676   F     0.02844   0.69103   0.10085   0.00000  Uiso   1.00
F677   F     0.19103   0.97155   0.89915   0.00000  Uiso   1.00
F678   F     0.30897   0.52845   0.10085   0.00000  Uiso   1.00
F679   F     0.02844   0.69103   0.89915   0.00000  Uiso   1.00
F680   F     0.47156   0.80897   0.10085   0.00000  Uiso   1.00
F681   F     0.05897   0.72156   0.60085   0.00000  Uiso   1.00
F682   F     0.22155   0.94103   0.39915   0.00000  Uiso   1.00
F683   F     0.27845   0.55897   0.60085   0.00000  Uiso   1.00
F684   F     0.05897   0.72156   0.39915   0.00000  Uiso   1.00
F685   F     0.44103   0.77844   0.60085   0.00000  Uiso   1.00
F686   F     0.27845   0.55897   0.39915   0.00000  Uiso   1.00
F687   F     0.22155   0.94103   0.60085   0.00000  Uiso   1.00
F688   F     0.30897   0.52845   0.89915   0.00000  Uiso   1.00
H689   H     0.08366   0.71081   0.46476   0.00000  Uiso   1.00
H690   H     0.33366   0.53919   0.03524   0.00000  Uiso   1.00
H691   H     0.03918   0.66634   0.96476   0.00000  Uiso   1.00
H692   H     0.46082   0.83366   0.03524   0.00000  Uiso   1.00
H693   H     0.33366   0.53919   0.96476   0.00000  Uiso   1.00
H694   H     0.16634   0.96081   0.03524   0.00000  Uiso   1.00
H695   H     0.46082   0.83366   0.96476   0.00000  Uiso   1.00
H696   H     0.03918   0.66634   0.03524   0.00000  Uiso   1.00
H697   H     0.11917   0.92766   0.20520   0.00000  Uiso   1.00
H698   H     0.38083   0.57234   0.79480   0.00000  Uiso   1.00
H699   H     0.07234   0.61917   0.20520   0.00000  Uiso   1.00
H700   H     0.41634   0.78919   0.53524   0.00000  Uiso   1.00
H701   H     0.42766   0.88083   0.79480   0.00000  Uiso   1.00
H702   H     0.38083   0.57234   0.20520   0.00000  Uiso   1.00
H703   H     0.11917   0.92766   0.79480   0.00000  Uiso   1.00
H704   H     0.42766   0.88083   0.20520   0.00000  Uiso   1.00
H705   H     0.07234   0.61917   0.79480   0.00000  Uiso   1.00
H706   H     0.11917   0.57234   0.79479   0.00000  Uiso   1.00
H707   H     0.38083   0.92766   0.20521   0.00000  Uiso   1.00
H708   H     0.07234   0.88083   0.79479   0.00000  Uiso   1.00
H709   H     0.42766   0.61917   0.20521   0.00000  Uiso   1.00
H710   H     0.38083   0.92766   0.79479   0.00000  Uiso   1.00
H711   H     0.28919   0.58366   0.46476   0.00000  Uiso   1.00
H712   H     0.11917   0.57234   0.20521   0.00000  Uiso   1.00
H713   H     0.42766   0.61917   0.79479   0.00000  Uiso   1.00
H714   H     0.07234   0.88083   0.20521   0.00000  Uiso   1.00
H715   H     0.36917   0.67766   0.70521   0.00000  Uiso   1.00
H716   H     0.13083   0.82234   0.29479   0.00000  Uiso   1.00
H717   H     0.32234   0.86917   0.70521   0.00000  Uiso   1.00
H718   H     0.17766   0.63083   0.29479   0.00000  Uiso   1.00
H719   H     0.13083   0.82234   0.70521   0.00000  Uiso   1.00
H720   H     0.36917   0.67766   0.29479   0.00000  Uiso   1.00
H721   H     0.17766   0.63083   0.70521   0.00000  Uiso   1.00
H722   H     0.21081   0.91634   0.53524   0.00000  Uiso   1.00
H723   H     0.32234   0.86917   0.29479   0.00000  Uiso   1.00
H724   H     0.36917   0.82234   0.29480   0.00000  Uiso   1.00
H725   H     0.13083   0.67766   0.70520   0.00000  Uiso   1.00
H726   H     0.32234   0.63083   0.29480   0.00000  Uiso   1.00
H727   H     0.17766   0.86917   0.70520   0.00000  Uiso   1.00
H728   H     0.13083   0.67766   0.29480   0.00000  Uiso   1.00
H729   H     0.36917   0.82234   0.70520   0.00000  Uiso   1.00
H730   H     0.17766   0.86917   0.29480   0.00000  Uiso   1.00
H731   H     0.32234   0.63083   0.70520   0.00000  Uiso   1.00
H732   H     0.41634   0.78919   0.46476   0.00000  Uiso   1.00
H733   H     0.08366   0.71081   0.53524   0.00000  Uiso   1.00
H734   H     0.21081   0.91634   0.46476   0.00000  Uiso   1.00
H735   H     0.28919   0.58366   0.53524   0.00000  Uiso   1.00
H736   H     0.16634   0.96081   0.96476   0.00000  Uiso   1.00
O737   O     0.25000   0.50000   0.25000   0.00000  Uiso   1.00
O738   O     0.25000   0.96963   0.66245   0.00000  Uiso   1.00
O739   O     0.46963   0.75000   0.33755   0.00000  Uiso   1.00
O740   O     0.03036   0.75000   0.66245   0.00000  Uiso   1.00
O741   O     0.00000   0.71963   0.83755   0.00000  Uiso   1.00
O742   O     0.00000   0.78036   0.16245   0.00000  Uiso   1.00
O743   O     0.28036   0.50000   0.83755   0.00000  Uiso   1.00
O744   O     0.21963   0.50000   0.16245   0.00000  Uiso   1.00
O745   O     0.00000   0.78036   0.83755   0.00000  Uiso   1.00
O746   O    -0.00000   0.71964   0.16245   0.00000  Uiso   1.00
O747   O     0.21963   0.50000   0.83755   0.00000  Uiso   1.00
O748   O     0.25000   0.50000   0.75000   0.00000  Uiso   1.00
O749   O     0.28036   0.50000   0.16245   0.00000  Uiso   1.00
O750   O     0.20724   0.57308   0.27302   0.00000  Uiso   1.00
O751   O     0.29275   0.92692   0.72698   0.00000  Uiso   1.00
O752   O     0.42692   0.70725   0.27302   0.00000  Uiso   1.00
O753   O     0.07307   0.79275   0.72698   0.00000  Uiso   1.00
O754   O     0.29275   0.92692   0.27302   0.00000  Uiso   1.00
O755   O     0.20724   0.57308   0.72698   0.00000  Uiso   1.00
O756   O     0.07307   0.79275   0.27302   0.00000  Uiso   1.00
O757   O     0.42692   0.70725   0.72698   0.00000  Uiso   1.00
O758   O     0.20724   0.92692   0.72698   0.00000  Uiso   1.00
O759   O     0.00000   0.75000   0.25000   0.00000  Uiso   1.00
O760   O     0.29275   0.57308   0.27302   0.00000  Uiso   1.00
O761   O     0.42692   0.79276   0.72698   0.00000  Uiso   1.00
O762   O     0.07307   0.70724   0.27302   0.00000  Uiso   1.00
O763   O     0.29275   0.57308   0.72698   0.00000  Uiso   1.00
O764   O     0.20724   0.92692   0.27302   0.00000  Uiso   1.00
O765   O     0.07307   0.70724   0.72698   0.00000  Uiso   1.00
O766   O     0.42692   0.79276   0.27302   0.00000  Uiso   1.00
O767   O     0.45724   0.82308   0.77302   0.00000  Uiso   1.00
O768   O     0.04275   0.67692   0.22698   0.00000  Uiso   1.00
O769   O     0.17692   0.95724   0.77302   0.00000  Uiso   1.00
O770   O    -0.00000   0.75000   0.75000   0.00000  Uiso   1.00
O771   O     0.32307   0.54276   0.22698   0.00000  Uiso   1.00
O772   O     0.04275   0.67692   0.77302   0.00000  Uiso   1.00
O773   O     0.45724   0.82308   0.22698   0.00000  Uiso   1.00
O774   O     0.32307   0.54276   0.77302   0.00000  Uiso   1.00
O775   O     0.17692   0.95724   0.22698   0.00000  Uiso   1.00
O776   O     0.45724   0.67693   0.22698   0.00000  Uiso   1.00
O777   O     0.04275   0.82307   0.77302   0.00000  Uiso   1.00
O778   O     0.17692   0.54276   0.22698   0.00000  Uiso   1.00
O779   O     0.32307   0.95724   0.77302   0.00000  Uiso   1.00
O780   O     0.04275   0.82307   0.22698   0.00000  Uiso   1.00
O781   O     0.25000   0.96963   0.33755   0.00000  Uiso   1.00
O782   O     0.45724   0.67693   0.77302   0.00000  Uiso   1.00
O783   O     0.32307   0.95724   0.22698   0.00000  Uiso   1.00
O784   O     0.17692   0.54276   0.77302   0.00000  Uiso   1.00
O785   O     0.25000   0.53037   0.66245   0.00000  Uiso   1.00
O786   O     0.03036   0.75000   0.33755   0.00000  Uiso   1.00
O787   O     0.46963   0.75000   0.66245   0.00000  Uiso   1.00
O788   O     0.25000   0.53037   0.33755   0.00000  Uiso   1.00
Zn789  Zn    0.20659   0.50000   0.21735   0.00000  Uiso   1.00
Zn790  Zn    0.04340   0.75000   0.28265   0.00000  Uiso   1.00
Zn791  Zn    0.25000   0.95659   0.71735   0.00000  Uiso   1.00
Zn792  Zn    0.25000   0.54341   0.28265   0.00000  Uiso   1.00
Zn793  Zn    0.04340   0.75000   0.71735   0.00000  Uiso   1.00
Zn794  Zn    0.45659   0.75000   0.28265   0.00000  Uiso   1.00
Zn795  Zn    0.25000   0.54341   0.71735   0.00000  Uiso   1.00
Zn796  Zn    0.25000   0.95659   0.28265   0.00000  Uiso   1.00
Zn797  Zn    0.29340   0.50000   0.78265   0.00000  Uiso   1.00
Zn798  Zn   -0.00000   0.70660   0.21735   0.00000  Uiso   1.00
Zn799  Zn   -0.00000   0.79341   0.78265   0.00000  Uiso   1.00
Zn800  Zn    0.29340   0.50000   0.21735   0.00000  Uiso   1.00
Zn801  Zn    0.20659   0.50000   0.78265   0.00000  Uiso   1.00
Zn802  Zn   -0.00000   0.79341   0.21735   0.00000  Uiso   1.00
Zn803  Zn   -0.00000   0.70660   0.78265   0.00000  Uiso   1.00
Zn804  Zn    0.45659   0.75000   0.71735   0.00000  Uiso   1.00
C805   C     0.96987   0.76409   0.41874   0.00000  Uiso   1.00
C806   C     0.71987   0.98591   0.08126   0.00000  Uiso   1.00
C807   C     0.73585   0.96972   0.54074   0.00000  Uiso   1.00
C808   C     0.96972   0.76414   0.45926   0.00000  Uiso   1.00
C809   C     0.53028   0.73586   0.54074   0.00000  Uiso   1.00
C810   C     0.73585   0.96972   0.45926   0.00000  Uiso   1.00
C811   C     0.76415   0.53028   0.54074   0.00000  Uiso   1.00
C812   C     0.71972   0.98585   0.95926   0.00000  Uiso   1.00
C813   C     0.78028   0.51415   0.04074   0.00000  Uiso   1.00
C814   C     0.51414   0.71972   0.95926   0.00000  Uiso   1.00
C815   C     0.98586   0.78028   0.04074   0.00000  Uiso   1.00
C816   C     0.78028   0.51415   0.95926   0.00000  Uiso   1.00
C817   C     0.98591   0.78013   0.91874   0.00000  Uiso   1.00
C818   C     0.71972   0.98585   0.04074   0.00000  Uiso   1.00
C819   C     0.98586   0.78028   0.95926   0.00000  Uiso   1.00
C820   C     0.51414   0.71972   0.04074   0.00000  Uiso   1.00
C821   C     0.59813   0.84813   0.25000   0.00000  Uiso   1.00
C822   C     0.90187   0.65187   0.75000   0.00000  Uiso   1.00
C823   C     0.65187   0.59813   0.25000   0.00000  Uiso   1.00
C824   C     0.84813   0.90187   0.75000   0.00000  Uiso   1.00
C825   C     0.90187   0.65187   0.25000   0.00000  Uiso   1.00
C826   C     0.59813   0.84813   0.75000   0.00000  Uiso   1.00
C827   C     0.84813   0.90187   0.25000   0.00000  Uiso   1.00
C828   C     0.51408   0.71987   0.08126   0.00000  Uiso   1.00
C829   C     0.65187   0.59813   0.75000   0.00000  Uiso   1.00
C830   C     0.59813   0.65187   0.75000   0.00000  Uiso   1.00
C831   C     0.90187   0.84813   0.25000   0.00000  Uiso   1.00
C832   C     0.65187   0.90187   0.75000   0.00000  Uiso   1.00
C833   C     0.84813   0.59813   0.25000   0.00000  Uiso   1.00
C834   C     0.90187   0.84813   0.75000   0.00000  Uiso   1.00
C835   C     0.59813   0.65187   0.25000   0.00000  Uiso   1.00
C836   C     0.84813   0.59813   0.75000   0.00000  Uiso   1.00
C837   C     0.65187   0.90187   0.25000   0.00000  Uiso   1.00
C838   C     0.50000   0.75000   0.47961   0.00000  Uiso   1.00
C839   C     0.71987   0.98591   0.91874   0.00000  Uiso   1.00
C840   C     0.50000   0.75000   0.52039   0.00000  Uiso   1.00
C841   C     0.75000   0.50000   0.47961   0.00000  Uiso   1.00
C842   C     0.75000   0.50000   0.52039   0.00000  Uiso   1.00
C843   C     0.75000   0.50000   0.97961   0.00000  Uiso   1.00
C844   C     0.75000   0.50000   0.02039   0.00000  Uiso   1.00
C845   C     0.50000   0.75000   0.97961   0.00000  Uiso   1.00
C846   C     0.50000   0.75000   0.02039   0.00000  Uiso   1.00
C847   C     0.78013   0.51409   0.08126   0.00000  Uiso   1.00
C848   C     0.51408   0.71987   0.91874   0.00000  Uiso   1.00
C849   C     0.98591   0.78013   0.08126   0.00000  Uiso   1.00
C850   C     0.50000   0.75000   0.39842   0.00000  Uiso   1.00
C851   C     0.50000   0.75000   0.60158   0.00000  Uiso   1.00
C852   C     0.75000   0.50000   0.39842   0.00000  Uiso   1.00
C853   C     0.53013   0.73591   0.58126   0.00000  Uiso   1.00
C854   C     0.75000   0.50000   0.60158   0.00000  Uiso   1.00
C855   C     0.75000   0.50000   0.89842   0.00000  Uiso   1.00
C856   C     0.75000   0.50000   0.10158   0.00000  Uiso   1.00
C857   C     0.50000   0.75000   0.89842   0.00000  Uiso   1.00
C858   C     0.50000   0.75000   0.10158   0.00000  Uiso   1.00
C859   C     0.56017   0.72181   0.47981   0.00000  Uiso   1.00
C860   C     0.93983   0.77819   0.52019   0.00000  Uiso   1.00
C861   C     0.77819   0.56016   0.47981   0.00000  Uiso   1.00
C862   C     0.72181   0.93984   0.52019   0.00000  Uiso   1.00
C863   C     0.93983   0.77819   0.47981   0.00000  Uiso   1.00
C864   C     0.73591   0.96987   0.41874   0.00000  Uiso   1.00
C865   C     0.56017   0.72181   0.52019   0.00000  Uiso   1.00
C866   C     0.72181   0.93984   0.47981   0.00000  Uiso   1.00
C867   C     0.77819   0.56016   0.52019   0.00000  Uiso   1.00
C868   C     0.68983   0.97181   0.97981   0.00000  Uiso   1.00
C869   C     0.81016   0.52819   0.02019   0.00000  Uiso   1.00
C870   C     0.52818   0.68983   0.97981   0.00000  Uiso   1.00
C871   C     0.97182   0.81017   0.02019   0.00000  Uiso   1.00
C872   C     0.81016   0.52819   0.97981   0.00000  Uiso   1.00
C873   C     0.68983   0.97181   0.02019   0.00000  Uiso   1.00
C874   C     0.97182   0.81017   0.97981   0.00000  Uiso   1.00
C875   C     0.76409   0.53013   0.58126   0.00000  Uiso   1.00
C876   C     0.52818   0.68983   0.02019   0.00000  Uiso   1.00
C877   C     0.75000   0.50000   0.35596   0.00000  Uiso   1.00
C878   C     0.75000   0.50000   0.64404   0.00000  Uiso   1.00
C879   C     0.50000   0.75000   0.35596   0.00000  Uiso   1.00
C880   C     0.50000   0.75000   0.64404   0.00000  Uiso   1.00
C881   C     0.50000   0.75000   0.85596   0.00000  Uiso   1.00
C882   C     0.50000   0.75000   0.14404   0.00000  Uiso   1.00
C883   C     0.75000   0.50000   0.85596   0.00000  Uiso   1.00
C884   C     0.75000   0.50000   0.14404   0.00000  Uiso   1.00
C885   C     0.67994   0.57006   0.25000   0.00000  Uiso   1.00
C886   C     0.53013   0.73591   0.41874   0.00000  Uiso   1.00
C887   C     0.82006   0.92994   0.75000   0.00000  Uiso   1.00
C888   C     0.92994   0.67994   0.25000   0.00000  Uiso   1.00
C889   C     0.57006   0.82006   0.75000   0.00000  Uiso   1.00
C890   C     0.82006   0.92994   0.25000   0.00000  Uiso   1.00
C891   C     0.67994   0.57006   0.75000   0.00000  Uiso   1.00
C892   C     0.57006   0.82006   0.25000   0.00000  Uiso   1.00
C893   C     0.92994   0.67994   0.75000   0.00000  Uiso   1.00
C894   C     0.67994   0.92994   0.75000   0.00000  Uiso   1.00
C895   C     0.82006   0.57006   0.25000   0.00000  Uiso   1.00
C896   C     0.92994   0.82006   0.75000   0.00000  Uiso   1.00
C897   C     0.96987   0.76409   0.58126   0.00000  Uiso   1.00
C898   C     0.57006   0.67994   0.25000   0.00000  Uiso   1.00
C899   C     0.82006   0.57006   0.75000   0.00000  Uiso   1.00
C900   C     0.67994   0.92994   0.25000   0.00000  Uiso   1.00
C901   C     0.57006   0.67994   0.75000   0.00000  Uiso   1.00
C902   C     0.92994   0.82006   0.25000   0.00000  Uiso   1.00
C903   C     0.62196   0.90478   0.22486   0.00000  Uiso   1.00
C904   C     0.87804   0.59522   0.77514   0.00000  Uiso   1.00
C905   C     0.59522   0.62196   0.22487   0.00000  Uiso   1.00
C906   C     0.90478   0.87804   0.77514   0.00000  Uiso   1.00
C907   C     0.87804   0.59522   0.22487   0.00000  Uiso   1.00
C908   C     0.76409   0.53013   0.41874   0.00000  Uiso   1.00
C909   C     0.62196   0.90478   0.77514   0.00000  Uiso   1.00
C910   C     0.90478   0.87804   0.22487   0.00000  Uiso   1.00
C911   C     0.59522   0.62196   0.77514   0.00000  Uiso   1.00
C912   C     0.62195   0.59522   0.77513   0.00000  Uiso   1.00
C913   C     0.87805   0.90478   0.22487   0.00000  Uiso   1.00
C914   C     0.59522   0.87805   0.77513   0.00000  Uiso   1.00
C915   C     0.90478   0.62195   0.22487   0.00000  Uiso   1.00
C916   C     0.87805   0.90478   0.77513   0.00000  Uiso   1.00
C917   C     0.62195   0.59522   0.22487   0.00000  Uiso   1.00
C918   C     0.90478   0.62195   0.77513   0.00000  Uiso   1.00
C919   C     0.73591   0.96987   0.58126   0.00000  Uiso   1.00
C920   C     0.59522   0.87805   0.22487   0.00000  Uiso   1.00
C921   C     0.87195   0.65478   0.72487   0.00000  Uiso   1.00
C922   C     0.62805   0.84522   0.27513   0.00000  Uiso   1.00
C923   C     0.84522   0.87195   0.72487   0.00000  Uiso   1.00
C924   C     0.65478   0.62805   0.27513   0.00000  Uiso   1.00
C925   C     0.62805   0.84522   0.72487   0.00000  Uiso   1.00
C926   C     0.87195   0.65478   0.27513   0.00000  Uiso   1.00
C927   C     0.65478   0.62805   0.72487   0.00000  Uiso   1.00
C928   C     0.84522   0.87195   0.27513   0.00000  Uiso   1.00
C929   C     0.87196   0.84522   0.27514   0.00000  Uiso   1.00
C930   C     0.78013   0.51409   0.91874   0.00000  Uiso   1.00
C931   C     0.62804   0.65478   0.72487   0.00000  Uiso   1.00
C932   C     0.84522   0.62804   0.27514   0.00000  Uiso   1.00
C933   C     0.65478   0.87196   0.72487   0.00000  Uiso   1.00
C934   C     0.62804   0.65478   0.27514   0.00000  Uiso   1.00
C935   C     0.87196   0.84522   0.72487   0.00000  Uiso   1.00
C936   C     0.65478   0.87196   0.27514   0.00000  Uiso   1.00
C937   C     0.84522   0.62804   0.72487   0.00000  Uiso   1.00
C938   C     0.53028   0.73586   0.45926   0.00000  Uiso   1.00
C939   C     0.96972   0.76414   0.54074   0.00000  Uiso   1.00
C940   C     0.76415   0.53028   0.45926   0.00000  Uiso   1.00
F941   F     0.94103   0.77844   0.39915   0.00000  Uiso   1.00
F942   F     0.69103   0.97155   0.10085   0.00000  Uiso   1.00
F943   F     0.97156   0.80897   0.89915   0.00000  Uiso   1.00
F944   F     0.52844   0.69103   0.10085   0.00000  Uiso   1.00
F945   F     0.69103   0.97155   0.89915   0.00000  Uiso   1.00
F946   F     0.80897   0.52845   0.10085   0.00000  Uiso   1.00
F947   F     0.52844   0.69103   0.89915   0.00000  Uiso   1.00
F948   F     0.97156   0.80897   0.10085   0.00000  Uiso   1.00
F949   F     0.55897   0.72156   0.60085   0.00000  Uiso   1.00
F950   F     0.72155   0.94103   0.39915   0.00000  Uiso   1.00
F951   F     0.77845   0.55897   0.60085   0.00000  Uiso   1.00
F952   F     0.55897   0.72156   0.39915   0.00000  Uiso   1.00
F953   F     0.94103   0.77844   0.60085   0.00000  Uiso   1.00
F954   F     0.77845   0.55897   0.39915   0.00000  Uiso   1.00
F955   F     0.72155   0.94103   0.60085   0.00000  Uiso   1.00
F956   F     0.80897   0.52845   0.89915   0.00000  Uiso   1.00
H957   H     0.58366   0.71081   0.46476   0.00000  Uiso   1.00
H958   H     0.83366   0.53919   0.03524   0.00000  Uiso   1.00
H959   H     0.53918   0.66634   0.96476   0.00000  Uiso   1.00
H960   H     0.96082   0.83366   0.03524   0.00000  Uiso   1.00
H961   H     0.83366   0.53919   0.96476   0.00000  Uiso   1.00
H962   H     0.66634   0.96081   0.03524   0.00000  Uiso   1.00
H963   H     0.96082   0.83366   0.96476   0.00000  Uiso   1.00
H964   H     0.53918   0.66634   0.03524   0.00000  Uiso   1.00
H965   H     0.61917   0.92766   0.20520   0.00000  Uiso   1.00
H966   H     0.88083   0.57234   0.79480   0.00000  Uiso   1.00
H967   H     0.57234   0.61917   0.20520   0.00000  Uiso   1.00
H968   H     0.91634   0.78919   0.53524   0.00000  Uiso   1.00
H969   H     0.92766   0.88083   0.79480   0.00000  Uiso   1.00
H970   H     0.88083   0.57234   0.20520   0.00000  Uiso   1.00
H971   H     0.61917   0.92766   0.79480   0.00000  Uiso   1.00
H972   H     0.92766   0.88083   0.20520   0.00000  Uiso   1.00
H973   H     0.57234   0.61917   0.79480   0.00000  Uiso   1.00
H974   H     0.61917   0.57234   0.79479   0.00000  Uiso   1.00
H975   H     0.88083   0.92766   0.20521   0.00000  Uiso   1.00
H976   H     0.57234   0.88083   0.79479   0.00000  Uiso   1.00
H977   H     0.92766   0.61917   0.20521   0.00000  Uiso   1.00
H978   H     0.88083   0.92766   0.79479   0.00000  Uiso   1.00
H979   H     0.78919   0.58366   0.46476   0.00000  Uiso   1.00
H980   H     0.61917   0.57234   0.20521   0.00000  Uiso   1.00
H981   H     0.92766   0.61917   0.79479   0.00000  Uiso   1.00
H982   H     0.57234   0.88083   0.20521   0.00000  Uiso   1.00
H983   H     0.86917   0.67766   0.70521   0.00000  Uiso   1.00
H984   H     0.63083   0.82234   0.29479   0.00000  Uiso   1.00
H985   H     0.82234   0.86917   0.70521   0.00000  Uiso   1.00
H986   H     0.67766   0.63083   0.29479   0.00000  Uiso   1.00
H987   H     0.63083   0.82234   0.70521   0.00000  Uiso   1.00
H988   H     0.86917   0.67766   0.29479   0.00000  Uiso   1.00
H989   H     0.67766   0.63083   0.70521   0.00000  Uiso   1.00
H990   H     0.71081   0.91634   0.53524   0.00000  Uiso   1.00
H991   H     0.82234   0.86917   0.29479   0.00000  Uiso   1.00
H992   H     0.86917   0.82234   0.29480   0.00000  Uiso   1.00
H993   H     0.63083   0.67766   0.70520   0.00000  Uiso   1.00
H994   H     0.82234   0.63083   0.29480   0.00000  Uiso   1.00
H995   H     0.67766   0.86917   0.70520   0.00000  Uiso   1.00
H996   H     0.63083   0.67766   0.29480   0.00000  Uiso   1.00
H997   H     0.86917   0.82234   0.70520   0.00000  Uiso   1.00
H998   H     0.67766   0.86917   0.29480   0.00000  Uiso   1.00
H999   H     0.82234   0.63083   0.70520   0.00000  Uiso   1.00
H1000  H     0.91634   0.78919   0.46476   0.00000  Uiso   1.00
H1001  H     0.58366   0.71081   0.53524   0.00000  Uiso   1.00
H1002  H     0.71081   0.91634   0.46476   0.00000  Uiso   1.00
H1003  H     0.78919   0.58366   0.53524   0.00000  Uiso   1.00
H1004  H     0.66634   0.96081   0.96476   0.00000  Uiso   1.00
O1005  O     0.75000   0.50000   0.25000   0.00000  Uiso   1.00
O1006  O     0.75000   0.96963   0.66245   0.00000  Uiso   1.00
O1007  O     0.96963   0.75000   0.33755   0.00000  Uiso   1.00
O1008  O     0.53036   0.75000   0.66245   0.00000  Uiso   1.00
O1009  O     0.50000   0.71963   0.83755   0.00000  Uiso   1.00
O1010  O     0.50000   0.78036   0.16245   0.00000  Uiso   1.00
O1011  O     0.78036   0.50000   0.83755   0.00000  Uiso   1.00
O1012  O     0.71963   0.50000   0.16245   0.00000  Uiso   1.00
O1013  O     0.50000   0.78036   0.83755   0.00000  Uiso   1.00
O1014  O     0.50000   0.71964   0.16245   0.00000  Uiso   1.00
O1015  O     0.71963   0.50000   0.83755   0.00000  Uiso   1.00
O1016  O     0.75000   0.50000   0.75000   0.00000  Uiso   1.00
O1017  O     0.78036   0.50000   0.16245   0.00000  Uiso   1.00
O1018  O     0.70724   0.57308   0.27302   0.00000  Uiso   1.00
O1019  O     0.79275   0.92692   0.72698   0.00000  Uiso   1.00
O1020  O     0.92692   0.70725   0.27302   0.00000  Uiso   1.00
O1021  O     0.57307   0.79275   0.72698   0.00000  Uiso   1.00
O1022  O     0.79275   0.92692   0.27302   0.00000  Uiso   1.00
O1023  O     0.70724   0.57308   0.72698   0.00000  Uiso   1.00
O1024  O     0.57307   0.79275   0.27302   0.00000  Uiso   1.00
O1025  O     0.92692   0.70725   0.72698   0.00000  Uiso   1.00
O1026  O     0.70724   0.92692   0.72698   0.00000  Uiso   1.00
O1027  O     0.50000   0.75000   0.25000   0.00000  Uiso   1.00
O1028  O     0.79275   0.57308   0.27302   0.00000  Uiso   1.00
O1029  O     0.92692   0.79276   0.72698   0.00000  Uiso   1.00
O1030  O     0.57307   0.70724   0.27302   0.00000  Uiso   1.00
O1031  O     0.79275   0.57308   0.72698   0.00000  Uiso   1.00
O1032  O     0.70724   0.92692   0.27302   0.00000  Uiso   1.00
O1033  O     0.57307   0.70724   0.72698   0.00000  Uiso   1.00
O1034  O     0.92692   0.79276   0.27302   0.00000  Uiso   1.00
O1035  O     0.95724   0.82308   0.77302   0.00000  Uiso   1.00
O1036  O     0.54275   0.67692   0.22698   0.00000  Uiso   1.00
O1037  O     0.67692   0.95724   0.77302   0.00000  Uiso   1.00
O1038  O     0.50000   0.75000   0.75000   0.00000  Uiso   1.00
O1039  O     0.82307   0.54276   0.22698   0.00000  Uiso   1.00
O1040  O     0.54275   0.67692   0.77302   0.00000  Uiso   1.00
O1041  O     0.95724   0.82308   0.22698   0.00000  Uiso   1.00
O1042  O     0.82307   0.54276   0.77302   0.00000  Uiso   1.00
O1043  O     0.67692   0.95724   0.22698   0.00000  Uiso   1.00
O1044  O     0.95724   0.67693   0.22698   0.00000  Uiso   1.00
O1045  O     0.54275   0.82307   0.77302   0.00000  Uiso   1.00
O1046  O     0.67692   0.54276   0.22698   0.00000  Uiso   1.00
O1047  O     0.82307   0.95724   0.77302   0.00000  Uiso   1.00
O1048  O     0.54275   0.82307   0.22698   0.00000  Uiso   1.00
O1049  O     0.75000   0.96963   0.33755   0.00000  Uiso   1.00
O1050  O     0.95724   0.67693   0.77302   0.00000  Uiso   1.00
O1051  O     0.82307   0.95724   0.22698   0.00000  Uiso   1.00
O1052  O     0.67692   0.54276   0.77302   0.00000  Uiso   1.00
O1053  O     0.75000   0.53037   0.66245   0.00000  Uiso   1.00
O1054  O     0.53036   0.75000   0.33755   0.00000  Uiso   1.00
O1055  O     0.96963   0.75000   0.66245   0.00000  Uiso   1.00
O1056  O     0.75000   0.53037   0.33755   0.00000  Uiso   1.00
Zn1057 Zn    0.70659   0.50000   0.21735   0.00000  Uiso   1.00
Zn1058 Zn    0.54340   0.75000   0.28265   0.00000  Uiso   1.00
Zn1059 Zn    0.75000   0.95659   0.71735   0.00000  Uiso   1.00
Zn1060 Zn    0.75000   0.54341   0.28265   0.00000  Uiso   1.00
Zn1061 Zn    0.54340   0.75000   0.71735   0.00000  Uiso   1.00
Zn1062 Zn    0.95659   0.75000   0.28265   0.00000  Uiso   1.00
Zn1063 Zn    0.75000   0.54341   0.71735   0.00000  Uiso   1.00
Zn1064 Zn    0.75000   0.95659   0.28265   0.00000  Uiso   1.00
Zn1065 Zn    0.79340   0.50000   0.78265   0.00000  Uiso   1.00
Zn1066 Zn    0.50000   0.70660   0.21735   0.00000  Uiso   1.00
Zn1067 Zn    0.50000   0.79341   0.78265   0.00000  Uiso   1.00
Zn1068 Zn    0.79340   0.50000   0.21735   0.00000  Uiso   1.00
Zn1069 Zn    0.70659   0.50000   0.78265   0.00000  Uiso   1.00
Zn1070 Zn    0.50000   0.79341   0.21735   0.00000  Uiso   1.00
Zn1071 Zn    0.50000   0.70660   0.78265   0.00000  Uiso   1.00
Zn1072 Zn    0.95659   0.75000   0.71735   0.00000  Uiso   1.00
loop_
_geom_bond_atom_site_label_1
_geom_bond_atom_site_label_2
_geom_bond_distance
_geom_bond_site_symmetry_2
_ccdc_geom_bond_type
C1     F137    1.360   .     S
C1     C4      1.397   .     A
C1     C314    1.406   .     A
C2     C14     1.397   .     A
C2     F138    1.360   .     S
C2     C588    1.406   .     A
C3     C574    1.412   .     A
C3     C115    1.397   .     A
C3     C58     1.403   .     A
C4     C59     1.403   .     A
C4     C302    1.412   .     A
C5     C49     1.397   .     A
C5     C61     1.403   .     A
C5     C36     1.412   .     S
C6     C60     1.397   .     A
C6     C573    1.412   .     A
C6     C62     1.403   .     A
C7     C71     1.397   .     A
C7     C63     1.403   .     A
C7     C38     1.412   .     S
C8     C64     1.403   .     A
C8     C35     1.397   .     A
C8     C575    1.412   .     S
C9     C43     1.397   .     A
C9     C65     1.403   .     A
C9     C40     1.412   .     S
C10    C66     1.403   .     A
C10    C44     1.397   .     A
C10    C41     1.412   .     S
C11    C67     1.403   .     A
C11    C45     1.397   .     A
C11    C310    1.412   .     S
C12    C68     1.403   .     A
C12    C39     1.412   .     A
C12    C126    1.397   .     A
C13    F139    1.360   .     S
C13    C321    1.406   .     A
C13    C15     1.397   .     A
C14    C576    1.412   .     A
C14    C69     1.403   .     A
C15    C309    1.412   .     A
C15    C70     1.403   .     A
C16    C72     1.403   .     A
C16    C24     1.397   .     A
C16    C42     1.412   .     A
C17    C88     1.455   .     S
C17    C118    1.402   .     A
C17    C116    1.402   .     A
C18    C114    1.402   .     A
C18    C89     1.455   .     S
C18    C117    1.402   .     A
C19    C120    1.402   .     A
C19    C113    1.402   .     A
C19    C81     1.455   .     S
C20    C112    1.402   .     A
C20    C83     1.455   .     S
C20    C119    1.402   .     A
C21    C122    1.402   .     A
C21    C111    1.402   .     A
C21    C84     1.455   .     S
C22    C85     1.455   .     S
C22    C110    1.402   .     A
C22    C121    1.402   .     A
C23    C86     1.455   .     S
C23    C109    1.402   .     A
C23    C124    1.402   .     A
C24    F140    1.360   .     S
C24    C54     1.406   .     S
C25    C123    1.402   .     A
C25    C87     1.455   .     S
C25    C108    1.402   .     A
C26    C127    1.402   .     A
C26    C107    1.402   .     A
C26    C97     1.455   .     S
C27    C98     1.455   .     S
C27    C125    1.402   .     A
C27    C106    1.402   .     A
C28    C105    1.402   .     A
C28    C129    1.402   .     A
C28    C90     1.455   .     S
C29    C103    1.402   .     A
C29    C91     1.455   .     S
C29    C128    1.402   .     A
C30    C131    1.402   .     A
C30    C92     1.455   .     S
C30    C102    1.402   .     A
C31    C101    1.402   .     A
C31    C130    1.402   .     A
C31    C94     1.455   .     S
C32    C133    1.402   .     A
C32    C100    1.402   .     A
C32    C95     1.455   .     S
C33    C99     1.402   .     A
C33    C132    1.402   .     A
C33    C96     1.455   .     S
C34    C36     1.406   .     A
C34    C272    1.412   1_455 A
C34    C134    1.412   .     S
C35    F141    1.360   .     S
C35    C587    1.406   .     A
C36    C403    1.412   1_455 A
C37    C38     1.406   .     A
C37    C542    1.412   1_545 A
C37    C136    1.412   .     S
C38    C539    1.412   1_545 A
C39    C544    1.412   1_545 S
C39    C40     1.406   1_556 S
C40    C550    1.412   1_545 A
C40    C39     1.406   1_554 S
C41    C283    1.412   1_455 A
C41    C42     1.406   1_556 S
C42    C279    1.412   1_455 S
C42    C41     1.406   1_554 S
C43    F142    1.360   .     S
C43    C52     1.406   .     S
C44    F143    1.360   .     S
C44    C53     1.406   .     S
C45    C322    1.406   .     A
C45    F144    1.360   .     S
C46    C75     1.464   .     S
C46    C269    1.406   1_455 A
C46    C82     1.406   .     S
C47    C361    1.406   1_455 A
C47    C49     1.406   .     S
C47    C76     1.464   .     S
C48    C596    1.406   1_545 A
C48    C73     1.464   .     S
C48    C104    1.406   .     S
C49    F145    1.360   .     S
C50    C74     1.464   .     S
C50    C651    1.406   1_545 A
C50    C71     1.406   .     S
C51    C79     1.464   .     S
C51    C571    1.406   1_545 A
C51    C126    1.406   .     S
C52    C538    1.406   1_545 A
C52    C80     1.464   .     S
C53    C281    1.406   1_455 A
C53    C77     1.464   .     S
C54    C313    1.406   1_455 A
C54    C78     1.464   .     S
C55    C134    1.403   .     A
C55    C61     1.392   .     A
C55    H153    1.083   .     S
C56    H164    1.083   .     S
C56    C59     1.392   .     A
C56    C135    1.403   .     A
C57    C136    1.403   .     A
C57    C63     1.392   .     A
C57    H175    1.083   .     S
C58    C62     1.392   .     A
C58    H186    1.083   .     S
C59    H196    1.083   .     S
C60    C584    1.406   .     A
C60    F146    1.360   .     S
C61    H197    1.083   .     S
C62    H198    1.083   .     S
C63    H199    1.083   .     S
C64    H200    1.083   .     S
C64    C69     1.392   1_556 S
C65    H154    1.083   .     S
C65    C68     1.392   1_554 S
C66    H155    1.083   .     S
C66    C72     1.392   1_556 S
C67    H156    1.083   .     S
C67    C70     1.392   1_554 S
C68    H157    1.083   .     S
C68    C65     1.392   1_556 S
C69    H158    1.083   .     S
C69    C64     1.392   1_554 S
C70    H159    1.083   .     S
C70    C67     1.392   1_556 S
C71    F147    1.360   .     S
C72    H160    1.083   .     S
C72    C66     1.392   1_554 S
C73    O252    1.281   .     A
C73    O781    1.281   1_545 S
C74    O738    1.281   1_545 A
C74    O249    1.281   .     S
C75    O471    1.281   1_455 A
C75    O250    1.281   .     S
C76    O204    1.281   .     A
C76    O519    1.281   1_455 S
C77    O205    1.281   .     S
C77    O209    1.281   .     S
C78    O206    1.281   .     A
C78    O210    1.281   .     S
C79    O211    1.281   .     A
C79    O207    1.281   .     A
C80    O213    1.281   .     A
C80    O208    1.281   .     A
C81    O242    1.282   .     A
C81    O214    1.282   .     A
C82    F148    1.360   .     S
C82    C134    1.397   .     A
C83    O243    1.282   .     A
C83    O215    1.282   .     A
C84    O240    1.282   .     A
C84    O216    1.282   .     A
C85    O217    1.282   .     A
C85    O241    1.282   .     A
C86    O247    1.282   .     A
C86    O218    1.282   .     A
C87    O248    1.282   .     A
C87    O219    1.282   .     A
C88    O244    1.282   .     A
C88    O220    1.282   .     A
C89    O246    1.282   .     A
C89    O221    1.282   .     A
C90    O222    1.282   .     A
C90    O233    1.282   .     A
C91    O235    1.282   .     A
C91    O224    1.282   .     A
C92    O231    1.282   .     A
C92    O225    1.282   .     A
C93    C315    1.406   .     A
C93    F149    1.360   .     S
C93    C135    1.397   .     A
C94    O232    1.282   .     A
C94    O226    1.282   .     A
C95    O238    1.282   .     A
C95    O227    1.282   .     A
C96    O228    1.282   .     A
C96    O239    1.282   .     A
C97    O229    1.282   .     A
C97    O236    1.282   .     A
C98    O237    1.282   .     A
C98    O230    1.282   .     A
C99    H161    1.083   .     S
C99    C116    1.386   .     A
C100   C114    1.386   .     A
C100   H162    1.083   .     S
C101   C113    1.386   .     A
C101   H163    1.083   .     S
C102   C112    1.386   .     A
C102   H165    1.083   .     S
C103   C111    1.386   .     A
C103   H166    1.083   .     S
C104   F150    1.360   .     S
C104   C136    1.397   .     A
C105   C110    1.386   .     A
C105   H167    1.083   .     S
C106   H168    1.083   .     S
C106   C109    1.386   .     A
C107   C108    1.386   .     A
C107   H169    1.083   .     S
C108   H170    1.083   .     S
C109   H171    1.083   .     S
C110   H172    1.083   .     S
C111   H173    1.083   .     S
C112   H174    1.083   .     S
C113   H176    1.083   .     S
C114   H177    1.083   .     S
C115   C586    1.406   .     A
C115   F151    1.360   .     S
C116   H178    1.083   .     S
C117   C133    1.386   .     A
C117   H179    1.083   .     S
C118   H180    1.083   .     S
C118   C132    1.386   .     A
C119   C131    1.386   .     A
C119   H181    1.083   .     S
C120   C130    1.386   .     A
C120   H182    1.083   .     S
C121   H183    1.083   .     S
C121   C129    1.386   .     A
C122   H184    1.083   .     S
C122   C128    1.386   .     A
C123   H185    1.083   .     S
C123   C127    1.386   .     A
C124   H187    1.083   .     S
C124   C125    1.386   .     A
C125   H188    1.083   .     S
C126   F152    1.360   .     S
C127   H189    1.083   .     S
C128   H190    1.083   .     S
C129   H191    1.083   .     S
C130   H192    1.083   .     S
C131   H193    1.083   .     S
C132   H194    1.083   .     S
C133   H195    1.083   .     S
C135   C304    1.412   .     A
O201   Zn264   1.949   .     S
O201   Zn796   1.949   1_545 S
O201   Zn253   1.949   .     S
O201   Zn256   1.949   .     S
O202   C610    1.281   .     A
O202   Zn255   1.952   .     S
O203   Zn258   1.952   .     S
O203   C343    1.281   .     A
O204   Zn257   1.952   .     S
O205   Zn267   1.952   .     S
O206   Zn266   1.952   .     S
O207   Zn261   1.952   .     S
O208   Zn253   1.952   .     S
O209   Zn263   1.952   .     S
O210   Zn262   1.952   .     S
O211   Zn265   1.952   .     S
O212   Zn261   1.949   .     S
O212   Zn265   1.949   .     S
O212   Zn791   1.949   1_545 S
O212   Zn259   1.949   .     S
O213   Zn264   1.952   .     S
O214   Zn256   1.936   .     S
O215   Zn255   1.936   .     S
O216   Zn258   1.936   .     S
O217   Zn257   1.936   .     S
O218   Zn260   1.936   .     S
O219   Zn259   1.936   .     S
O220   Zn254   1.936   .     S
O221   Zn268   1.936   .     S
O222   Zn255   1.936   .     S
O223   Zn254   1.949   .     S
O223   Zn526   1.949   1_455 S
O223   Zn262   1.949   .     S
O223   Zn266   1.949   .     S
O224   Zn256   1.936   .     S
O225   Zn268   1.936   .     S
O226   Zn254   1.936   .     S
O227   Zn259   1.936   .     S
O228   Zn260   1.936   .     S
O229   Zn257   1.936   .     S
O230   Zn258   1.936   .     S
O231   Zn531   1.936   .     S
O232   Zn262   1.936   .     S
O233   Zn801   1.936   .     S
O234   Zn536   1.949   1_455 S
O234   Zn263   1.949   .     S
O234   Zn267   1.949   .     S
O234   Zn257   1.949   .     S
O235   Zn264   1.936   .     S
O236   Zn267   1.936   .     S
O237   Zn534   1.936   .     S
O238   Zn261   1.936   .     S
O239   Zn789   1.936   .     S
O240   Zn530   1.936   .     S
O241   Zn263   1.936   .     S
O242   Zn253   1.936   .     S
O243   Zn797   1.936   .     S
O244   Zn266   1.936   .     S
O245   Zn260   1.952   .     S
O245   C609    1.281   .     S
O246   Zn535   1.936   .     S
O247   Zn800   1.936   .     S
O248   Zn265   1.936   .     S
O249   Zn259   1.952   .     S
O250   Zn254   1.952   .     S
O251   Zn268   1.952   .     S
O251   C344    1.281   .     S
O252   Zn256   1.952   .     S
Zn253  O775    1.936   1_545 S
Zn255  O748    1.949   .     S
Zn258  O491    1.949   .     S
Zn260  O737    1.949   .     S
Zn261  O779    1.936   1_545 S
Zn262  O508    1.936   1_455 S
Zn263  O499    1.936   1_455 S
Zn264  O783    1.936   1_545 S
Zn265  O769    1.936   1_545 S
Zn266  O505    1.936   1_455 S
Zn267  O514    1.936   1_455 S
Zn268  O502    1.949   .     S
C269   F405    1.360   .     S
C269   C272    1.397   .     A
C269   C46     1.406   1_655 A
C270   C282    1.397   .     A
C270   F406    1.360   .     S
C270   C856    1.406   .     A
C271   C842    1.412   .     A
C271   C383    1.397   .     A
C271   C326    1.403   .     A
C272   C327    1.403   .     A
C272   C34     1.412   1_655 A
C273   C317    1.397   .     A
C273   C329    1.403   .     A
C273   C304    1.412   .     S
C274   C328    1.397   .     A
C274   C841    1.412   .     A
C274   C330    1.403   .     A
C275   C339    1.397   .     A
C275   C331    1.403   .     A
C275   C306    1.412   .     S
C276   C332    1.403   .     A
C276   C303    1.397   .     A
C276   C843    1.412   .     S
C277   C311    1.397   .     A
C277   C333    1.403   .     A
C277   C308    1.412   .     S
C278   C334    1.403   .     A
C278   C312    1.397   .     A
C278   C309    1.412   .     S
C279   C335    1.403   .     A
C279   C313    1.397   .     A
C279   C42     1.412   1_655 S
C280   C336    1.403   .     A
C280   C307    1.412   .     A
C280   C394    1.397   .     A
C281   F407    1.360   .     S
C281   C53     1.406   1_655 A
C281   C283    1.397   .     A
C282   C844    1.412   .     A
C282   C337    1.403   .     A
C283   C41     1.412   1_655 A
C283   C338    1.403   .     A
C284   C340    1.403   .     A
C284   C292    1.397   .     A
C284   C310    1.412   .     A
C285   C356    1.455   .     S
C285   C386    1.402   .     A
C285   C384    1.402   .     A
C286   C382    1.402   .     A
C286   C357    1.455   .     S
C286   C385    1.402   .     A
C287   C388    1.402   .     A
C287   C381    1.402   .     A
C287   C349    1.455   .     S
C288   C380    1.402   .     A
C288   C351    1.455   .     S
C288   C387    1.402   .     A
C289   C390    1.402   .     A
C289   C379    1.402   .     A
C289   C352    1.455   .     S
C290   C353    1.455   .     S
C290   C378    1.402   .     A
C290   C389    1.402   .     A
C291   C354    1.455   .     S
C291   C377    1.402   .     A
C291   C392    1.402   .     A
C292   F408    1.360   .     S
C292   C322    1.406   .     S
C293   C391    1.402   .     A
C293   C355    1.455   .     S
C293   C376    1.402   .     A
C294   C395    1.402   .     A
C294   C375    1.402   .     A
C294   C365    1.455   .     S
C295   C366    1.455   .     S
C295   C393    1.402   .     A
C295   C374    1.402   .     A
C296   C373    1.402   .     A
C296   C397    1.402   .     A
C296   C358    1.455   .     S
C297   C371    1.402   .     A
C297   C359    1.455   .     S
C297   C396    1.402   .     A
C298   C399    1.402   .     A
C298   C360    1.455   .     S
C298   C370    1.402   .     A
C299   C369    1.402   .     A
C299   C398    1.402   .     A
C299   C362    1.455   .     S
C300   C401    1.402   .     A
C300   C368    1.402   .     A
C300   C363    1.455   .     S
C301   C367    1.402   .     A
C301   C400    1.402   .     A
C301   C364    1.455   .     S
C302   C304    1.406   .     A
C302   C402    1.412   .     S
C303   F409    1.360   .     S
C303   C855    1.406   .     A
C305   C306    1.406   .     A
C305   C810    1.412   1_545 A
C305   C404    1.412   .     S
C306   C807    1.412   1_545 A
C307   C812    1.412   1_545 S
C307   C308    1.406   1_556 S
C308   C818    1.412   1_545 A
C308   C307    1.406   1_554 S
C309   C310    1.406   1_556 S
C310   C309    1.406   1_554 S
C311   F410    1.360   .     S
C311   C320    1.406   .     S
C312   F411    1.360   .     S
C312   C321    1.406   .     S
C313   C54     1.406   1_655 A
C313   F412    1.360   .     S
C314   C343    1.464   .     S
C314   C350    1.406   .     S
C315   C317    1.406   .     S
C315   C344    1.464   .     S
C316   C864    1.406   1_545 A
C316   C341    1.464   .     S
C316   C372    1.406   .     S
C317   F413    1.360   .     S
C318   C342    1.464   .     S
C318   C919    1.406   1_545 A
C318   C339    1.406   .     S
C319   C347    1.464   .     S
C319   C839    1.406   1_545 A
C319   C394    1.406   .     S
C320   C806    1.406   1_545 A
C320   C348    1.464   .     S
C321   C345    1.464   .     S
C322   C346    1.464   .     S
C323   C402    1.403   .     A
C323   C329    1.392   .     A
C323   H421    1.083   .     S
C324   H432    1.083   .     S
C324   C327    1.392   .     A
C324   C403    1.403   .     A
C325   C404    1.403   .     A
C325   C331    1.392   .     A
C325   H443    1.083   .     S
C326   C330    1.392   .     A
C326   H454    1.083   .     S
C327   H464    1.083   .     S
C328   C852    1.406   .     A
C328   F414    1.360   .     S
C329   H465    1.083   .     S
C330   H466    1.083   .     S
C331   H467    1.083   .     S
C332   H468    1.083   .     S
C332   C337    1.392   1_556 S
C333   H422    1.083   .     S
C333   C336    1.392   1_554 S
C334   H423    1.083   .     S
C334   C340    1.392   1_556 S
C335   H424    1.083   .     S
C335   C338    1.392   1_554 S
C336   H425    1.083   .     S
C336   C333    1.392   1_556 S
C337   H426    1.083   .     S
C337   C332    1.392   1_554 S
C338   H427    1.083   .     S
C338   C335    1.392   1_556 S
C339   F415    1.360   .     S
C340   H428    1.083   .     S
C340   C334    1.392   1_554 S
C341   O520    1.281   .     A
C341   O1049   1.281   1_545 S
C342   O1006   1.281   1_545 A
C342   O517    1.281   .     S
C343   O518    1.281   .     S
C344   O472    1.281   .     A
C345   O473    1.281   .     S
C345   O477    1.281   .     S
C346   O474    1.281   .     A
C346   O478    1.281   .     S
C347   O479    1.281   .     A
C347   O475    1.281   .     A
C348   O481    1.281   .     A
C348   O476    1.281   .     A
C349   O510    1.282   .     A
C349   O482    1.282   .     A
C350   F416    1.360   .     S
C350   C402    1.397   .     A
C351   O511    1.282   .     A
C351   O483    1.282   .     A
C352   O508    1.282   .     A
C352   O484    1.282   .     A
C353   O485    1.282   .     A
C353   O509    1.282   .     A
C354   O515    1.282   .     A
C354   O486    1.282   .     A
C355   O516    1.282   .     A
C355   O487    1.282   .     A
C356   O512    1.282   .     A
C356   O488    1.282   .     A
C357   O514    1.282   .     A
C357   O489    1.282   .     A
C358   O490    1.282   .     A
C358   O501    1.282   .     A
C359   O503    1.282   .     A
C359   O492    1.282   .     A
C360   O499    1.282   .     A
C360   O493    1.282   .     A
C361   C47     1.406   1_655 A
C361   F417    1.360   .     S
C361   C403    1.397   .     A
C362   O500    1.282   .     A
C362   O494    1.282   .     A
C363   O506    1.282   .     A
C363   O495    1.282   .     A
C364   O496    1.282   .     A
C364   O507    1.282   .     A
C365   O497    1.282   .     A
C365   O504    1.282   .     A
C366   O505    1.282   .     A
C366   O498    1.282   .     A
C367   H429    1.083   .     S
C367   C384    1.386   .     A
C368   C382    1.386   .     A
C368   H430    1.083   .     S
C369   C381    1.386   .     A
C369   H431    1.083   .     S
C370   C380    1.386   .     A
C370   H433    1.083   .     S
C371   C379    1.386   .     A
C371   H434    1.083   .     S
C372   F418    1.360   .     S
C372   C404    1.397   .     A
C373   C378    1.386   .     A
C373   H435    1.083   .     S
C374   H436    1.083   .     S
C374   C377    1.386   .     A
C375   C376    1.386   .     A
C375   H437    1.083   .     S
C376   H438    1.083   .     S
C377   H439    1.083   .     S
C378   H440    1.083   .     S
C379   H441    1.083   .     S
C380   H442    1.083   .     S
C381   H444    1.083   .     S
C382   H445    1.083   .     S
C383   C854    1.406   .     A
C383   F419    1.360   .     S
C384   H446    1.083   .     S
C385   C401    1.386   .     A
C385   H447    1.083   .     S
C386   H448    1.083   .     S
C386   C400    1.386   .     A
C387   C399    1.386   .     A
C387   H449    1.083   .     S
C388   C398    1.386   .     A
C388   H450    1.083   .     S
C389   H451    1.083   .     S
C389   C397    1.386   .     A
C390   H452    1.083   .     S
C390   C396    1.386   .     A
C391   H453    1.083   .     S
C391   C395    1.386   .     A
C392   H455    1.083   .     S
C392   C393    1.386   .     A
C393   H456    1.083   .     S
C394   F420    1.360   .     S
C395   H457    1.083   .     S
C396   H458    1.083   .     S
C397   H459    1.083   .     S
C398   H460    1.083   .     S
C399   H461    1.083   .     S
C400   H462    1.083   .     S
C401   H463    1.083   .     S
C403   C36     1.412   1_655 A
O469   Zn532   1.949   .     S
O469   Zn1064  1.949   1_545 S
O469   Zn521   1.949   .     S
O469   Zn524   1.949   .     S
O470   C878    1.281   .     A
O470   Zn523   1.952   .     S
O471   Zn526   1.952   .     S
O471   C75     1.281   1_655 A
O472   Zn525   1.952   .     S
O473   Zn535   1.952   .     S
O474   Zn534   1.952   .     S
O475   Zn529   1.952   .     S
O476   Zn521   1.952   .     S
O477   Zn531   1.952   .     S
O478   Zn530   1.952   .     S
O479   Zn533   1.952   .     S
O480   Zn529   1.949   .     S
O480   Zn533   1.949   .     S
O480   Zn1059  1.949   1_545 S
O480   Zn527   1.949   .     S
O481   Zn532   1.952   .     S
O482   Zn524   1.936   .     S
O483   Zn523   1.936   .     S
O484   Zn526   1.936   .     S
O485   Zn525   1.936   .     S
O486   Zn528   1.936   .     S
O487   Zn527   1.936   .     S
O488   Zn522   1.936   .     S
O489   Zn536   1.936   .     S
O490   Zn523   1.936   .     S
O491   Zn522   1.949   .     S
O491   Zn530   1.949   .     S
O491   Zn534   1.949   .     S
O492   Zn524   1.936   .     S
O493   Zn536   1.936   .     S
O494   Zn522   1.936   .     S
O495   Zn527   1.936   .     S
O496   Zn528   1.936   .     S
O497   Zn525   1.936   .     S
O498   Zn526   1.936   .     S
O499   Zn263   1.936   1_655 S
O500   Zn530   1.936   .     S
O501   Zn1069  1.936   .     S
O502   Zn531   1.949   .     S
O502   Zn535   1.949   .     S
O502   Zn525   1.949   .     S
O503   Zn532   1.936   .     S
O504   Zn535   1.936   .     S
O505   Zn266   1.936   1_655 S
O506   Zn529   1.936   .     S
O507   Zn1057  1.936   .     S
O508   Zn262   1.936   1_655 S
O509   Zn531   1.936   .     S
O510   Zn521   1.936   .     S
O511   Zn1065  1.936   .     S
O512   Zn534   1.936   .     S
O513   Zn528   1.952   .     S
O513   C877    1.281   .     S
O514   Zn267   1.936   1_655 S
O515   Zn1068  1.936   .     S
O516   Zn533   1.936   .     S
O517   Zn527   1.952   .     S
O518   Zn522   1.952   .     S
O519   Zn536   1.952   .     S
O519   C76     1.281   1_655 S
O520   Zn524   1.952   .     S
Zn521  O1043   1.936   1_545 S
Zn523  O1016   1.949   .     S
Zn526  O223    1.949   1_655 S
Zn528  O1005   1.949   .     S
Zn529  O1047   1.936   1_545 S
Zn532  O1051   1.936   1_545 S
Zn533  O1037   1.936   1_545 S
Zn536  O234    1.949   1_655 S
C537   F673    1.360   .     S
C537   C540    1.397   .     A
C537   C850    1.406   .     A
C538   C550    1.397   .     A
C538   F674    1.360   .     S
C538   C52     1.406   1_565 A
C539   C38     1.412   1_565 A
C539   C651    1.397   .     A
C539   C594    1.403   .     A
C540   C595    1.403   .     A
C540   C838    1.412   .     A
C541   C585    1.397   .     A
C541   C597    1.403   .     A
C541   C572    1.412   .     S
C542   C596    1.397   .     A
C542   C37     1.412   1_565 A
C542   C598    1.403   .     A
C543   C607    1.397   .     A
C543   C599    1.403   .     A
C543   C574    1.412   .     S
C544   C600    1.403   .     A
C544   C571    1.397   .     A
C544   C39     1.412   1_565 S
C545   C579    1.397   .     A
C545   C601    1.403   .     A
C545   C576    1.412   .     S
C546   C602    1.403   .     A
C546   C580    1.397   .     A
C546   C577    1.412   .     S
C547   C603    1.403   .     A
C547   C581    1.397   .     A
C547   C846    1.412   .     S
C548   C604    1.403   .     A
C548   C575    1.412   .     A
C548   C662    1.397   .     A
C549   F675    1.360   .     S
C549   C857    1.406   .     A
C549   C551    1.397   .     A
C550   C40     1.412   1_565 A
C550   C605    1.403   .     A
C551   C845    1.412   .     A
C551   C606    1.403   .     A
C552   C608    1.403   .     A
C552   C560    1.397   .     A
C552   C578    1.412   .     A
C553   C624    1.455   .     S
C553   C654    1.402   .     A
C553   C652    1.402   .     A
C554   C650    1.402   .     A
C554   C625    1.455   .     S
C554   C653    1.402   .     A
C555   C656    1.402   .     A
C555   C649    1.402   .     A
C555   C617    1.455   .     S
C556   C648    1.402   .     A
C556   C619    1.455   .     S
C556   C655    1.402   .     A
C557   C658    1.402   .     A
C557   C647    1.402   .     A
C557   C620    1.455   .     S
C558   C621    1.455   .     S
C558   C646    1.402   .     A
C558   C657    1.402   .     A
C559   C622    1.455   .     S
C559   C645    1.402   .     A
C559   C660    1.402   .     A
C560   F676    1.360   .     S
C560   C590    1.406   .     S
C561   C659    1.402   .     A
C561   C623    1.455   .     S
C561   C644    1.402   .     A
C562   C663    1.402   .     A
C562   C643    1.402   .     A
C562   C633    1.455   .     S
C563   C634    1.455   .     S
C563   C661    1.402   .     A
C563   C642    1.402   .     A
C564   C641    1.402   .     A
C564   C665    1.402   .     A
C564   C626    1.455   .     S
C565   C639    1.402   .     A
C565   C627    1.455   .     S
C565   C664    1.402   .     A
C566   C667    1.402   .     A
C566   C628    1.455   .     S
C566   C638    1.402   .     A
C567   C637    1.402   .     A
C567   C666    1.402   .     A
C567   C630    1.455   .     S
C568   C669    1.402   .     A
C568   C636    1.402   .     A
C568   C631    1.455   .     S
C569   C635    1.402   .     A
C569   C668    1.402   .     A
C569   C632    1.455   .     S
C570   C572    1.406   .     A
C570   C808    1.412   1_455 A
C570   C670    1.412   .     S
C571   F677    1.360   .     S
C571   C51     1.406   1_565 A
C572   C939    1.412   1_455 A
C573   C574    1.406   .     A
C573   C672    1.412   .     S
C575   C576    1.406   1_556 S
C576   C575    1.406   1_554 S
C577   C819    1.412   1_455 A
C577   C578    1.406   1_556 S
C578   C815    1.412   1_455 S
C578   C577    1.406   1_554 S
C579   F678    1.360   .     S
C579   C588    1.406   .     S
C580   F679    1.360   .     S
C580   C589    1.406   .     S
C581   C858    1.406   .     A
C581   F680    1.360   .     S
C582   C611    1.464   .     S
C582   C805    1.406   1_455 A
C582   C618    1.406   .     S
C583   C897    1.406   1_455 A
C583   C585    1.406   .     S
C583   C612    1.464   .     S
C584   C609    1.464   .     S
C584   C640    1.406   .     S
C585   F681    1.360   .     S
C586   C610    1.464   .     S
C586   C607    1.406   .     S
C587   C615    1.464   .     S
C587   C662    1.406   .     S
C588   C616    1.464   .     S
C589   C817    1.406   1_455 A
C589   C613    1.464   .     S
C590   C849    1.406   1_455 A
C590   C614    1.464   .     S
C591   C670    1.403   .     A
C591   C597    1.392   .     A
C591   H689    1.083   .     S
C592   H700    1.083   .     S
C592   C595    1.392   .     A
C592   C671    1.403   .     A
C593   C672    1.403   .     A
C593   C599    1.392   .     A
C593   H711    1.083   .     S
C594   C598    1.392   .     A
C594   H722    1.083   .     S
C595   H732    1.083   .     S
C596   C48     1.406   1_565 A
C596   F682    1.360   .     S
C597   H733    1.083   .     S
C598   H734    1.083   .     S
C599   H735    1.083   .     S
C600   H736    1.083   .     S
C600   C605    1.392   1_556 S
C601   H690    1.083   .     S
C601   C604    1.392   1_554 S
C602   H691    1.083   .     S
C602   C608    1.392   1_556 S
C603   H692    1.083   .     S
C603   C606    1.392   1_554 S
C604   H693    1.083   .     S
C604   C601    1.392   1_556 S
C605   H694    1.083   .     S
C605   C600    1.392   1_554 S
C606   H695    1.083   .     S
C606   C603    1.392   1_556 S
C607   F683    1.360   .     S
C608   H696    1.083   .     S
C608   C602    1.392   1_554 S
C609   O788    1.281   .     A
C610   O785    1.281   .     S
C611   O1007   1.281   1_455 A
C611   O786    1.281   .     S
C612   O740    1.281   .     A
C612   O1055   1.281   1_455 S
C613   O741    1.281   .     S
C613   O745    1.281   .     S
C614   O742    1.281   .     A
C614   O746    1.281   .     S
C615   O747    1.281   .     A
C615   O743    1.281   .     A
C616   O749    1.281   .     A
C616   O744    1.281   .     A
C617   O778    1.282   .     A
C617   O750    1.282   .     A
C618   F684    1.360   .     S
C618   C670    1.397   .     A
C619   O779    1.282   .     A
C619   O751    1.282   .     A
C620   O776    1.282   .     A
C620   O752    1.282   .     A
C621   O753    1.282   .     A
C621   O777    1.282   .     A
C622   O783    1.282   .     A
C622   O754    1.282   .     A
C623   O784    1.282   .     A
C623   O755    1.282   .     A
C624   O780    1.282   .     A
C624   O756    1.282   .     A
C625   O782    1.282   .     A
C625   O757    1.282   .     A
C626   O758    1.282   .     A
C626   O769    1.282   .     A
C627   O771    1.282   .     A
C627   O760    1.282   .     A
C628   O767    1.282   .     A
C628   O761    1.282   .     A
C629   C851    1.406   .     A
C629   F685    1.360   .     S
C629   C671    1.397   .     A
C630   O768    1.282   .     A
C630   O762    1.282   .     A
C631   O774    1.282   .     A
C631   O763    1.282   .     A
C632   O764    1.282   .     A
C632   O775    1.282   .     A
C633   O765    1.282   .     A
C633   O772    1.282   .     A
C634   O773    1.282   .     A
C634   O766    1.282   .     A
C635   H697    1.083   .     S
C635   C652    1.386   .     A
C636   C650    1.386   .     A
C636   H698    1.083   .     S
C637   C649    1.386   .     A
C637   H699    1.083   .     S
C638   C648    1.386   .     A
C638   H701    1.083   .     S
C639   C647    1.386   .     A
C639   H702    1.083   .     S
C640   F686    1.360   .     S
C640   C672    1.397   .     A
C641   C646    1.386   .     A
C641   H703    1.083   .     S
C642   H704    1.083   .     S
C642   C645    1.386   .     A
C643   C644    1.386   .     A
C643   H705    1.083   .     S
C644   H706    1.083   .     S
C645   H707    1.083   .     S
C646   H708    1.083   .     S
C647   H709    1.083   .     S
C648   H710    1.083   .     S
C649   H712    1.083   .     S
C650   H713    1.083   .     S
C651   C50     1.406   1_565 A
C651   F687    1.360   .     S
C652   H714    1.083   .     S
C653   C669    1.386   .     A
C653   H715    1.083   .     S
C654   H716    1.083   .     S
C654   C668    1.386   .     A
C655   C667    1.386   .     A
C655   H717    1.083   .     S
C656   C666    1.386   .     A
C656   H718    1.083   .     S
C657   H719    1.083   .     S
C657   C665    1.386   .     A
C658   H720    1.083   .     S
C658   C664    1.386   .     A
C659   H721    1.083   .     S
C659   C663    1.386   .     A
C660   H723    1.083   .     S
C660   C661    1.386   .     A
C661   H724    1.083   .     S
C662   F688    1.360   .     S
C663   H725    1.083   .     S
C664   H726    1.083   .     S
C665   H727    1.083   .     S
C666   H728    1.083   .     S
C667   H729    1.083   .     S
C668   H730    1.083   .     S
C669   H731    1.083   .     S
C671   C840    1.412   .     A
O737   Zn800   1.949   .     S
O737   Zn789   1.949   .     S
O737   Zn792   1.949   .     S
O738   C74     1.281   1_565 A
O738   Zn791   1.952   .     S
O739   Zn794   1.952   .     S
O739   C879    1.281   .     A
O740   Zn793   1.952   .     S
O741   Zn803   1.952   .     S
O742   Zn802   1.952   .     S
O743   Zn797   1.952   .     S
O744   Zn789   1.952   .     S
O745   Zn799   1.952   .     S
O746   Zn798   1.952   .     S
O747   Zn801   1.952   .     S
O748   Zn797   1.949   .     S
O748   Zn801   1.949   .     S
O748   Zn795   1.949   .     S
O749   Zn800   1.952   .     S
O750   Zn792   1.936   .     S
O751   Zn791   1.936   .     S
O752   Zn794   1.936   .     S
O753   Zn793   1.936   .     S
O754   Zn796   1.936   .     S
O755   Zn795   1.936   .     S
O756   Zn790   1.936   .     S
O757   Zn804   1.936   .     S
O758   Zn791   1.936   .     S
O759   Zn790   1.949   .     S
O759   Zn1062  1.949   1_455 S
O759   Zn798   1.949   .     S
O759   Zn802   1.949   .     S
O760   Zn792   1.936   .     S
O761   Zn804   1.936   .     S
O762   Zn790   1.936   .     S
O763   Zn795   1.936   .     S
O764   Zn796   1.936   .     S
O765   Zn793   1.936   .     S
O766   Zn794   1.936   .     S
O767   Zn1067  1.936   .     S
O768   Zn798   1.936   .     S
O769   Zn265   1.936   1_565 S
O770   Zn1072  1.949   1_455 S
O770   Zn799   1.949   .     S
O770   Zn803   1.949   .     S
O770   Zn793   1.949   .     S
O771   Zn800   1.936   .     S
O772   Zn803   1.936   .     S
O773   Zn1070  1.936   .     S
O774   Zn797   1.936   .     S
O775   Zn253   1.936   1_565 S
O776   Zn1066  1.936   .     S
O777   Zn799   1.936   .     S
O778   Zn789   1.936   .     S
O779   Zn261   1.936   1_565 S
O780   Zn802   1.936   .     S
O781   Zn796   1.952   .     S
O781   C73     1.281   1_565 S
O782   Zn1071  1.936   .     S
O783   Zn264   1.936   1_565 S
O784   Zn801   1.936   .     S
O785   Zn795   1.952   .     S
O786   Zn790   1.952   .     S
O787   Zn804   1.952   .     S
O787   C880    1.281   .     S
O788   Zn792   1.952   .     S
Zn791  O212    1.949   1_565 S
Zn794  O1027   1.949   .     S
Zn796  O201    1.949   1_565 S
Zn798  O1044   1.936   1_455 S
Zn799  O1035   1.936   1_455 S
Zn802  O1041   1.936   1_455 S
Zn803  O1050   1.936   1_455 S
Zn804  O1038   1.949   .     S
C805   F941    1.360   .     S
C805   C808    1.397   .     A
C805   C582    1.406   1_655 A
C806   C818    1.397   .     A
C806   F942    1.360   .     S
C806   C320    1.406   1_565 A
C807   C306    1.412   1_565 A
C807   C919    1.397   .     A
C807   C862    1.403   .     A
C808   C863    1.403   .     A
C808   C570    1.412   1_655 A
C809   C853    1.397   .     A
C809   C865    1.403   .     A
C809   C840    1.412   .     S
C810   C864    1.397   .     A
C810   C305    1.412   1_565 A
C810   C866    1.403   .     A
C811   C875    1.397   .     A
C811   C867    1.403   .     A
C811   C842    1.412   .     S
C812   C868    1.403   .     A
C812   C839    1.397   .     A
C812   C307    1.412   1_565 S
C813   C847    1.397   .     A
C813   C869    1.403   .     A
C813   C844    1.412   .     S
C814   C870    1.403   .     A
C814   C848    1.397   .     A
C814   C845    1.412   .     S
C815   C871    1.403   .     A
C815   C849    1.397   .     A
C815   C578    1.412   1_655 S
C816   C872    1.403   .     A
C816   C843    1.412   .     A
C816   C930    1.397   .     A
C817   F943    1.360   .     S
C817   C589    1.406   1_655 A
C817   C819    1.397   .     A
C818   C308    1.412   1_565 A
C818   C873    1.403   .     A
C819   C577    1.412   1_655 A
C819   C874    1.403   .     A
C820   C876    1.403   .     A
C820   C828    1.397   .     A
C820   C846    1.412   .     A
C821   C892    1.455   .     S
C821   C922    1.402   .     A
C821   C920    1.402   .     A
C822   C918    1.402   .     A
C822   C893    1.455   .     S
C822   C921    1.402   .     A
C823   C924    1.402   .     A
C823   C917    1.402   .     A
C823   C885    1.455   .     S
C824   C916    1.402   .     A
C824   C887    1.455   .     S
C824   C923    1.402   .     A
C825   C926    1.402   .     A
C825   C915    1.402   .     A
C825   C888    1.455   .     S
C826   C889    1.455   .     S
C826   C914    1.402   .     A
C826   C925    1.402   .     A
C827   C890    1.455   .     S
C827   C913    1.402   .     A
C827   C928    1.402   .     A
C828   F944    1.360   .     S
C828   C858    1.406   .     S
C829   C927    1.402   .     A
C829   C891    1.455   .     S
C829   C912    1.402   .     A
C830   C931    1.402   .     A
C830   C911    1.402   .     A
C830   C901    1.455   .     S
C831   C902    1.455   .     S
C831   C929    1.402   .     A
C831   C910    1.402   .     A
C832   C909    1.402   .     A
C832   C933    1.402   .     A
C832   C894    1.455   .     S
C833   C907    1.402   .     A
C833   C895    1.455   .     S
C833   C932    1.402   .     A
C834   C935    1.402   .     A
C834   C896    1.455   .     S
C834   C906    1.402   .     A
C835   C905    1.402   .     A
C835   C934    1.402   .     A
C835   C898    1.455   .     S
C836   C937    1.402   .     A
C836   C904    1.402   .     A
C836   C899    1.455   .     S
C837   C903    1.402   .     A
C837   C936    1.402   .     A
C837   C900    1.455   .     S
C838   C840    1.406   .     A
C838   C938    1.412   .     S
C839   F945    1.360   .     S
C839   C319    1.406   1_565 A
C841   C842    1.406   .     A
C841   C940    1.412   .     S
C843   C844    1.406   1_556 S
C844   C843    1.406   1_554 S
C845   C846    1.406   1_556 S
C846   C845    1.406   1_554 S
C847   F946    1.360   .     S
C847   C856    1.406   .     S
C848   F947    1.360   .     S
C848   C857    1.406   .     S
C849   C590    1.406   1_655 A
C849   F948    1.360   .     S
C850   C879    1.464   .     S
C850   C886    1.406   .     S
C851   C853    1.406   .     S
C851   C880    1.464   .     S
C852   C877    1.464   .     S
C852   C908    1.406   .     S
C853   F949    1.360   .     S
C854   C878    1.464   .     S
C854   C875    1.406   .     S
C855   C883    1.464   .     S
C855   C930    1.406   .     S
C856   C884    1.464   .     S
C857   C881    1.464   .     S
C858   C882    1.464   .     S
C859   C938    1.403   .     A
C859   C865    1.392   .     A
C859   H957    1.083   .     S
C860   H968    1.083   .     S
C860   C863    1.392   .     A
C860   C939    1.403   .     A
C861   C940    1.403   .     A
C861   C867    1.392   .     A
C861   H979    1.083   .     S
C862   C866    1.392   .     A
C862   H990    1.083   .     S
C863   H1000   1.083   .     S
C864   C316    1.406   1_565 A
C864   F950    1.360   .     S
C865   H1001   1.083   .     S
C866   H1002   1.083   .     S
C867   H1003   1.083   .     S
C868   H1004   1.083   .     S
C868   C873    1.392   1_556 S
C869   H958    1.083   .     S
C869   C872    1.392   1_554 S
C870   H959    1.083   .     S
C870   C876    1.392   1_556 S
C871   H960    1.083   .     S
C871   C874    1.392   1_554 S
C872   H961    1.083   .     S
C872   C869    1.392   1_556 S
C873   H962    1.083   .     S
C873   C868    1.392   1_554 S
C874   H963    1.083   .     S
C874   C871    1.392   1_556 S
C875   F951    1.360   .     S
C876   H964    1.083   .     S
C876   C870    1.392   1_554 S
C877   O1056   1.281   .     A
C878   O1053   1.281   .     S
C879   O1054   1.281   .     S
C880   O1008   1.281   .     A
C881   O1009   1.281   .     S
C881   O1013   1.281   .     S
C882   O1010   1.281   .     A
C882   O1014   1.281   .     S
C883   O1015   1.281   .     A
C883   O1011   1.281   .     A
C884   O1017   1.281   .     A
C884   O1012   1.281   .     A
C885   O1046   1.282   .     A
C885   O1018   1.282   .     A
C886   F952    1.360   .     S
C886   C938    1.397   .     A
C887   O1047   1.282   .     A
C887   O1019   1.282   .     A
C888   O1044   1.282   .     A
C888   O1020   1.282   .     A
C889   O1021   1.282   .     A
C889   O1045   1.282   .     A
C890   O1051   1.282   .     A
C890   O1022   1.282   .     A
C891   O1052   1.282   .     A
C891   O1023   1.282   .     A
C892   O1048   1.282   .     A
C892   O1024   1.282   .     A
C893   O1050   1.282   .     A
C893   O1025   1.282   .     A
C894   O1026   1.282   .     A
C894   O1037   1.282   .     A
C895   O1039   1.282   .     A
C895   O1028   1.282   .     A
C896   O1035   1.282   .     A
C896   O1029   1.282   .     A
C897   C583    1.406   1_655 A
C897   F953    1.360   .     S
C897   C939    1.397   .     A
C898   O1036   1.282   .     A
C898   O1030   1.282   .     A
C899   O1042   1.282   .     A
C899   O1031   1.282   .     A
C900   O1032   1.282   .     A
C900   O1043   1.282   .     A
C901   O1033   1.282   .     A
C901   O1040   1.282   .     A
C902   O1041   1.282   .     A
C902   O1034   1.282   .     A
C903   H965    1.083   .     S
C903   C920    1.386   .     A
C904   C918    1.386   .     A
C904   H966    1.083   .     S
C905   C917    1.386   .     A
C905   H967    1.083   .     S
C906   C916    1.386   .     A
C906   H969    1.083   .     S
C907   C915    1.386   .     A
C907   H970    1.083   .     S
C908   F954    1.360   .     S
C908   C940    1.397   .     A
C909   C914    1.386   .     A
C909   H971    1.083   .     S
C910   H972    1.083   .     S
C910   C913    1.386   .     A
C911   C912    1.386   .     A
C911   H973    1.083   .     S
C912   H974    1.083   .     S
C913   H975    1.083   .     S
C914   H976    1.083   .     S
C915   H977    1.083   .     S
C916   H978    1.083   .     S
C917   H980    1.083   .     S
C918   H981    1.083   .     S
C919   C318    1.406   1_565 A
C919   F955    1.360   .     S
C920   H982    1.083   .     S
C921   C937    1.386   .     A
C921   H983    1.083   .     S
C922   H984    1.083   .     S
C922   C936    1.386   .     A
C923   C935    1.386   .     A
C923   H985    1.083   .     S
C924   C934    1.386   .     A
C924   H986    1.083   .     S
C925   H987    1.083   .     S
C925   C933    1.386   .     A
C926   H988    1.083   .     S
C926   C932    1.386   .     A
C927   H989    1.083   .     S
C927   C931    1.386   .     A
C928   H991    1.083   .     S
C928   C929    1.386   .     A
C929   H992    1.083   .     S
C930   F956    1.360   .     S
C931   H993    1.083   .     S
C932   H994    1.083   .     S
C933   H995    1.083   .     S
C934   H996    1.083   .     S
C935   H997    1.083   .     S
C936   H998    1.083   .     S
C937   H999    1.083   .     S
C939   C572    1.412   1_655 A
O1005  Zn1068  1.949   .     S
O1005  Zn1057  1.949   .     S
O1005  Zn1060  1.949   .     S
O1006  C342    1.281   1_565 A
O1006  Zn1059  1.952   .     S
O1007  Zn1062  1.952   .     S
O1007  C611    1.281   1_655 A
O1008  Zn1061  1.952   .     S
O1009  Zn1071  1.952   .     S
O1010  Zn1070  1.952   .     S
O1011  Zn1065  1.952   .     S
O1012  Zn1057  1.952   .     S
O1013  Zn1067  1.952   .     S
O1014  Zn1066  1.952   .     S
O1015  Zn1069  1.952   .     S
O1016  Zn1065  1.949   .     S
O1016  Zn1069  1.949   .     S
O1016  Zn1063  1.949   .     S
O1017  Zn1068  1.952   .     S
O1018  Zn1060  1.936   .     S
O1019  Zn1059  1.936   .     S
O1020  Zn1062  1.936   .     S
O1021  Zn1061  1.936   .     S
O1022  Zn1064  1.936   .     S
O1023  Zn1063  1.936   .     S
O1024  Zn1058  1.936   .     S
O1025  Zn1072  1.936   .     S
O1026  Zn1059  1.936   .     S
O1027  Zn1058  1.949   .     S
O1027  Zn1066  1.949   .     S
O1027  Zn1070  1.949   .     S
O1028  Zn1060  1.936   .     S
O1029  Zn1072  1.936   .     S
O1030  Zn1058  1.936   .     S
O1031  Zn1063  1.936   .     S
O1032  Zn1064  1.936   .     S
O1033  Zn1061  1.936   .     S
O1034  Zn1062  1.936   .     S
O1035  Zn799   1.936   1_655 S
O1036  Zn1066  1.936   .     S
O1037  Zn533   1.936   1_565 S
O1038  Zn1067  1.949   .     S
O1038  Zn1071  1.949   .     S
O1038  Zn1061  1.949   .     S
O1039  Zn1068  1.936   .     S
O1040  Zn1071  1.936   .     S
O1041  Zn802   1.936   1_655 S
O1042  Zn1065  1.936   .     S
O1043  Zn521   1.936   1_565 S
O1044  Zn798   1.936   1_655 S
O1045  Zn1067  1.936   .     S
O1046  Zn1057  1.936   .     S
O1047  Zn529   1.936   1_565 S
O1048  Zn1070  1.936   .     S
O1049  Zn1064  1.952   .     S
O1049  C341    1.281   1_565 S
O1050  Zn803   1.936   1_655 S
O1051  Zn532   1.936   1_565 S
O1052  Zn1069  1.936   .     S
O1053  Zn1063  1.952   .     S
O1054  Zn1058  1.952   .     S
O1055  Zn1072  1.952   .     S
O1055  C612    1.281   1_655 S
O1056  Zn1060  1.952   .     S
Zn1059 O480    1.949   1_565 S
Zn1062 O759    1.949   1_655 S
Zn1064 O469    1.949   1_565 S
Zn1072 O770    1.949   1_655 S
