data_str_m2_o10_o16_pcu_sym.30
_audit_creation_date              2020-01-03
_audit_creation_method            'Materials Studio'
_symmetry_space_group_name_H-M    'P1'
_symmetry_Int_Tables_number       1
_symmetry_cell_setting            triclinic
loop_
_symmetry_equiv_pos_as_xyz
  x,y,z
_cell_length_a                    22.3577
_cell_length_b                    26.0737
_cell_length_c                    26.8067
_cell_angle_alpha                 94.4102
_cell_angle_beta                  77.5753
_cell_angle_gamma                 103.2848
loop_
_atom_site_label
_atom_site_type_symbol
_atom_site_fract_x
_atom_site_fract_y
_atom_site_fract_z
_atom_site_U_iso_or_equiv
_atom_site_adp_type
_atom_site_occupancy
C1     C     0.18180   0.26674   0.25154   0.00000  Uiso   1.00
C2     C     0.11276   0.16520   0.40325   0.00000  Uiso   1.00
C3     C     0.19029   0.32275   0.25226   0.00000  Uiso   1.00
C4     C     0.13333   0.16605   0.34719   0.00000  Uiso   1.00
C5     C     0.14305   0.01058   0.24776   0.00000  Uiso   1.00
C6     C     0.15152   0.06660   0.24848   0.00000  Uiso   1.00
C7     C     0.20042   0.17035   0.15302   0.00000  Uiso   1.00
C8     C     0.29303   0.22532   0.02719   0.00000  Uiso   1.00
C9     C     0.22054   0.17893   0.09808   0.00000  Uiso   1.00
C10    C     0.05122   0.13902   0.42397   0.00000  Uiso   1.00
C11    C     0.03310   0.12903   0.47574   0.00000  Uiso   1.00
C12    C     0.13933   0.16930   0.48780   0.00000  Uiso   1.00
C13    C     0.07657   0.14291   0.00728   0.00000  Uiso   1.00
C14    C     0.15561   0.18463   0.43612   0.00000  Uiso   1.00
C15    C     0.18631   0.18152   0.01798   0.00000  Uiso   1.00
C16    C     0.24643   0.21280   0.49775   0.00000  Uiso   1.00
C17    C     0.25891   0.23243   0.44888   0.00000  Uiso   1.00
C18    C     0.21395   0.21934   0.41884   0.00000  Uiso   1.00
C19    C     0.17551   0.16346   0.06773   0.00000  Uiso   1.00
C20    C     0.28004   0.20869   0.07731   0.00000  Uiso   1.00
Cu21   Cu    0.10710   0.16105   0.24436   0.00000  Uiso   1.00
Cu22   Cu    0.22623   0.17228   0.25565   0.00000  Uiso   1.00
H23    H     0.31540   0.22101   0.10037   0.00000  Uiso   1.00
H24    H     0.22522   0.23797   0.38236   0.00000  Uiso   1.00
H25    H     0.23576   0.01335   0.25650   0.00000  Uiso   1.00
H26    H     0.02507   0.10280   0.18280   0.00000  Uiso   1.00
H27    H     0.09758   0.31999   0.24352   0.00000  Uiso   1.00
H28    H     0.00323   0.20539   0.29042   0.00000  Uiso   1.00
H29    H     0.30369   0.25816   0.43375   0.00000  Uiso   1.00
H30    H     0.00567   0.24913   0.01186   0.00000  Uiso   1.00
H31    H     0.13173   0.13793   0.08445   0.00000  Uiso   1.00
H32    H     0.01737   0.12479   0.39984   0.00000  Uiso   1.00
H33    H     0.05898   0.13352   0.04692   0.00000  Uiso   1.00
H34    H     0.31867   0.10905   0.49137   0.00000  Uiso   1.00
N35    N     0.31574   0.18074   0.26416   0.00000  Uiso   1.00
N36    N     0.01759   0.15259   0.23584   0.00000  Uiso   1.00
O37    O     0.12797   0.23807   0.24633   0.00000  Uiso   1.00
O38    O     0.22858   0.24755   0.25587   0.00000  Uiso   1.00
O39    O     0.09181   0.15960   0.31840   0.00000  Uiso   1.00
O40    O     0.19242   0.16908   0.32793   0.00000  Uiso   1.00
O41    O     0.10476   0.08578   0.24414   0.00000  Uiso   1.00
O42    O     0.20536   0.09526   0.25367   0.00000  Uiso   1.00
O43    O     0.14092   0.16425   0.17207   0.00000  Uiso   1.00
O44    O     0.24152   0.17373   0.18161   0.00000  Uiso   1.00
O45    O     0.32508   0.12073   0.20096   0.00000  Uiso   1.00
C46    C     0.51514   0.26674   0.25154   0.00000  Uiso   1.00
C47    C     0.44610   0.16520   0.40325   0.00000  Uiso   1.00
C48    C     0.52362   0.32275   0.25226   0.00000  Uiso   1.00
C49    C     0.46666   0.16605   0.34719   0.00000  Uiso   1.00
C50    C     0.47638   0.01058   0.24776   0.00000  Uiso   1.00
C51    C     0.48486   0.06660   0.24848   0.00000  Uiso   1.00
C52    C     0.53375   0.17035   0.15302   0.00000  Uiso   1.00
C53    C     0.62636   0.22532   0.02719   0.00000  Uiso   1.00
C54    C     0.55388   0.17893   0.09808   0.00000  Uiso   1.00
C55    C     0.38455   0.13902   0.42397   0.00000  Uiso   1.00
C56    C     0.36644   0.12903   0.47574   0.00000  Uiso   1.00
C57    C     0.47266   0.16930   0.48780   0.00000  Uiso   1.00
C58    C     0.40990   0.14291   0.00728   0.00000  Uiso   1.00
C59    C     0.48895   0.18463   0.43612   0.00000  Uiso   1.00
C60    C     0.51964   0.18152   0.01798   0.00000  Uiso   1.00
C61    C     0.57977   0.21280   0.49775   0.00000  Uiso   1.00
C62    C     0.59224   0.23243   0.44888   0.00000  Uiso   1.00
C63    C     0.54728   0.21934   0.41884   0.00000  Uiso   1.00
C64    C     0.50884   0.16346   0.06773   0.00000  Uiso   1.00
C65    C     0.61338   0.20869   0.07731   0.00000  Uiso   1.00
Cu66   Cu    0.44043   0.16105   0.24436   0.00000  Uiso   1.00
Cu67   Cu    0.55957   0.17228   0.25565   0.00000  Uiso   1.00
H68    H     0.64873   0.22101   0.10037   0.00000  Uiso   1.00
H69    H     0.55855   0.23797   0.38236   0.00000  Uiso   1.00
H70    H     0.56909   0.01335   0.25650   0.00000  Uiso   1.00
H71    H     0.35840   0.10280   0.18280   0.00000  Uiso   1.00
H72    H     0.43091   0.31999   0.24352   0.00000  Uiso   1.00
H73    H     0.33656   0.20539   0.29042   0.00000  Uiso   1.00
H74    H     0.63702   0.25816   0.43375   0.00000  Uiso   1.00
H75    H     0.33901   0.24913   0.01186   0.00000  Uiso   1.00
H76    H     0.46506   0.13793   0.08445   0.00000  Uiso   1.00
H77    H     0.35070   0.12479   0.39984   0.00000  Uiso   1.00
H78    H     0.39231   0.13352   0.04692   0.00000  Uiso   1.00
H79    H     0.65200   0.10905   0.49137   0.00000  Uiso   1.00
N80    N     0.64908   0.18074   0.26416   0.00000  Uiso   1.00
N81    N     0.35092   0.15259   0.23584   0.00000  Uiso   1.00
O82    O     0.46131   0.23807   0.24633   0.00000  Uiso   1.00
O83    O     0.56191   0.24755   0.25587   0.00000  Uiso   1.00
O84    O     0.42515   0.15960   0.31840   0.00000  Uiso   1.00
O85    O     0.52575   0.16908   0.32793   0.00000  Uiso   1.00
O86    O     0.43809   0.08578   0.24414   0.00000  Uiso   1.00
O87    O     0.53869   0.09526   0.25367   0.00000  Uiso   1.00
O88    O     0.47425   0.16425   0.17207   0.00000  Uiso   1.00
O89    O     0.57485   0.17373   0.18161   0.00000  Uiso   1.00
O90    O     0.65841   0.12073   0.20096   0.00000  Uiso   1.00
C91    C     0.84847   0.26674   0.25154   0.00000  Uiso   1.00
C92    C     0.77943   0.16520   0.40325   0.00000  Uiso   1.00
C93    C     0.85695   0.32275   0.25226   0.00000  Uiso   1.00
C94    C     0.80000   0.16605   0.34719   0.00000  Uiso   1.00
C95    C     0.80972   0.01058   0.24776   0.00000  Uiso   1.00
C96    C     0.81819   0.06660   0.24848   0.00000  Uiso   1.00
C97    C     0.86708   0.17035   0.15302   0.00000  Uiso   1.00
C98    C     0.95970   0.22532   0.02719   0.00000  Uiso   1.00
C99    C     0.88721   0.17893   0.09808   0.00000  Uiso   1.00
C100   C     0.71788   0.13902   0.42397   0.00000  Uiso   1.00
C101   C     0.69977   0.12903   0.47574   0.00000  Uiso   1.00
C102   C     0.80600   0.16930   0.48780   0.00000  Uiso   1.00
C103   C     0.74324   0.14291   0.00728   0.00000  Uiso   1.00
C104   C     0.82228   0.18463   0.43612   0.00000  Uiso   1.00
C105   C     0.85298   0.18152   0.01798   0.00000  Uiso   1.00
C106   C     0.91310   0.21280   0.49775   0.00000  Uiso   1.00
C107   C     0.92558   0.23243   0.44888   0.00000  Uiso   1.00
C108   C     0.88062   0.21934   0.41884   0.00000  Uiso   1.00
C109   C     0.84217   0.16346   0.06773   0.00000  Uiso   1.00
C110   C     0.94671   0.20869   0.07731   0.00000  Uiso   1.00
Cu111  Cu    0.77377   0.16105   0.24436   0.00000  Uiso   1.00
Cu112  Cu    0.89290   0.17228   0.25565   0.00000  Uiso   1.00
H113   H     0.98207   0.22101   0.10037   0.00000  Uiso   1.00
H114   H     0.89189   0.23797   0.38236   0.00000  Uiso   1.00
H115   H     0.90242   0.01335   0.25650   0.00000  Uiso   1.00
H116   H     0.69174   0.10280   0.18280   0.00000  Uiso   1.00
H117   H     0.76425   0.31999   0.24352   0.00000  Uiso   1.00
H118   H     0.66989   0.20539   0.29042   0.00000  Uiso   1.00
H119   H     0.97036   0.25816   0.43375   0.00000  Uiso   1.00
H120   H     0.67234   0.24913   0.01186   0.00000  Uiso   1.00
H121   H     0.79840   0.13793   0.08445   0.00000  Uiso   1.00
H122   H     0.68403   0.12479   0.39984   0.00000  Uiso   1.00
H123   H     0.72565   0.13352   0.04692   0.00000  Uiso   1.00
H124   H     0.98534   0.10905   0.49137   0.00000  Uiso   1.00
N125   N     0.98241   0.18074   0.26416   0.00000  Uiso   1.00
N126   N     0.68426   0.15259   0.23584   0.00000  Uiso   1.00
O127   O     0.79464   0.23807   0.24633   0.00000  Uiso   1.00
O128   O     0.89524   0.24755   0.25587   0.00000  Uiso   1.00
O129   O     0.75848   0.15960   0.31840   0.00000  Uiso   1.00
O130   O     0.85908   0.16908   0.32793   0.00000  Uiso   1.00
O131   O     0.77142   0.08578   0.24414   0.00000  Uiso   1.00
O132   O     0.87203   0.09526   0.25367   0.00000  Uiso   1.00
O133   O     0.80758   0.16425   0.17207   0.00000  Uiso   1.00
O134   O     0.90819   0.17373   0.18161   0.00000  Uiso   1.00
O135   O     0.99174   0.12073   0.20096   0.00000  Uiso   1.00
C136   C     0.18180   0.60007   0.25154   0.00000  Uiso   1.00
C137   C     0.11276   0.49854   0.40325   0.00000  Uiso   1.00
C138   C     0.19029   0.65609   0.25226   0.00000  Uiso   1.00
C139   C     0.13333   0.49939   0.34719   0.00000  Uiso   1.00
C140   C     0.14305   0.34392   0.24776   0.00000  Uiso   1.00
C141   C     0.15152   0.39993   0.24848   0.00000  Uiso   1.00
C142   C     0.20042   0.50369   0.15302   0.00000  Uiso   1.00
C143   C     0.29303   0.55865   0.02719   0.00000  Uiso   1.00
C144   C     0.22054   0.51227   0.09808   0.00000  Uiso   1.00
C145   C     0.05122   0.47235   0.42397   0.00000  Uiso   1.00
C146   C     0.03310   0.46236   0.47574   0.00000  Uiso   1.00
C147   C     0.13933   0.50264   0.48780   0.00000  Uiso   1.00
C148   C     0.07657   0.47624   0.00728   0.00000  Uiso   1.00
C149   C     0.15561   0.51796   0.43612   0.00000  Uiso   1.00
C150   C     0.18631   0.51485   0.01798   0.00000  Uiso   1.00
C151   C     0.24643   0.54614   0.49775   0.00000  Uiso   1.00
C152   C     0.25891   0.56577   0.44888   0.00000  Uiso   1.00
C153   C     0.21395   0.55267   0.41884   0.00000  Uiso   1.00
C154   C     0.17551   0.49679   0.06773   0.00000  Uiso   1.00
C155   C     0.28004   0.54203   0.07731   0.00000  Uiso   1.00
Cu156  Cu    0.10710   0.49439   0.24436   0.00000  Uiso   1.00
Cu157  Cu    0.22623   0.50561   0.25565   0.00000  Uiso   1.00
H158   H     0.31540   0.55434   0.10037   0.00000  Uiso   1.00
H159   H     0.22522   0.57131   0.38236   0.00000  Uiso   1.00
H160   H     0.23576   0.34668   0.25650   0.00000  Uiso   1.00
H161   H     0.02507   0.43614   0.18280   0.00000  Uiso   1.00
H162   H     0.09758   0.65332   0.24352   0.00000  Uiso   1.00
H163   H     0.00323   0.53873   0.29042   0.00000  Uiso   1.00
H164   H     0.30369   0.59150   0.43375   0.00000  Uiso   1.00
H165   H     0.00567   0.58246   0.01186   0.00000  Uiso   1.00
H166   H     0.13173   0.47126   0.08445   0.00000  Uiso   1.00
H167   H     0.01737   0.45812   0.39984   0.00000  Uiso   1.00
H168   H     0.05898   0.46686   0.04692   0.00000  Uiso   1.00
H169   H     0.31867   0.44239   0.49137   0.00000  Uiso   1.00
N170   N     0.31574   0.51407   0.26416   0.00000  Uiso   1.00
N171   N     0.01759   0.48593   0.23584   0.00000  Uiso   1.00
O172   O     0.12797   0.57141   0.24633   0.00000  Uiso   1.00
O173   O     0.22858   0.58089   0.25587   0.00000  Uiso   1.00
O174   O     0.09181   0.49293   0.31840   0.00000  Uiso   1.00
O175   O     0.19242   0.50241   0.32793   0.00000  Uiso   1.00
O176   O     0.10476   0.41911   0.24414   0.00000  Uiso   1.00
O177   O     0.20536   0.42859   0.25367   0.00000  Uiso   1.00
O178   O     0.14092   0.49759   0.17207   0.00000  Uiso   1.00
O179   O     0.24152   0.50707   0.18161   0.00000  Uiso   1.00
O180   O     0.32508   0.45406   0.20096   0.00000  Uiso   1.00
C181   C     0.51514   0.60007   0.25154   0.00000  Uiso   1.00
C182   C     0.44610   0.49854   0.40325   0.00000  Uiso   1.00
C183   C     0.52362   0.65609   0.25226   0.00000  Uiso   1.00
C184   C     0.46666   0.49939   0.34719   0.00000  Uiso   1.00
C185   C     0.47638   0.34392   0.24776   0.00000  Uiso   1.00
C186   C     0.48486   0.39993   0.24848   0.00000  Uiso   1.00
C187   C     0.53375   0.50369   0.15302   0.00000  Uiso   1.00
C188   C     0.62636   0.55865   0.02719   0.00000  Uiso   1.00
C189   C     0.55388   0.51227   0.09808   0.00000  Uiso   1.00
C190   C     0.38455   0.47235   0.42397   0.00000  Uiso   1.00
C191   C     0.36644   0.46236   0.47574   0.00000  Uiso   1.00
C192   C     0.47266   0.50264   0.48780   0.00000  Uiso   1.00
C193   C     0.40990   0.47624   0.00728   0.00000  Uiso   1.00
C194   C     0.48895   0.51796   0.43612   0.00000  Uiso   1.00
C195   C     0.51964   0.51485   0.01798   0.00000  Uiso   1.00
C196   C     0.57977   0.54614   0.49775   0.00000  Uiso   1.00
C197   C     0.59224   0.56577   0.44888   0.00000  Uiso   1.00
C198   C     0.54728   0.55267   0.41884   0.00000  Uiso   1.00
C199   C     0.50884   0.49679   0.06773   0.00000  Uiso   1.00
C200   C     0.61338   0.54203   0.07731   0.00000  Uiso   1.00
Cu201  Cu    0.44043   0.49439   0.24436   0.00000  Uiso   1.00
Cu202  Cu    0.55957   0.50561   0.25565   0.00000  Uiso   1.00
H203   H     0.64873   0.55434   0.10037   0.00000  Uiso   1.00
H204   H     0.55855   0.57131   0.38236   0.00000  Uiso   1.00
H205   H     0.56909   0.34668   0.25650   0.00000  Uiso   1.00
H206   H     0.35840   0.43614   0.18280   0.00000  Uiso   1.00
H207   H     0.43091   0.65332   0.24352   0.00000  Uiso   1.00
H208   H     0.33656   0.53873   0.29042   0.00000  Uiso   1.00
H209   H     0.63702   0.59150   0.43375   0.00000  Uiso   1.00
H210   H     0.33901   0.58246   0.01186   0.00000  Uiso   1.00
H211   H     0.46506   0.47126   0.08445   0.00000  Uiso   1.00
H212   H     0.35070   0.45812   0.39984   0.00000  Uiso   1.00
H213   H     0.39231   0.46686   0.04692   0.00000  Uiso   1.00
H214   H     0.65200   0.44239   0.49137   0.00000  Uiso   1.00
N215   N     0.64908   0.51407   0.26416   0.00000  Uiso   1.00
N216   N     0.35092   0.48593   0.23584   0.00000  Uiso   1.00
O217   O     0.46131   0.57141   0.24633   0.00000  Uiso   1.00
O218   O     0.56191   0.58089   0.25587   0.00000  Uiso   1.00
O219   O     0.42515   0.49293   0.31840   0.00000  Uiso   1.00
O220   O     0.52575   0.50241   0.32793   0.00000  Uiso   1.00
O221   O     0.43809   0.41911   0.24414   0.00000  Uiso   1.00
O222   O     0.53869   0.42859   0.25367   0.00000  Uiso   1.00
O223   O     0.47425   0.49759   0.17207   0.00000  Uiso   1.00
O224   O     0.57485   0.50707   0.18161   0.00000  Uiso   1.00
O225   O     0.65841   0.45406   0.20096   0.00000  Uiso   1.00
C226   C     0.84847   0.60007   0.25154   0.00000  Uiso   1.00
C227   C     0.77943   0.49854   0.40325   0.00000  Uiso   1.00
C228   C     0.85695   0.65609   0.25226   0.00000  Uiso   1.00
C229   C     0.80000   0.49939   0.34719   0.00000  Uiso   1.00
C230   C     0.80972   0.34392   0.24776   0.00000  Uiso   1.00
C231   C     0.81819   0.39993   0.24848   0.00000  Uiso   1.00
C232   C     0.86708   0.50369   0.15302   0.00000  Uiso   1.00
C233   C     0.95970   0.55865   0.02719   0.00000  Uiso   1.00
C234   C     0.88721   0.51227   0.09808   0.00000  Uiso   1.00
C235   C     0.71788   0.47235   0.42397   0.00000  Uiso   1.00
C236   C     0.69977   0.46236   0.47574   0.00000  Uiso   1.00
C237   C     0.80600   0.50264   0.48780   0.00000  Uiso   1.00
C238   C     0.74324   0.47624   0.00728   0.00000  Uiso   1.00
C239   C     0.82228   0.51796   0.43612   0.00000  Uiso   1.00
C240   C     0.85298   0.51485   0.01798   0.00000  Uiso   1.00
C241   C     0.91310   0.54614   0.49775   0.00000  Uiso   1.00
C242   C     0.92558   0.56577   0.44888   0.00000  Uiso   1.00
C243   C     0.88062   0.55267   0.41884   0.00000  Uiso   1.00
C244   C     0.84217   0.49679   0.06773   0.00000  Uiso   1.00
C245   C     0.94671   0.54203   0.07731   0.00000  Uiso   1.00
Cu246  Cu    0.77377   0.49439   0.24436   0.00000  Uiso   1.00
Cu247  Cu    0.89290   0.50561   0.25565   0.00000  Uiso   1.00
H248   H     0.98207   0.55434   0.10037   0.00000  Uiso   1.00
H249   H     0.89189   0.57131   0.38236   0.00000  Uiso   1.00
H250   H     0.90242   0.34668   0.25650   0.00000  Uiso   1.00
H251   H     0.69174   0.43614   0.18280   0.00000  Uiso   1.00
H252   H     0.76425   0.65332   0.24352   0.00000  Uiso   1.00
H253   H     0.66989   0.53873   0.29042   0.00000  Uiso   1.00
H254   H     0.97036   0.59150   0.43375   0.00000  Uiso   1.00
H255   H     0.67234   0.58246   0.01186   0.00000  Uiso   1.00
H256   H     0.79840   0.47126   0.08445   0.00000  Uiso   1.00
H257   H     0.68403   0.45812   0.39984   0.00000  Uiso   1.00
H258   H     0.72565   0.46686   0.04692   0.00000  Uiso   1.00
H259   H     0.98534   0.44239   0.49137   0.00000  Uiso   1.00
N260   N     0.98241   0.51407   0.26416   0.00000  Uiso   1.00
N261   N     0.68426   0.48593   0.23584   0.00000  Uiso   1.00
O262   O     0.79464   0.57141   0.24633   0.00000  Uiso   1.00
O263   O     0.89524   0.58089   0.25587   0.00000  Uiso   1.00
O264   O     0.75848   0.49293   0.31840   0.00000  Uiso   1.00
O265   O     0.85908   0.50241   0.32793   0.00000  Uiso   1.00
O266   O     0.77142   0.41911   0.24414   0.00000  Uiso   1.00
O267   O     0.87203   0.42859   0.25367   0.00000  Uiso   1.00
O268   O     0.80758   0.49759   0.17207   0.00000  Uiso   1.00
O269   O     0.90819   0.50707   0.18161   0.00000  Uiso   1.00
O270   O     0.99174   0.45406   0.20096   0.00000  Uiso   1.00
C271   C     0.18180   0.93340   0.25154   0.00000  Uiso   1.00
C272   C     0.11276   0.83187   0.40325   0.00000  Uiso   1.00
C273   C     0.19029   0.98942   0.25226   0.00000  Uiso   1.00
C274   C     0.13333   0.83272   0.34719   0.00000  Uiso   1.00
C275   C     0.14305   0.67725   0.24776   0.00000  Uiso   1.00
C276   C     0.15152   0.73327   0.24848   0.00000  Uiso   1.00
C277   C     0.20042   0.83702   0.15302   0.00000  Uiso   1.00
C278   C     0.29303   0.89199   0.02719   0.00000  Uiso   1.00
C279   C     0.22054   0.84560   0.09808   0.00000  Uiso   1.00
C280   C     0.05122   0.80569   0.42397   0.00000  Uiso   1.00
C281   C     0.03310   0.79570   0.47574   0.00000  Uiso   1.00
C282   C     0.13933   0.83597   0.48780   0.00000  Uiso   1.00
C283   C     0.07657   0.80958   0.00728   0.00000  Uiso   1.00
C284   C     0.15561   0.85130   0.43612   0.00000  Uiso   1.00
C285   C     0.18631   0.84818   0.01798   0.00000  Uiso   1.00
C286   C     0.24643   0.87947   0.49775   0.00000  Uiso   1.00
C287   C     0.25891   0.89910   0.44888   0.00000  Uiso   1.00
C288   C     0.21395   0.88600   0.41884   0.00000  Uiso   1.00
C289   C     0.17551   0.83012   0.06773   0.00000  Uiso   1.00
C290   C     0.28004   0.87536   0.07731   0.00000  Uiso   1.00
Cu291  Cu    0.10710   0.82772   0.24436   0.00000  Uiso   1.00
Cu292  Cu    0.22623   0.83895   0.25565   0.00000  Uiso   1.00
H293   H     0.31540   0.88768   0.10037   0.00000  Uiso   1.00
H294   H     0.22522   0.90464   0.38236   0.00000  Uiso   1.00
H295   H     0.23576   0.68001   0.25650   0.00000  Uiso   1.00
H296   H     0.02507   0.76947   0.18280   0.00000  Uiso   1.00
H297   H     0.09758   0.98665   0.24352   0.00000  Uiso   1.00
H298   H     0.00323   0.87206   0.29042   0.00000  Uiso   1.00
H299   H     0.30369   0.92483   0.43375   0.00000  Uiso   1.00
H300   H     0.00567   0.91579   0.01186   0.00000  Uiso   1.00
H301   H     0.13173   0.80460   0.08445   0.00000  Uiso   1.00
H302   H     0.01737   0.79146   0.39984   0.00000  Uiso   1.00
H303   H     0.05898   0.80019   0.04692   0.00000  Uiso   1.00
H304   H     0.31867   0.77572   0.49137   0.00000  Uiso   1.00
N305   N     0.31574   0.84741   0.26416   0.00000  Uiso   1.00
N306   N     0.01759   0.81926   0.23584   0.00000  Uiso   1.00
O307   O     0.12797   0.90474   0.24633   0.00000  Uiso   1.00
O308   O     0.22858   0.91422   0.25587   0.00000  Uiso   1.00
O309   O     0.09181   0.82627   0.31840   0.00000  Uiso   1.00
O310   O     0.19242   0.83575   0.32793   0.00000  Uiso   1.00
O311   O     0.10476   0.75245   0.24414   0.00000  Uiso   1.00
O312   O     0.20536   0.76193   0.25367   0.00000  Uiso   1.00
O313   O     0.14092   0.83092   0.17207   0.00000  Uiso   1.00
O314   O     0.24152   0.84040   0.18161   0.00000  Uiso   1.00
O315   O     0.32508   0.78740   0.20096   0.00000  Uiso   1.00
C316   C     0.51514   0.93340   0.25154   0.00000  Uiso   1.00
C317   C     0.44610   0.83187   0.40325   0.00000  Uiso   1.00
C318   C     0.52362   0.98942   0.25226   0.00000  Uiso   1.00
C319   C     0.46666   0.83272   0.34719   0.00000  Uiso   1.00
C320   C     0.47638   0.67725   0.24776   0.00000  Uiso   1.00
C321   C     0.48486   0.73327   0.24848   0.00000  Uiso   1.00
C322   C     0.53375   0.83702   0.15302   0.00000  Uiso   1.00
C323   C     0.62636   0.89199   0.02719   0.00000  Uiso   1.00
C324   C     0.55388   0.84560   0.09808   0.00000  Uiso   1.00
C325   C     0.38455   0.80569   0.42397   0.00000  Uiso   1.00
C326   C     0.36644   0.79570   0.47574   0.00000  Uiso   1.00
C327   C     0.47266   0.83597   0.48780   0.00000  Uiso   1.00
C328   C     0.40990   0.80958   0.00728   0.00000  Uiso   1.00
C329   C     0.48895   0.85130   0.43612   0.00000  Uiso   1.00
C330   C     0.51964   0.84818   0.01798   0.00000  Uiso   1.00
C331   C     0.57977   0.87947   0.49775   0.00000  Uiso   1.00
C332   C     0.59224   0.89910   0.44888   0.00000  Uiso   1.00
C333   C     0.54728   0.88600   0.41884   0.00000  Uiso   1.00
C334   C     0.50884   0.83012   0.06773   0.00000  Uiso   1.00
C335   C     0.61338   0.87536   0.07731   0.00000  Uiso   1.00
Cu336  Cu    0.44043   0.82772   0.24436   0.00000  Uiso   1.00
Cu337  Cu    0.55957   0.83895   0.25565   0.00000  Uiso   1.00
H338   H     0.64873   0.88768   0.10037   0.00000  Uiso   1.00
H339   H     0.55855   0.90464   0.38236   0.00000  Uiso   1.00
H340   H     0.56909   0.68001   0.25650   0.00000  Uiso   1.00
H341   H     0.35840   0.76947   0.18280   0.00000  Uiso   1.00
H342   H     0.43091   0.98665   0.24352   0.00000  Uiso   1.00
H343   H     0.33656   0.87206   0.29042   0.00000  Uiso   1.00
H344   H     0.63702   0.92483   0.43375   0.00000  Uiso   1.00
H345   H     0.33901   0.91579   0.01186   0.00000  Uiso   1.00
H346   H     0.46506   0.80460   0.08445   0.00000  Uiso   1.00
H347   H     0.35070   0.79146   0.39984   0.00000  Uiso   1.00
H348   H     0.39231   0.80019   0.04692   0.00000  Uiso   1.00
H349   H     0.65200   0.77572   0.49137   0.00000  Uiso   1.00
N350   N     0.64908   0.84741   0.26416   0.00000  Uiso   1.00
N351   N     0.35092   0.81926   0.23584   0.00000  Uiso   1.00
O352   O     0.46131   0.90474   0.24633   0.00000  Uiso   1.00
O353   O     0.56191   0.91422   0.25587   0.00000  Uiso   1.00
O354   O     0.42515   0.82627   0.31840   0.00000  Uiso   1.00
O355   O     0.52575   0.83575   0.32793   0.00000  Uiso   1.00
O356   O     0.43809   0.75245   0.24414   0.00000  Uiso   1.00
O357   O     0.53869   0.76193   0.25367   0.00000  Uiso   1.00
O358   O     0.47425   0.83092   0.17207   0.00000  Uiso   1.00
O359   O     0.57485   0.84040   0.18161   0.00000  Uiso   1.00
O360   O     0.65841   0.78740   0.20096   0.00000  Uiso   1.00
C361   C     0.84847   0.93340   0.25154   0.00000  Uiso   1.00
C362   C     0.77943   0.83187   0.40325   0.00000  Uiso   1.00
C363   C     0.85695   0.98942   0.25226   0.00000  Uiso   1.00
C364   C     0.80000   0.83272   0.34719   0.00000  Uiso   1.00
C365   C     0.80972   0.67725   0.24776   0.00000  Uiso   1.00
C366   C     0.81819   0.73327   0.24848   0.00000  Uiso   1.00
C367   C     0.86708   0.83702   0.15302   0.00000  Uiso   1.00
C368   C     0.95970   0.89199   0.02719   0.00000  Uiso   1.00
C369   C     0.88721   0.84560   0.09808   0.00000  Uiso   1.00
C370   C     0.71788   0.80569   0.42397   0.00000  Uiso   1.00
C371   C     0.69977   0.79570   0.47574   0.00000  Uiso   1.00
C372   C     0.80600   0.83597   0.48780   0.00000  Uiso   1.00
C373   C     0.74324   0.80958   0.00728   0.00000  Uiso   1.00
C374   C     0.82228   0.85130   0.43612   0.00000  Uiso   1.00
C375   C     0.85298   0.84818   0.01798   0.00000  Uiso   1.00
C376   C     0.91310   0.87947   0.49775   0.00000  Uiso   1.00
C377   C     0.92558   0.89910   0.44888   0.00000  Uiso   1.00
C378   C     0.88062   0.88600   0.41884   0.00000  Uiso   1.00
C379   C     0.84217   0.83012   0.06773   0.00000  Uiso   1.00
C380   C     0.94671   0.87536   0.07731   0.00000  Uiso   1.00
Cu381  Cu    0.77377   0.82772   0.24436   0.00000  Uiso   1.00
Cu382  Cu    0.89290   0.83895   0.25565   0.00000  Uiso   1.00
H383   H     0.98207   0.88768   0.10037   0.00000  Uiso   1.00
H384   H     0.89189   0.90464   0.38236   0.00000  Uiso   1.00
H385   H     0.90242   0.68001   0.25650   0.00000  Uiso   1.00
H386   H     0.69174   0.76947   0.18280   0.00000  Uiso   1.00
H387   H     0.76425   0.98665   0.24352   0.00000  Uiso   1.00
H388   H     0.66989   0.87206   0.29042   0.00000  Uiso   1.00
H389   H     0.97036   0.92483   0.43375   0.00000  Uiso   1.00
H390   H     0.67234   0.91579   0.01186   0.00000  Uiso   1.00
H391   H     0.79840   0.80460   0.08445   0.00000  Uiso   1.00
H392   H     0.68403   0.79146   0.39984   0.00000  Uiso   1.00
H393   H     0.72565   0.80019   0.04692   0.00000  Uiso   1.00
H394   H     0.98534   0.77572   0.49137   0.00000  Uiso   1.00
N395   N     0.98241   0.84741   0.26416   0.00000  Uiso   1.00
N396   N     0.68426   0.81926   0.23584   0.00000  Uiso   1.00
O397   O     0.79464   0.90474   0.24633   0.00000  Uiso   1.00
O398   O     0.89524   0.91422   0.25587   0.00000  Uiso   1.00
O399   O     0.75848   0.82627   0.31840   0.00000  Uiso   1.00
O400   O     0.85908   0.83575   0.32793   0.00000  Uiso   1.00
O401   O     0.77142   0.75245   0.24414   0.00000  Uiso   1.00
O402   O     0.87203   0.76193   0.25367   0.00000  Uiso   1.00
O403   O     0.80758   0.83092   0.17207   0.00000  Uiso   1.00
O404   O     0.90819   0.84040   0.18161   0.00000  Uiso   1.00
O405   O     0.99174   0.78740   0.20096   0.00000  Uiso   1.00
C406   C     0.18180   0.26674   0.75154   0.00000  Uiso   1.00
C407   C     0.11276   0.16520   0.90325   0.00000  Uiso   1.00
C408   C     0.19029   0.32275   0.75226   0.00000  Uiso   1.00
C409   C     0.13333   0.16605   0.84719   0.00000  Uiso   1.00
C410   C     0.14305   0.01058   0.74776   0.00000  Uiso   1.00
C411   C     0.15152   0.06660   0.74848   0.00000  Uiso   1.00
C412   C     0.20042   0.17035   0.65302   0.00000  Uiso   1.00
C413   C     0.29303   0.22532   0.52719   0.00000  Uiso   1.00
C414   C     0.22054   0.17893   0.59808   0.00000  Uiso   1.00
C415   C     0.05122   0.13902   0.92397   0.00000  Uiso   1.00
C416   C     0.03310   0.12903   0.97574   0.00000  Uiso   1.00
C417   C     0.13933   0.16930   0.98780   0.00000  Uiso   1.00
C418   C     0.07657   0.14291   0.50728   0.00000  Uiso   1.00
C419   C     0.15561   0.18463   0.93612   0.00000  Uiso   1.00
C420   C     0.18631   0.18152   0.51798   0.00000  Uiso   1.00
C421   C     0.24643   0.21280   0.99775   0.00000  Uiso   1.00
C422   C     0.25891   0.23243   0.94888   0.00000  Uiso   1.00
C423   C     0.21395   0.21934   0.91884   0.00000  Uiso   1.00
C424   C     0.17551   0.16346   0.56773   0.00000  Uiso   1.00
C425   C     0.28004   0.20869   0.57731   0.00000  Uiso   1.00
Cu426  Cu    0.10710   0.16105   0.74436   0.00000  Uiso   1.00
Cu427  Cu    0.22623   0.17228   0.75565   0.00000  Uiso   1.00
H428   H     0.31540   0.22101   0.60037   0.00000  Uiso   1.00
H429   H     0.22522   0.23797   0.88236   0.00000  Uiso   1.00
H430   H     0.23576   0.01335   0.75650   0.00000  Uiso   1.00
H431   H     0.02507   0.10280   0.68280   0.00000  Uiso   1.00
H432   H     0.09758   0.31999   0.74352   0.00000  Uiso   1.00
H433   H     0.00323   0.20539   0.79042   0.00000  Uiso   1.00
H434   H     0.30369   0.25816   0.93375   0.00000  Uiso   1.00
H435   H     0.00567   0.24913   0.51186   0.00000  Uiso   1.00
H436   H     0.13173   0.13793   0.58445   0.00000  Uiso   1.00
H437   H     0.01737   0.12479   0.89984   0.00000  Uiso   1.00
H438   H     0.05898   0.13352   0.54692   0.00000  Uiso   1.00
H439   H     0.31867   0.10905   0.99137   0.00000  Uiso   1.00
N440   N     0.31574   0.18074   0.76416   0.00000  Uiso   1.00
N441   N     0.01759   0.15259   0.73584   0.00000  Uiso   1.00
O442   O     0.12797   0.23807   0.74633   0.00000  Uiso   1.00
O443   O     0.22858   0.24755   0.75587   0.00000  Uiso   1.00
O444   O     0.09181   0.15960   0.81840   0.00000  Uiso   1.00
O445   O     0.19242   0.16908   0.82793   0.00000  Uiso   1.00
O446   O     0.10476   0.08578   0.74414   0.00000  Uiso   1.00
O447   O     0.20536   0.09526   0.75367   0.00000  Uiso   1.00
O448   O     0.14092   0.16425   0.67207   0.00000  Uiso   1.00
O449   O     0.24152   0.17373   0.68161   0.00000  Uiso   1.00
O450   O     0.32508   0.12073   0.70096   0.00000  Uiso   1.00
C451   C     0.51514   0.26674   0.75154   0.00000  Uiso   1.00
C452   C     0.44610   0.16520   0.90325   0.00000  Uiso   1.00
C453   C     0.52362   0.32275   0.75226   0.00000  Uiso   1.00
C454   C     0.46666   0.16605   0.84719   0.00000  Uiso   1.00
C455   C     0.47638   0.01058   0.74776   0.00000  Uiso   1.00
C456   C     0.48486   0.06660   0.74848   0.00000  Uiso   1.00
C457   C     0.53375   0.17035   0.65302   0.00000  Uiso   1.00
C458   C     0.62636   0.22532   0.52719   0.00000  Uiso   1.00
C459   C     0.55388   0.17893   0.59808   0.00000  Uiso   1.00
C460   C     0.38455   0.13902   0.92397   0.00000  Uiso   1.00
C461   C     0.36644   0.12903   0.97574   0.00000  Uiso   1.00
C462   C     0.47266   0.16930   0.98780   0.00000  Uiso   1.00
C463   C     0.40990   0.14291   0.50728   0.00000  Uiso   1.00
C464   C     0.48895   0.18463   0.93612   0.00000  Uiso   1.00
C465   C     0.51964   0.18152   0.51798   0.00000  Uiso   1.00
C466   C     0.57977   0.21280   0.99775   0.00000  Uiso   1.00
C467   C     0.59224   0.23243   0.94888   0.00000  Uiso   1.00
C468   C     0.54728   0.21934   0.91884   0.00000  Uiso   1.00
C469   C     0.50884   0.16346   0.56773   0.00000  Uiso   1.00
C470   C     0.61338   0.20869   0.57731   0.00000  Uiso   1.00
Cu471  Cu    0.44043   0.16105   0.74436   0.00000  Uiso   1.00
Cu472  Cu    0.55957   0.17228   0.75565   0.00000  Uiso   1.00
H473   H     0.64873   0.22101   0.60037   0.00000  Uiso   1.00
H474   H     0.55855   0.23797   0.88236   0.00000  Uiso   1.00
H475   H     0.56909   0.01335   0.75650   0.00000  Uiso   1.00
H476   H     0.35840   0.10280   0.68280   0.00000  Uiso   1.00
H477   H     0.43091   0.31999   0.74352   0.00000  Uiso   1.00
H478   H     0.33656   0.20539   0.79042   0.00000  Uiso   1.00
H479   H     0.63702   0.25816   0.93375   0.00000  Uiso   1.00
H480   H     0.33901   0.24913   0.51186   0.00000  Uiso   1.00
H481   H     0.46506   0.13793   0.58445   0.00000  Uiso   1.00
H482   H     0.35070   0.12479   0.89984   0.00000  Uiso   1.00
H483   H     0.39231   0.13352   0.54692   0.00000  Uiso   1.00
H484   H     0.65200   0.10905   0.99137   0.00000  Uiso   1.00
N485   N     0.64908   0.18074   0.76416   0.00000  Uiso   1.00
N486   N     0.35092   0.15259   0.73584   0.00000  Uiso   1.00
O487   O     0.46131   0.23807   0.74633   0.00000  Uiso   1.00
O488   O     0.56191   0.24755   0.75587   0.00000  Uiso   1.00
O489   O     0.42515   0.15960   0.81840   0.00000  Uiso   1.00
O490   O     0.52575   0.16908   0.82793   0.00000  Uiso   1.00
O491   O     0.43809   0.08578   0.74414   0.00000  Uiso   1.00
O492   O     0.53869   0.09526   0.75367   0.00000  Uiso   1.00
O493   O     0.47425   0.16425   0.67207   0.00000  Uiso   1.00
O494   O     0.57485   0.17373   0.68161   0.00000  Uiso   1.00
O495   O     0.65841   0.12073   0.70096   0.00000  Uiso   1.00
C496   C     0.84847   0.26674   0.75154   0.00000  Uiso   1.00
C497   C     0.77943   0.16520   0.90325   0.00000  Uiso   1.00
C498   C     0.85695   0.32275   0.75226   0.00000  Uiso   1.00
C499   C     0.80000   0.16605   0.84719   0.00000  Uiso   1.00
C500   C     0.80972   0.01058   0.74776   0.00000  Uiso   1.00
C501   C     0.81819   0.06660   0.74848   0.00000  Uiso   1.00
C502   C     0.86708   0.17035   0.65302   0.00000  Uiso   1.00
C503   C     0.95970   0.22532   0.52719   0.00000  Uiso   1.00
C504   C     0.88721   0.17893   0.59808   0.00000  Uiso   1.00
C505   C     0.71788   0.13902   0.92397   0.00000  Uiso   1.00
C506   C     0.69977   0.12903   0.97574   0.00000  Uiso   1.00
C507   C     0.80600   0.16930   0.98780   0.00000  Uiso   1.00
C508   C     0.74324   0.14291   0.50728   0.00000  Uiso   1.00
C509   C     0.82228   0.18463   0.93612   0.00000  Uiso   1.00
C510   C     0.85298   0.18152   0.51798   0.00000  Uiso   1.00
C511   C     0.91310   0.21280   0.99775   0.00000  Uiso   1.00
C512   C     0.92558   0.23243   0.94888   0.00000  Uiso   1.00
C513   C     0.88062   0.21934   0.91884   0.00000  Uiso   1.00
C514   C     0.84217   0.16346   0.56773   0.00000  Uiso   1.00
C515   C     0.94671   0.20869   0.57731   0.00000  Uiso   1.00
Cu516  Cu    0.77377   0.16105   0.74436   0.00000  Uiso   1.00
Cu517  Cu    0.89290   0.17228   0.75565   0.00000  Uiso   1.00
H518   H     0.98207   0.22101   0.60037   0.00000  Uiso   1.00
H519   H     0.89189   0.23797   0.88236   0.00000  Uiso   1.00
H520   H     0.90242   0.01335   0.75650   0.00000  Uiso   1.00
H521   H     0.69174   0.10280   0.68280   0.00000  Uiso   1.00
H522   H     0.76425   0.31999   0.74352   0.00000  Uiso   1.00
H523   H     0.66989   0.20539   0.79042   0.00000  Uiso   1.00
H524   H     0.97036   0.25816   0.93375   0.00000  Uiso   1.00
H525   H     0.67234   0.24913   0.51186   0.00000  Uiso   1.00
H526   H     0.79840   0.13793   0.58445   0.00000  Uiso   1.00
H527   H     0.68403   0.12479   0.89984   0.00000  Uiso   1.00
H528   H     0.72565   0.13352   0.54692   0.00000  Uiso   1.00
H529   H     0.98534   0.10905   0.99137   0.00000  Uiso   1.00
N530   N     0.98241   0.18074   0.76416   0.00000  Uiso   1.00
N531   N     0.68426   0.15259   0.73584   0.00000  Uiso   1.00
O532   O     0.79464   0.23807   0.74633   0.00000  Uiso   1.00
O533   O     0.89524   0.24755   0.75587   0.00000  Uiso   1.00
O534   O     0.75848   0.15960   0.81840   0.00000  Uiso   1.00
O535   O     0.85908   0.16908   0.82793   0.00000  Uiso   1.00
O536   O     0.77142   0.08578   0.74414   0.00000  Uiso   1.00
O537   O     0.87203   0.09526   0.75367   0.00000  Uiso   1.00
O538   O     0.80758   0.16425   0.67207   0.00000  Uiso   1.00
O539   O     0.90819   0.17373   0.68161   0.00000  Uiso   1.00
O540   O     0.99174   0.12073   0.70096   0.00000  Uiso   1.00
C541   C     0.18180   0.60007   0.75154   0.00000  Uiso   1.00
C542   C     0.11276   0.49854   0.90325   0.00000  Uiso   1.00
C543   C     0.19029   0.65609   0.75226   0.00000  Uiso   1.00
C544   C     0.13333   0.49939   0.84719   0.00000  Uiso   1.00
C545   C     0.14305   0.34392   0.74776   0.00000  Uiso   1.00
C546   C     0.15152   0.39993   0.74848   0.00000  Uiso   1.00
C547   C     0.20042   0.50369   0.65302   0.00000  Uiso   1.00
C548   C     0.29303   0.55865   0.52719   0.00000  Uiso   1.00
C549   C     0.22054   0.51227   0.59808   0.00000  Uiso   1.00
C550   C     0.05122   0.47235   0.92397   0.00000  Uiso   1.00
C551   C     0.03310   0.46236   0.97574   0.00000  Uiso   1.00
C552   C     0.13933   0.50264   0.98780   0.00000  Uiso   1.00
C553   C     0.07657   0.47624   0.50728   0.00000  Uiso   1.00
C554   C     0.15561   0.51796   0.93612   0.00000  Uiso   1.00
C555   C     0.18631   0.51485   0.51798   0.00000  Uiso   1.00
C556   C     0.24643   0.54614   0.99775   0.00000  Uiso   1.00
C557   C     0.25891   0.56577   0.94888   0.00000  Uiso   1.00
C558   C     0.21395   0.55267   0.91884   0.00000  Uiso   1.00
C559   C     0.17551   0.49679   0.56773   0.00000  Uiso   1.00
C560   C     0.28004   0.54203   0.57731   0.00000  Uiso   1.00
Cu561  Cu    0.10710   0.49439   0.74436   0.00000  Uiso   1.00
Cu562  Cu    0.22623   0.50561   0.75565   0.00000  Uiso   1.00
H563   H     0.31540   0.55434   0.60037   0.00000  Uiso   1.00
H564   H     0.22522   0.57131   0.88236   0.00000  Uiso   1.00
H565   H     0.23576   0.34668   0.75650   0.00000  Uiso   1.00
H566   H     0.02507   0.43614   0.68280   0.00000  Uiso   1.00
H567   H     0.09758   0.65332   0.74352   0.00000  Uiso   1.00
H568   H     0.00323   0.53873   0.79042   0.00000  Uiso   1.00
H569   H     0.30369   0.59150   0.93375   0.00000  Uiso   1.00
H570   H     0.00567   0.58246   0.51186   0.00000  Uiso   1.00
H571   H     0.13173   0.47126   0.58445   0.00000  Uiso   1.00
H572   H     0.01737   0.45812   0.89984   0.00000  Uiso   1.00
H573   H     0.05898   0.46686   0.54692   0.00000  Uiso   1.00
H574   H     0.31867   0.44239   0.99137   0.00000  Uiso   1.00
N575   N     0.31574   0.51407   0.76416   0.00000  Uiso   1.00
N576   N     0.01759   0.48593   0.73584   0.00000  Uiso   1.00
O577   O     0.12797   0.57141   0.74633   0.00000  Uiso   1.00
O578   O     0.22858   0.58089   0.75587   0.00000  Uiso   1.00
O579   O     0.09181   0.49293   0.81840   0.00000  Uiso   1.00
O580   O     0.19242   0.50241   0.82793   0.00000  Uiso   1.00
O581   O     0.10476   0.41911   0.74414   0.00000  Uiso   1.00
O582   O     0.20536   0.42859   0.75367   0.00000  Uiso   1.00
O583   O     0.14092   0.49759   0.67207   0.00000  Uiso   1.00
O584   O     0.24152   0.50707   0.68161   0.00000  Uiso   1.00
O585   O     0.32508   0.45406   0.70096   0.00000  Uiso   1.00
C586   C     0.51514   0.60007   0.75154   0.00000  Uiso   1.00
C587   C     0.44610   0.49854   0.90325   0.00000  Uiso   1.00
C588   C     0.52362   0.65609   0.75226   0.00000  Uiso   1.00
C589   C     0.46666   0.49939   0.84719   0.00000  Uiso   1.00
C590   C     0.47638   0.34392   0.74776   0.00000  Uiso   1.00
C591   C     0.48486   0.39993   0.74848   0.00000  Uiso   1.00
C592   C     0.53375   0.50369   0.65302   0.00000  Uiso   1.00
C593   C     0.62636   0.55865   0.52719   0.00000  Uiso   1.00
C594   C     0.55388   0.51227   0.59808   0.00000  Uiso   1.00
C595   C     0.38455   0.47235   0.92397   0.00000  Uiso   1.00
C596   C     0.36644   0.46236   0.97574   0.00000  Uiso   1.00
C597   C     0.47266   0.50264   0.98780   0.00000  Uiso   1.00
C598   C     0.40990   0.47624   0.50728   0.00000  Uiso   1.00
C599   C     0.48895   0.51796   0.93612   0.00000  Uiso   1.00
C600   C     0.51964   0.51485   0.51798   0.00000  Uiso   1.00
C601   C     0.57977   0.54614   0.99775   0.00000  Uiso   1.00
C602   C     0.59224   0.56577   0.94888   0.00000  Uiso   1.00
C603   C     0.54728   0.55267   0.91884   0.00000  Uiso   1.00
C604   C     0.50884   0.49679   0.56773   0.00000  Uiso   1.00
C605   C     0.61338   0.54203   0.57731   0.00000  Uiso   1.00
Cu606  Cu    0.44043   0.49439   0.74436   0.00000  Uiso   1.00
Cu607  Cu    0.55957   0.50561   0.75565   0.00000  Uiso   1.00
H608   H     0.64873   0.55434   0.60037   0.00000  Uiso   1.00
H609   H     0.55855   0.57131   0.88236   0.00000  Uiso   1.00
H610   H     0.56909   0.34668   0.75650   0.00000  Uiso   1.00
H611   H     0.35840   0.43614   0.68280   0.00000  Uiso   1.00
H612   H     0.43091   0.65332   0.74352   0.00000  Uiso   1.00
H613   H     0.33656   0.53873   0.79042   0.00000  Uiso   1.00
H614   H     0.63702   0.59150   0.93375   0.00000  Uiso   1.00
H615   H     0.33901   0.58246   0.51186   0.00000  Uiso   1.00
H616   H     0.46506   0.47126   0.58445   0.00000  Uiso   1.00
H617   H     0.35070   0.45812   0.89984   0.00000  Uiso   1.00
H618   H     0.39231   0.46686   0.54692   0.00000  Uiso   1.00
H619   H     0.65200   0.44239   0.99137   0.00000  Uiso   1.00
N620   N     0.64908   0.51407   0.76416   0.00000  Uiso   1.00
N621   N     0.35092   0.48593   0.73584   0.00000  Uiso   1.00
O622   O     0.46131   0.57141   0.74633   0.00000  Uiso   1.00
O623   O     0.56191   0.58089   0.75587   0.00000  Uiso   1.00
O624   O     0.42515   0.49293   0.81840   0.00000  Uiso   1.00
O625   O     0.52575   0.50241   0.82793   0.00000  Uiso   1.00
O626   O     0.43809   0.41911   0.74414   0.00000  Uiso   1.00
O627   O     0.53869   0.42859   0.75367   0.00000  Uiso   1.00
O628   O     0.47425   0.49759   0.67207   0.00000  Uiso   1.00
O629   O     0.57485   0.50707   0.68161   0.00000  Uiso   1.00
O630   O     0.65841   0.45406   0.70096   0.00000  Uiso   1.00
C631   C     0.84847   0.60007   0.75154   0.00000  Uiso   1.00
C632   C     0.77943   0.49854   0.90325   0.00000  Uiso   1.00
C633   C     0.85695   0.65609   0.75226   0.00000  Uiso   1.00
C634   C     0.80000   0.49939   0.84719   0.00000  Uiso   1.00
C635   C     0.80972   0.34392   0.74776   0.00000  Uiso   1.00
C636   C     0.81819   0.39993   0.74848   0.00000  Uiso   1.00
C637   C     0.86708   0.50369   0.65302   0.00000  Uiso   1.00
C638   C     0.95970   0.55865   0.52719   0.00000  Uiso   1.00
C639   C     0.88721   0.51227   0.59808   0.00000  Uiso   1.00
C640   C     0.71788   0.47235   0.92397   0.00000  Uiso   1.00
C641   C     0.69977   0.46236   0.97574   0.00000  Uiso   1.00
C642   C     0.80600   0.50264   0.98780   0.00000  Uiso   1.00
C643   C     0.74324   0.47624   0.50728   0.00000  Uiso   1.00
C644   C     0.82228   0.51796   0.93612   0.00000  Uiso   1.00
C645   C     0.85298   0.51485   0.51798   0.00000  Uiso   1.00
C646   C     0.91310   0.54614   0.99775   0.00000  Uiso   1.00
C647   C     0.92558   0.56577   0.94888   0.00000  Uiso   1.00
C648   C     0.88062   0.55267   0.91884   0.00000  Uiso   1.00
C649   C     0.84217   0.49679   0.56773   0.00000  Uiso   1.00
C650   C     0.94671   0.54203   0.57731   0.00000  Uiso   1.00
Cu651  Cu    0.77377   0.49439   0.74436   0.00000  Uiso   1.00
Cu652  Cu    0.89290   0.50561   0.75565   0.00000  Uiso   1.00
H653   H     0.98207   0.55434   0.60037   0.00000  Uiso   1.00
H654   H     0.89189   0.57131   0.88236   0.00000  Uiso   1.00
H655   H     0.90242   0.34668   0.75650   0.00000  Uiso   1.00
H656   H     0.69174   0.43614   0.68280   0.00000  Uiso   1.00
H657   H     0.76425   0.65332   0.74352   0.00000  Uiso   1.00
H658   H     0.66989   0.53873   0.79042   0.00000  Uiso   1.00
H659   H     0.97036   0.59150   0.93375   0.00000  Uiso   1.00
H660   H     0.67234   0.58246   0.51186   0.00000  Uiso   1.00
H661   H     0.79840   0.47126   0.58445   0.00000  Uiso   1.00
H662   H     0.68403   0.45812   0.89984   0.00000  Uiso   1.00
H663   H     0.72565   0.46686   0.54692   0.00000  Uiso   1.00
H664   H     0.98534   0.44239   0.99137   0.00000  Uiso   1.00
N665   N     0.98241   0.51407   0.76416   0.00000  Uiso   1.00
N666   N     0.68426   0.48593   0.73584   0.00000  Uiso   1.00
O667   O     0.79464   0.57141   0.74633   0.00000  Uiso   1.00
O668   O     0.89524   0.58089   0.75587   0.00000  Uiso   1.00
O669   O     0.75848   0.49293   0.81840   0.00000  Uiso   1.00
O670   O     0.85908   0.50241   0.82793   0.00000  Uiso   1.00
O671   O     0.77142   0.41911   0.74414   0.00000  Uiso   1.00
O672   O     0.87203   0.42859   0.75367   0.00000  Uiso   1.00
O673   O     0.80758   0.49759   0.67207   0.00000  Uiso   1.00
O674   O     0.90819   0.50707   0.68161   0.00000  Uiso   1.00
O675   O     0.99174   0.45406   0.70096   0.00000  Uiso   1.00
C676   C     0.18180   0.93340   0.75154   0.00000  Uiso   1.00
C677   C     0.11276   0.83187   0.90325   0.00000  Uiso   1.00
C678   C     0.19029   0.98942   0.75226   0.00000  Uiso   1.00
C679   C     0.13333   0.83272   0.84719   0.00000  Uiso   1.00
C680   C     0.14305   0.67725   0.74776   0.00000  Uiso   1.00
C681   C     0.15152   0.73327   0.74848   0.00000  Uiso   1.00
C682   C     0.20042   0.83702   0.65302   0.00000  Uiso   1.00
C683   C     0.29303   0.89199   0.52719   0.00000  Uiso   1.00
C684   C     0.22054   0.84560   0.59808   0.00000  Uiso   1.00
C685   C     0.05122   0.80569   0.92397   0.00000  Uiso   1.00
C686   C     0.03310   0.79570   0.97574   0.00000  Uiso   1.00
C687   C     0.13933   0.83597   0.98780   0.00000  Uiso   1.00
C688   C     0.07657   0.80958   0.50728   0.00000  Uiso   1.00
C689   C     0.15561   0.85130   0.93612   0.00000  Uiso   1.00
C690   C     0.18631   0.84818   0.51798   0.00000  Uiso   1.00
C691   C     0.24643   0.87947   0.99775   0.00000  Uiso   1.00
C692   C     0.25891   0.89910   0.94888   0.00000  Uiso   1.00
C693   C     0.21395   0.88600   0.91884   0.00000  Uiso   1.00
C694   C     0.17551   0.83012   0.56773   0.00000  Uiso   1.00
C695   C     0.28004   0.87536   0.57731   0.00000  Uiso   1.00
Cu696  Cu    0.10710   0.82772   0.74436   0.00000  Uiso   1.00
Cu697  Cu    0.22623   0.83895   0.75565   0.00000  Uiso   1.00
H698   H     0.31540   0.88768   0.60037   0.00000  Uiso   1.00
H699   H     0.22522   0.90464   0.88236   0.00000  Uiso   1.00
H700   H     0.23576   0.68001   0.75650   0.00000  Uiso   1.00
H701   H     0.02507   0.76947   0.68280   0.00000  Uiso   1.00
H702   H     0.09758   0.98665   0.74352   0.00000  Uiso   1.00
H703   H     0.00323   0.87206   0.79042   0.00000  Uiso   1.00
H704   H     0.30369   0.92483   0.93375   0.00000  Uiso   1.00
H705   H     0.00567   0.91579   0.51186   0.00000  Uiso   1.00
H706   H     0.13173   0.80460   0.58445   0.00000  Uiso   1.00
H707   H     0.01737   0.79146   0.89984   0.00000  Uiso   1.00
H708   H     0.05898   0.80019   0.54692   0.00000  Uiso   1.00
H709   H     0.31867   0.77572   0.99137   0.00000  Uiso   1.00
N710   N     0.31574   0.84741   0.76416   0.00000  Uiso   1.00
N711   N     0.01759   0.81926   0.73584   0.00000  Uiso   1.00
O712   O     0.12797   0.90474   0.74633   0.00000  Uiso   1.00
O713   O     0.22858   0.91422   0.75587   0.00000  Uiso   1.00
O714   O     0.09181   0.82627   0.81840   0.00000  Uiso   1.00
O715   O     0.19242   0.83575   0.82793   0.00000  Uiso   1.00
O716   O     0.10476   0.75245   0.74414   0.00000  Uiso   1.00
O717   O     0.20536   0.76193   0.75367   0.00000  Uiso   1.00
O718   O     0.14092   0.83092   0.67207   0.00000  Uiso   1.00
O719   O     0.24152   0.84040   0.68161   0.00000  Uiso   1.00
O720   O     0.32508   0.78740   0.70096   0.00000  Uiso   1.00
C721   C     0.51514   0.93340   0.75154   0.00000  Uiso   1.00
C722   C     0.44610   0.83187   0.90325   0.00000  Uiso   1.00
C723   C     0.52362   0.98942   0.75226   0.00000  Uiso   1.00
C724   C     0.46666   0.83272   0.84719   0.00000  Uiso   1.00
C725   C     0.47638   0.67725   0.74776   0.00000  Uiso   1.00
C726   C     0.48486   0.73327   0.74848   0.00000  Uiso   1.00
C727   C     0.53375   0.83702   0.65302   0.00000  Uiso   1.00
C728   C     0.62636   0.89199   0.52719   0.00000  Uiso   1.00
C729   C     0.55388   0.84560   0.59808   0.00000  Uiso   1.00
C730   C     0.38455   0.80569   0.92397   0.00000  Uiso   1.00
C731   C     0.36644   0.79570   0.97574   0.00000  Uiso   1.00
C732   C     0.47266   0.83597   0.98780   0.00000  Uiso   1.00
C733   C     0.40990   0.80958   0.50728   0.00000  Uiso   1.00
C734   C     0.48895   0.85130   0.93612   0.00000  Uiso   1.00
C735   C     0.51964   0.84818   0.51798   0.00000  Uiso   1.00
C736   C     0.57977   0.87947   0.99775   0.00000  Uiso   1.00
C737   C     0.59224   0.89910   0.94888   0.00000  Uiso   1.00
C738   C     0.54728   0.88600   0.91884   0.00000  Uiso   1.00
C739   C     0.50884   0.83012   0.56773   0.00000  Uiso   1.00
C740   C     0.61338   0.87536   0.57731   0.00000  Uiso   1.00
Cu741  Cu    0.44043   0.82772   0.74436   0.00000  Uiso   1.00
Cu742  Cu    0.55957   0.83895   0.75565   0.00000  Uiso   1.00
H743   H     0.64873   0.88768   0.60037   0.00000  Uiso   1.00
H744   H     0.55855   0.90464   0.88236   0.00000  Uiso   1.00
H745   H     0.56909   0.68001   0.75650   0.00000  Uiso   1.00
H746   H     0.35840   0.76947   0.68280   0.00000  Uiso   1.00
H747   H     0.43091   0.98665   0.74352   0.00000  Uiso   1.00
H748   H     0.33656   0.87206   0.79042   0.00000  Uiso   1.00
H749   H     0.63702   0.92483   0.93375   0.00000  Uiso   1.00
H750   H     0.33901   0.91579   0.51186   0.00000  Uiso   1.00
H751   H     0.46506   0.80460   0.58445   0.00000  Uiso   1.00
H752   H     0.35070   0.79146   0.89984   0.00000  Uiso   1.00
H753   H     0.39231   0.80019   0.54692   0.00000  Uiso   1.00
H754   H     0.65200   0.77572   0.99137   0.00000  Uiso   1.00
N755   N     0.64908   0.84741   0.76416   0.00000  Uiso   1.00
N756   N     0.35092   0.81926   0.73584   0.00000  Uiso   1.00
O757   O     0.46131   0.90474   0.74633   0.00000  Uiso   1.00
O758   O     0.56191   0.91422   0.75587   0.00000  Uiso   1.00
O759   O     0.42515   0.82627   0.81840   0.00000  Uiso   1.00
O760   O     0.52575   0.83575   0.82793   0.00000  Uiso   1.00
O761   O     0.43809   0.75245   0.74414   0.00000  Uiso   1.00
O762   O     0.53869   0.76193   0.75367   0.00000  Uiso   1.00
O763   O     0.47425   0.83092   0.67207   0.00000  Uiso   1.00
O764   O     0.57485   0.84040   0.68161   0.00000  Uiso   1.00
O765   O     0.65841   0.78740   0.70096   0.00000  Uiso   1.00
C766   C     0.84847   0.93340   0.75154   0.00000  Uiso   1.00
C767   C     0.77943   0.83187   0.90325   0.00000  Uiso   1.00
C768   C     0.85695   0.98942   0.75226   0.00000  Uiso   1.00
C769   C     0.80000   0.83272   0.84719   0.00000  Uiso   1.00
C770   C     0.80972   0.67725   0.74776   0.00000  Uiso   1.00
C771   C     0.81819   0.73327   0.74848   0.00000  Uiso   1.00
C772   C     0.86708   0.83702   0.65302   0.00000  Uiso   1.00
C773   C     0.95970   0.89199   0.52719   0.00000  Uiso   1.00
C774   C     0.88721   0.84560   0.59808   0.00000  Uiso   1.00
C775   C     0.71788   0.80569   0.92397   0.00000  Uiso   1.00
C776   C     0.69977   0.79570   0.97574   0.00000  Uiso   1.00
C777   C     0.80600   0.83597   0.98780   0.00000  Uiso   1.00
C778   C     0.74324   0.80958   0.50728   0.00000  Uiso   1.00
C779   C     0.82228   0.85130   0.93612   0.00000  Uiso   1.00
C780   C     0.85298   0.84818   0.51798   0.00000  Uiso   1.00
C781   C     0.91310   0.87947   0.99775   0.00000  Uiso   1.00
C782   C     0.92558   0.89910   0.94888   0.00000  Uiso   1.00
C783   C     0.88062   0.88600   0.91884   0.00000  Uiso   1.00
C784   C     0.84217   0.83012   0.56773   0.00000  Uiso   1.00
C785   C     0.94671   0.87536   0.57731   0.00000  Uiso   1.00
Cu786  Cu    0.77377   0.82772   0.74436   0.00000  Uiso   1.00
Cu787  Cu    0.89290   0.83895   0.75565   0.00000  Uiso   1.00
H788   H     0.98207   0.88768   0.60037   0.00000  Uiso   1.00
H789   H     0.89189   0.90464   0.88236   0.00000  Uiso   1.00
H790   H     0.90242   0.68001   0.75650   0.00000  Uiso   1.00
H791   H     0.69174   0.76947   0.68280   0.00000  Uiso   1.00
H792   H     0.76425   0.98665   0.74352   0.00000  Uiso   1.00
H793   H     0.66989   0.87206   0.79042   0.00000  Uiso   1.00
H794   H     0.97036   0.92483   0.93375   0.00000  Uiso   1.00
H795   H     0.67234   0.91579   0.51186   0.00000  Uiso   1.00
H796   H     0.79840   0.80460   0.58445   0.00000  Uiso   1.00
H797   H     0.68403   0.79146   0.89984   0.00000  Uiso   1.00
H798   H     0.72565   0.80019   0.54692   0.00000  Uiso   1.00
H799   H     0.98534   0.77572   0.99137   0.00000  Uiso   1.00
N800   N     0.98241   0.84741   0.76416   0.00000  Uiso   1.00
N801   N     0.68426   0.81926   0.73584   0.00000  Uiso   1.00
O802   O     0.79464   0.90474   0.74633   0.00000  Uiso   1.00
O803   O     0.89524   0.91422   0.75587   0.00000  Uiso   1.00
O804   O     0.75848   0.82627   0.81840   0.00000  Uiso   1.00
O805   O     0.85908   0.83575   0.82793   0.00000  Uiso   1.00
O806   O     0.77142   0.75245   0.74414   0.00000  Uiso   1.00
O807   O     0.87203   0.76193   0.75367   0.00000  Uiso   1.00
O808   O     0.80758   0.83092   0.67207   0.00000  Uiso   1.00
O809   O     0.90819   0.84040   0.68161   0.00000  Uiso   1.00
O810   O     0.99174   0.78740   0.70096   0.00000  Uiso   1.00
loop_
_geom_bond_atom_site_label_1
_geom_bond_atom_site_label_2
_geom_bond_distance
_geom_bond_site_symmetry_2
_ccdc_geom_bond_type
C1     O37     1.292   .     A
C1     O38     1.288   .     A
C1     C3      1.428   .     S
C2     C4      1.474   .     S
C2     C14     1.422   .     A
C2     C10     1.402   .     A
C3     C140    1.329   .     S
C3     H160    1.088   .     S
C4     O39     1.305   .     A
C4     O40     1.297   .     A
C5     C6      1.428   .     S
C5     C273    1.329   1_545 S
C5     H297    1.088   1_545 S
C6     O42     1.292   .     A
C6     O41     1.288   .     A
C7     O43     1.296   .     A
C7     O44     1.302   .     A
C7     C9      1.463   .     S
C8     C20     1.393   .     A
C8     C421    1.405   1_554 S
C8     H75     1.084   .     S
C9     C20     1.398   .     A
C9     C19     1.398   .     A
C10    C11     1.387   .     A
C10    H32     1.083   .     S
C11    C418    1.391   .     S
C11    H124    1.083   1_455 S
C12    C14     1.419   .     A
C12    C418    1.418   .     S
C12    C420    1.425   .     S
C13    H33     1.077   .     S
C13    C417    1.418   1_554 S
C13    C416    1.391   1_554 S
C14    C18     1.413   .     A
C15    C19     1.402   .     A
C15    C417    1.425   1_554 S
C15    C421    1.420   1_554 S
C16    C17     1.391   .     A
C16    C420    1.420   .     S
C16    C413    1.405   .     S
C17    H29     1.084   .     S
C17    C18     1.387   .     A
C18    H24     1.080   .     S
C19    H31     1.077   .     S
C20    H23     1.083   .     S
Cu21   O43     1.923   .     S
Cu21   O39     1.942   .     S
Cu21   N36     2.023   .     S
Cu21   O41     1.951   .     S
Cu21   Cu22    2.692   .     S
Cu21   O37     1.954   .     S
Cu22   O40     1.923   .     S
Cu22   N35     2.023   .     S
Cu22   O42     1.954   .     S
Cu22   O44     1.942   .     S
Cu22   O38     1.951   .     S
H25    C273    1.088   1_545 S
H26    O135    0.990   1_455 S
H27    C140    1.088   .     S
H28    N125    1.029   1_455 S
H30    C98     1.084   1_455 S
H34    C56     1.083   .     S
N35    H73     1.029   .     S
N35    N81     1.287   .     S
N36    N125    1.287   1_455 S
N36    O135    1.338   1_455 S
O45    H71     0.990   .     S
O45    N81     1.338   .     S
C46    O82     1.292   .     A
C46    O83     1.288   .     A
C46    C48     1.428   .     S
C47    C49     1.474   .     S
C47    C59     1.422   .     A
C47    C55     1.402   .     A
C48    C185    1.329   .     S
C48    H205    1.088   .     S
C49    O84     1.305   .     A
C49    O85     1.297   .     A
C50    C51     1.428   .     S
C50    C318    1.329   1_545 S
C50    H342    1.088   1_545 S
C51    O87     1.292   .     A
C51    O86     1.288   .     A
C52    O88     1.296   .     A
C52    O89     1.302   .     A
C52    C54     1.463   .     S
C53    C65     1.393   .     A
C53    C466    1.405   1_554 S
C53    H120    1.084   .     S
C54    C65     1.398   .     A
C54    C64     1.398   .     A
C55    C56     1.387   .     A
C55    H77     1.083   .     S
C56    C463    1.391   .     S
C57    C59     1.419   .     A
C57    C463    1.418   .     S
C57    C465    1.425   .     S
C58    H78     1.077   .     S
C58    C462    1.418   1_554 S
C58    C461    1.391   1_554 S
C59    C63     1.413   .     A
C60    C64     1.402   .     A
C60    C462    1.425   1_554 S
C60    C466    1.420   1_554 S
C61    C62     1.391   .     A
C61    C465    1.420   .     S
C61    C458    1.405   .     S
C62    H74     1.084   .     S
C62    C63     1.387   .     A
C63    H69     1.080   .     S
C64    H76     1.077   .     S
C65    H68     1.083   .     S
Cu66   O88     1.923   .     S
Cu66   O84     1.942   .     S
Cu66   N81     2.023   .     S
Cu66   O86     1.951   .     S
Cu66   Cu67    2.692   .     S
Cu66   O82     1.954   .     S
Cu67   O85     1.923   .     S
Cu67   N80     2.023   .     S
Cu67   O87     1.954   .     S
Cu67   O89     1.942   .     S
Cu67   O83     1.951   .     S
H70    C318    1.088   1_545 S
H72    C185    1.088   .     S
H79    C101    1.083   .     S
N80    H118    1.029   .     S
N80    N126    1.287   .     S
O90    H116    0.990   .     S
O90    N126    1.338   .     S
C91    O127    1.292   .     A
C91    O128    1.288   .     A
C91    C93     1.428   .     S
C92    C94     1.474   .     S
C92    C104    1.422   .     A
C92    C100    1.402   .     A
C93    C230    1.329   .     S
C93    H250    1.088   .     S
C94    O129    1.305   .     A
C94    O130    1.297   .     A
C95    C96     1.428   .     S
C95    C363    1.329   1_545 S
C95    H387    1.088   1_545 S
C96    O132    1.292   .     A
C96    O131    1.288   .     A
C97    O133    1.296   .     A
C97    O134    1.302   .     A
C97    C99     1.463   .     S
C98    C110    1.393   .     A
C98    C511    1.405   1_554 S
C98    H30     1.084   1_655 S
C99    C110    1.398   .     A
C99    C109    1.398   .     A
C100   C101    1.387   .     A
C100   H122    1.083   .     S
C101   C508    1.391   .     S
C102   C104    1.419   .     A
C102   C508    1.418   .     S
C102   C510    1.425   .     S
C103   H123    1.077   .     S
C103   C507    1.418   1_554 S
C103   C506    1.391   1_554 S
C104   C108    1.413   .     A
C105   C109    1.402   .     A
C105   C507    1.425   1_554 S
C105   C511    1.420   1_554 S
C106   C107    1.391   .     A
C106   C510    1.420   .     S
C106   C503    1.405   .     S
C107   H119    1.084   .     S
C107   C108    1.387   .     A
C108   H114    1.080   .     S
C109   H121    1.077   .     S
C110   H113    1.083   .     S
Cu111  O133    1.923   .     S
Cu111  O129    1.942   .     S
Cu111  N126    2.023   .     S
Cu111  O131    1.951   .     S
Cu111  Cu112   2.692   .     S
Cu111  O127    1.954   .     S
Cu112  O130    1.923   .     S
Cu112  N125    2.023   .     S
Cu112  O132    1.954   .     S
Cu112  O134    1.942   .     S
Cu112  O128    1.951   .     S
H115   C363    1.088   1_545 S
H117   C230    1.088   .     S
H124   C11     1.083   1_655 S
N125   H28     1.029   1_655 S
N125   N36     1.287   1_655 S
O135   H26     0.990   1_655 S
O135   N36     1.338   1_655 S
C136   O172    1.292   .     A
C136   O173    1.288   .     A
C136   C138    1.428   .     S
C137   C139    1.474   .     S
C137   C149    1.422   .     A
C137   C145    1.402   .     A
C138   C275    1.329   .     S
C138   H295    1.088   .     S
C139   O174    1.305   .     A
C139   O175    1.297   .     A
C140   C141    1.428   .     S
C141   O177    1.292   .     A
C141   O176    1.288   .     A
C142   O178    1.296   .     A
C142   O179    1.302   .     A
C142   C144    1.463   .     S
C143   C155    1.393   .     A
C143   C556    1.405   1_554 S
C143   H210    1.084   .     S
C144   C155    1.398   .     A
C144   C154    1.398   .     A
C145   C146    1.387   .     A
C145   H167    1.083   .     S
C146   C553    1.391   .     S
C146   H259    1.083   1_455 S
C147   C149    1.419   .     A
C147   C553    1.418   .     S
C147   C555    1.425   .     S
C148   H168    1.077   .     S
C148   C552    1.418   1_554 S
C148   C551    1.391   1_554 S
C149   C153    1.413   .     A
C150   C154    1.402   .     A
C150   C552    1.425   1_554 S
C150   C556    1.420   1_554 S
C151   C152    1.391   .     A
C151   C555    1.420   .     S
C151   C548    1.405   .     S
C152   H164    1.084   .     S
C152   C153    1.387   .     A
C153   H159    1.080   .     S
C154   H166    1.077   .     S
C155   H158    1.083   .     S
Cu156  O178    1.923   .     S
Cu156  O174    1.942   .     S
Cu156  N171    2.023   .     S
Cu156  O176    1.951   .     S
Cu156  Cu157   2.692   .     S
Cu156  O172    1.954   .     S
Cu157  O175    1.923   .     S
Cu157  N170    2.023   .     S
Cu157  O177    1.954   .     S
Cu157  O179    1.942   .     S
Cu157  O173    1.951   .     S
H161   O270    0.990   1_455 S
H162   C275    1.088   .     S
H163   N260    1.029   1_455 S
H165   C233    1.084   1_455 S
H169   C191    1.083   .     S
N170   H208    1.029   .     S
N170   N216    1.287   .     S
N171   N260    1.287   1_455 S
N171   O270    1.338   1_455 S
O180   H206    0.990   .     S
O180   N216    1.338   .     S
C181   O217    1.292   .     A
C181   O218    1.288   .     A
C181   C183    1.428   .     S
C182   C184    1.474   .     S
C182   C194    1.422   .     A
C182   C190    1.402   .     A
C183   C320    1.329   .     S
C183   H340    1.088   .     S
C184   O219    1.305   .     A
C184   O220    1.297   .     A
C185   C186    1.428   .     S
C186   O222    1.292   .     A
C186   O221    1.288   .     A
C187   O223    1.296   .     A
C187   O224    1.302   .     A
C187   C189    1.463   .     S
C188   C200    1.393   .     A
C188   C601    1.405   1_554 S
C188   H255    1.084   .     S
C189   C200    1.398   .     A
C189   C199    1.398   .     A
C190   C191    1.387   .     A
C190   H212    1.083   .     S
C191   C598    1.391   .     S
C192   C194    1.419   .     A
C192   C598    1.418   .     S
C192   C600    1.425   .     S
C193   H213    1.077   .     S
C193   C597    1.418   1_554 S
C193   C596    1.391   1_554 S
C194   C198    1.413   .     A
C195   C199    1.402   .     A
C195   C597    1.425   1_554 S
C195   C601    1.420   1_554 S
C196   C197    1.391   .     A
C196   C600    1.420   .     S
C196   C593    1.405   .     S
C197   H209    1.084   .     S
C197   C198    1.387   .     A
C198   H204    1.080   .     S
C199   H211    1.077   .     S
C200   H203    1.083   .     S
Cu201  O223    1.923   .     S
Cu201  O219    1.942   .     S
Cu201  N216    2.023   .     S
Cu201  O221    1.951   .     S
Cu201  Cu202   2.692   .     S
Cu201  O217    1.954   .     S
Cu202  O220    1.923   .     S
Cu202  N215    2.023   .     S
Cu202  O222    1.954   .     S
Cu202  O224    1.942   .     S
Cu202  O218    1.951   .     S
H207   C320    1.088   .     S
H214   C236    1.083   .     S
N215   H253    1.029   .     S
N215   N261    1.287   .     S
O225   H251    0.990   .     S
O225   N261    1.338   .     S
C226   O262    1.292   .     A
C226   O263    1.288   .     A
C226   C228    1.428   .     S
C227   C229    1.474   .     S
C227   C239    1.422   .     A
C227   C235    1.402   .     A
C228   C365    1.329   .     S
C228   H385    1.088   .     S
C229   O264    1.305   .     A
C229   O265    1.297   .     A
C230   C231    1.428   .     S
C231   O267    1.292   .     A
C231   O266    1.288   .     A
C232   O268    1.296   .     A
C232   O269    1.302   .     A
C232   C234    1.463   .     S
C233   C245    1.393   .     A
C233   C646    1.405   1_554 S
C233   H165    1.084   1_655 S
C234   C245    1.398   .     A
C234   C244    1.398   .     A
C235   C236    1.387   .     A
C235   H257    1.083   .     S
C236   C643    1.391   .     S
C237   C239    1.419   .     A
C237   C643    1.418   .     S
C237   C645    1.425   .     S
C238   H258    1.077   .     S
C238   C642    1.418   1_554 S
C238   C641    1.391   1_554 S
C239   C243    1.413   .     A
C240   C244    1.402   .     A
C240   C642    1.425   1_554 S
C240   C646    1.420   1_554 S
C241   C242    1.391   .     A
C241   C645    1.420   .     S
C241   C638    1.405   .     S
C242   H254    1.084   .     S
C242   C243    1.387   .     A
C243   H249    1.080   .     S
C244   H256    1.077   .     S
C245   H248    1.083   .     S
Cu246  O268    1.923   .     S
Cu246  O264    1.942   .     S
Cu246  N261    2.023   .     S
Cu246  O266    1.951   .     S
Cu246  Cu247   2.692   .     S
Cu246  O262    1.954   .     S
Cu247  O265    1.923   .     S
Cu247  N260    2.023   .     S
Cu247  O267    1.954   .     S
Cu247  O269    1.942   .     S
Cu247  O263    1.951   .     S
H252   C365    1.088   .     S
H259   C146    1.083   1_655 S
N260   H163    1.029   1_655 S
N260   N171    1.287   1_655 S
O270   H161    0.990   1_655 S
O270   N171    1.338   1_655 S
C271   O307    1.292   .     A
C271   O308    1.288   .     A
C271   C273    1.428   .     S
C272   C274    1.474   .     S
C272   C284    1.422   .     A
C272   C280    1.402   .     A
C273   C5      1.329   1_565 S
C273   H25     1.088   1_565 S
C274   O309    1.305   .     A
C274   O310    1.297   .     A
C275   C276    1.428   .     S
C276   O312    1.292   .     A
C276   O311    1.288   .     A
C277   O313    1.296   .     A
C277   O314    1.302   .     A
C277   C279    1.463   .     S
C278   C290    1.393   .     A
C278   C691    1.405   1_554 S
C278   H345    1.084   .     S
C279   C290    1.398   .     A
C279   C289    1.398   .     A
C280   C281    1.387   .     A
C280   H302    1.083   .     S
C281   C688    1.391   .     S
C281   H394    1.083   1_455 S
C282   C284    1.419   .     A
C282   C688    1.418   .     S
C282   C690    1.425   .     S
C283   H303    1.077   .     S
C283   C687    1.418   1_554 S
C283   C686    1.391   1_554 S
C284   C288    1.413   .     A
C285   C289    1.402   .     A
C285   C687    1.425   1_554 S
C285   C691    1.420   1_554 S
C286   C287    1.391   .     A
C286   C690    1.420   .     S
C286   C683    1.405   .     S
C287   H299    1.084   .     S
C287   C288    1.387   .     A
C288   H294    1.080   .     S
C289   H301    1.077   .     S
C290   H293    1.083   .     S
Cu291  O313    1.923   .     S
Cu291  O309    1.942   .     S
Cu291  N306    2.023   .     S
Cu291  O311    1.951   .     S
Cu291  Cu292   2.692   .     S
Cu291  O307    1.954   .     S
Cu292  O310    1.923   .     S
Cu292  N305    2.023   .     S
Cu292  O312    1.954   .     S
Cu292  O314    1.942   .     S
Cu292  O308    1.951   .     S
H296   O405    0.990   1_455 S
H297   C5      1.088   1_565 S
H298   N395    1.029   1_455 S
H300   C368    1.084   1_455 S
H304   C326    1.083   .     S
N305   H343    1.029   .     S
N305   N351    1.287   .     S
N306   N395    1.287   1_455 S
N306   O405    1.338   1_455 S
O315   H341    0.990   .     S
O315   N351    1.338   .     S
C316   O352    1.292   .     A
C316   O353    1.288   .     A
C316   C318    1.428   .     S
C317   C319    1.474   .     S
C317   C329    1.422   .     A
C317   C325    1.402   .     A
C318   C50     1.329   1_565 S
C318   H70     1.088   1_565 S
C319   O354    1.305   .     A
C319   O355    1.297   .     A
C320   C321    1.428   .     S
C321   O357    1.292   .     A
C321   O356    1.288   .     A
C322   O358    1.296   .     A
C322   O359    1.302   .     A
C322   C324    1.463   .     S
C323   C335    1.393   .     A
C323   C736    1.405   1_554 S
C323   H390    1.084   .     S
C324   C335    1.398   .     A
C324   C334    1.398   .     A
C325   C326    1.387   .     A
C325   H347    1.083   .     S
C326   C733    1.391   .     S
C327   C329    1.419   .     A
C327   C733    1.418   .     S
C327   C735    1.425   .     S
C328   H348    1.077   .     S
C328   C732    1.418   1_554 S
C328   C731    1.391   1_554 S
C329   C333    1.413   .     A
C330   C334    1.402   .     A
C330   C732    1.425   1_554 S
C330   C736    1.420   1_554 S
C331   C332    1.391   .     A
C331   C735    1.420   .     S
C331   C728    1.405   .     S
C332   H344    1.084   .     S
C332   C333    1.387   .     A
C333   H339    1.080   .     S
C334   H346    1.077   .     S
C335   H338    1.083   .     S
Cu336  O358    1.923   .     S
Cu336  O354    1.942   .     S
Cu336  N351    2.023   .     S
Cu336  O356    1.951   .     S
Cu336  Cu337   2.692   .     S
Cu336  O352    1.954   .     S
Cu337  O355    1.923   .     S
Cu337  N350    2.023   .     S
Cu337  O357    1.954   .     S
Cu337  O359    1.942   .     S
Cu337  O353    1.951   .     S
H342   C50     1.088   1_565 S
H349   C371    1.083   .     S
N350   H388    1.029   .     S
N350   N396    1.287   .     S
O360   H386    0.990   .     S
O360   N396    1.338   .     S
C361   O397    1.292   .     A
C361   O398    1.288   .     A
C361   C363    1.428   .     S
C362   C364    1.474   .     S
C362   C374    1.422   .     A
C362   C370    1.402   .     A
C363   C95     1.329   1_565 S
C363   H115    1.088   1_565 S
C364   O399    1.305   .     A
C364   O400    1.297   .     A
C365   C366    1.428   .     S
C366   O402    1.292   .     A
C366   O401    1.288   .     A
C367   O403    1.296   .     A
C367   O404    1.302   .     A
C367   C369    1.463   .     S
C368   C380    1.393   .     A
C368   C781    1.405   1_554 S
C368   H300    1.084   1_655 S
C369   C380    1.398   .     A
C369   C379    1.398   .     A
C370   C371    1.387   .     A
C370   H392    1.083   .     S
C371   C778    1.391   .     S
C372   C374    1.419   .     A
C372   C778    1.418   .     S
C372   C780    1.425   .     S
C373   H393    1.077   .     S
C373   C777    1.418   1_554 S
C373   C776    1.391   1_554 S
C374   C378    1.413   .     A
C375   C379    1.402   .     A
C375   C777    1.425   1_554 S
C375   C781    1.420   1_554 S
C376   C377    1.391   .     A
C376   C780    1.420   .     S
C376   C773    1.405   .     S
C377   H389    1.084   .     S
C377   C378    1.387   .     A
C378   H384    1.080   .     S
C379   H391    1.077   .     S
C380   H383    1.083   .     S
Cu381  O403    1.923   .     S
Cu381  O399    1.942   .     S
Cu381  N396    2.023   .     S
Cu381  O401    1.951   .     S
Cu381  Cu382   2.692   .     S
Cu381  O397    1.954   .     S
Cu382  O400    1.923   .     S
Cu382  N395    2.023   .     S
Cu382  O402    1.954   .     S
Cu382  O404    1.942   .     S
Cu382  O398    1.951   .     S
H387   C95     1.088   1_565 S
H394   C281    1.083   1_655 S
N395   H298    1.029   1_655 S
N395   N306    1.287   1_655 S
O405   H296    0.990   1_655 S
O405   N306    1.338   1_655 S
C406   O442    1.292   .     A
C406   O443    1.288   .     A
C406   C408    1.428   .     S
C407   C409    1.474   .     S
C407   C419    1.422   .     A
C407   C415    1.402   .     A
C408   C545    1.329   .     S
C408   H565    1.088   .     S
C409   O444    1.305   .     A
C409   O445    1.297   .     A
C410   C411    1.428   .     S
C410   C678    1.329   1_545 S
C410   H702    1.088   1_545 S
C411   O447    1.292   .     A
C411   O446    1.288   .     A
C412   O448    1.296   .     A
C412   O449    1.302   .     A
C412   C414    1.463   .     S
C413   C425    1.393   .     A
C413   H480    1.084   .     S
C414   C425    1.398   .     A
C414   C424    1.398   .     A
C415   C416    1.387   .     A
C415   H437    1.083   .     S
C416   C13     1.391   1_556 S
C416   H529    1.083   1_455 S
C417   C419    1.419   .     A
C417   C13     1.418   1_556 S
C417   C15     1.425   1_556 S
C418   H438    1.077   .     S
C419   C423    1.413   .     A
C420   C424    1.402   .     A
C421   C422    1.391   .     A
C421   C15     1.420   1_556 S
C421   C8      1.405   1_556 S
C422   H434    1.084   .     S
C422   C423    1.387   .     A
C423   H429    1.080   .     S
C424   H436    1.077   .     S
C425   H428    1.083   .     S
Cu426  O448    1.923   .     S
Cu426  O444    1.942   .     S
Cu426  N441    2.023   .     S
Cu426  O446    1.951   .     S
Cu426  Cu427   2.692   .     S
Cu426  O442    1.954   .     S
Cu427  O445    1.923   .     S
Cu427  N440    2.023   .     S
Cu427  O447    1.954   .     S
Cu427  O449    1.942   .     S
Cu427  O443    1.951   .     S
H430   C678    1.088   1_545 S
H431   O540    0.990   1_455 S
H432   C545    1.088   .     S
H433   N530    1.029   1_455 S
H435   C503    1.084   1_455 S
H439   C461    1.083   .     S
N440   H478    1.029   .     S
N440   N486    1.287   .     S
N441   N530    1.287   1_455 S
N441   O540    1.338   1_455 S
O450   H476    0.990   .     S
O450   N486    1.338   .     S
C451   O487    1.292   .     A
C451   O488    1.288   .     A
C451   C453    1.428   .     S
C452   C454    1.474   .     S
C452   C464    1.422   .     A
C452   C460    1.402   .     A
C453   C590    1.329   .     S
C453   H610    1.088   .     S
C454   O489    1.305   .     A
C454   O490    1.297   .     A
C455   C456    1.428   .     S
C455   C723    1.329   1_545 S
C455   H747    1.088   1_545 S
C456   O492    1.292   .     A
C456   O491    1.288   .     A
C457   O493    1.296   .     A
C457   O494    1.302   .     A
C457   C459    1.463   .     S
C458   C470    1.393   .     A
C458   H525    1.084   .     S
C459   C470    1.398   .     A
C459   C469    1.398   .     A
C460   C461    1.387   .     A
C460   H482    1.083   .     S
C461   C58     1.391   1_556 S
C462   C464    1.419   .     A
C462   C58     1.418   1_556 S
C462   C60     1.425   1_556 S
C463   H483    1.077   .     S
C464   C468    1.413   .     A
C465   C469    1.402   .     A
C466   C467    1.391   .     A
C466   C60     1.420   1_556 S
C466   C53     1.405   1_556 S
C467   H479    1.084   .     S
C467   C468    1.387   .     A
C468   H474    1.080   .     S
C469   H481    1.077   .     S
C470   H473    1.083   .     S
Cu471  O493    1.923   .     S
Cu471  O489    1.942   .     S
Cu471  N486    2.023   .     S
Cu471  O491    1.951   .     S
Cu471  Cu472   2.692   .     S
Cu471  O487    1.954   .     S
Cu472  O490    1.923   .     S
Cu472  N485    2.023   .     S
Cu472  O492    1.954   .     S
Cu472  O494    1.942   .     S
Cu472  O488    1.951   .     S
H475   C723    1.088   1_545 S
H477   C590    1.088   .     S
H484   C506    1.083   .     S
N485   H523    1.029   .     S
N485   N531    1.287   .     S
O495   H521    0.990   .     S
O495   N531    1.338   .     S
C496   O532    1.292   .     A
C496   O533    1.288   .     A
C496   C498    1.428   .     S
C497   C499    1.474   .     S
C497   C509    1.422   .     A
C497   C505    1.402   .     A
C498   C635    1.329   .     S
C498   H655    1.088   .     S
C499   O534    1.305   .     A
C499   O535    1.297   .     A
C500   C501    1.428   .     S
C500   C768    1.329   1_545 S
C500   H792    1.088   1_545 S
C501   O537    1.292   .     A
C501   O536    1.288   .     A
C502   O538    1.296   .     A
C502   O539    1.302   .     A
C502   C504    1.463   .     S
C503   C515    1.393   .     A
C503   H435    1.084   1_655 S
C504   C515    1.398   .     A
C504   C514    1.398   .     A
C505   C506    1.387   .     A
C505   H527    1.083   .     S
C506   C103    1.391   1_556 S
C507   C509    1.419   .     A
C507   C103    1.418   1_556 S
C507   C105    1.425   1_556 S
C508   H528    1.077   .     S
C509   C513    1.413   .     A
C510   C514    1.402   .     A
C511   C512    1.391   .     A
C511   C105    1.420   1_556 S
C511   C98     1.405   1_556 S
C512   H524    1.084   .     S
C512   C513    1.387   .     A
C513   H519    1.080   .     S
C514   H526    1.077   .     S
C515   H518    1.083   .     S
Cu516  O538    1.923   .     S
Cu516  O534    1.942   .     S
Cu516  N531    2.023   .     S
Cu516  O536    1.951   .     S
Cu516  Cu517   2.692   .     S
Cu516  O532    1.954   .     S
Cu517  O535    1.923   .     S
Cu517  N530    2.023   .     S
Cu517  O537    1.954   .     S
Cu517  O539    1.942   .     S
Cu517  O533    1.951   .     S
H520   C768    1.088   1_545 S
H522   C635    1.088   .     S
H529   C416    1.083   1_655 S
N530   H433    1.029   1_655 S
N530   N441    1.287   1_655 S
O540   H431    0.990   1_655 S
O540   N441    1.338   1_655 S
C541   O577    1.292   .     A
C541   O578    1.288   .     A
C541   C543    1.428   .     S
C542   C544    1.474   .     S
C542   C554    1.422   .     A
C542   C550    1.402   .     A
C543   C680    1.329   .     S
C543   H700    1.088   .     S
C544   O579    1.305   .     A
C544   O580    1.297   .     A
C545   C546    1.428   .     S
C546   O582    1.292   .     A
C546   O581    1.288   .     A
C547   O583    1.296   .     A
C547   O584    1.302   .     A
C547   C549    1.463   .     S
C548   C560    1.393   .     A
C548   H615    1.084   .     S
C549   C560    1.398   .     A
C549   C559    1.398   .     A
C550   C551    1.387   .     A
C550   H572    1.083   .     S
C551   C148    1.391   1_556 S
C551   H664    1.083   1_455 S
C552   C554    1.419   .     A
C552   C148    1.418   1_556 S
C552   C150    1.425   1_556 S
C553   H573    1.077   .     S
C554   C558    1.413   .     A
C555   C559    1.402   .     A
C556   C557    1.391   .     A
C556   C150    1.420   1_556 S
C556   C143    1.405   1_556 S
C557   H569    1.084   .     S
C557   C558    1.387   .     A
C558   H564    1.080   .     S
C559   H571    1.077   .     S
C560   H563    1.083   .     S
Cu561  O583    1.923   .     S
Cu561  O579    1.942   .     S
Cu561  N576    2.023   .     S
Cu561  O581    1.951   .     S
Cu561  Cu562   2.692   .     S
Cu561  O577    1.954   .     S
Cu562  O580    1.923   .     S
Cu562  N575    2.023   .     S
Cu562  O582    1.954   .     S
Cu562  O584    1.942   .     S
Cu562  O578    1.951   .     S
H566   O675    0.990   1_455 S
H567   C680    1.088   .     S
H568   N665    1.029   1_455 S
H570   C638    1.084   1_455 S
H574   C596    1.083   .     S
N575   H613    1.029   .     S
N575   N621    1.287   .     S
N576   N665    1.287   1_455 S
N576   O675    1.338   1_455 S
O585   H611    0.990   .     S
O585   N621    1.338   .     S
C586   O622    1.292   .     A
C586   O623    1.288   .     A
C586   C588    1.428   .     S
C587   C589    1.474   .     S
C587   C599    1.422   .     A
C587   C595    1.402   .     A
C588   C725    1.329   .     S
C588   H745    1.088   .     S
C589   O624    1.305   .     A
C589   O625    1.297   .     A
C590   C591    1.428   .     S
C591   O627    1.292   .     A
C591   O626    1.288   .     A
C592   O628    1.296   .     A
C592   O629    1.302   .     A
C592   C594    1.463   .     S
C593   C605    1.393   .     A
C593   H660    1.084   .     S
C594   C605    1.398   .     A
C594   C604    1.398   .     A
C595   C596    1.387   .     A
C595   H617    1.083   .     S
C596   C193    1.391   1_556 S
C597   C599    1.419   .     A
C597   C193    1.418   1_556 S
C597   C195    1.425   1_556 S
C598   H618    1.077   .     S
C599   C603    1.413   .     A
C600   C604    1.402   .     A
C601   C602    1.391   .     A
C601   C195    1.420   1_556 S
C601   C188    1.405   1_556 S
C602   H614    1.084   .     S
C602   C603    1.387   .     A
C603   H609    1.080   .     S
C604   H616    1.077   .     S
C605   H608    1.083   .     S
Cu606  O628    1.923   .     S
Cu606  O624    1.942   .     S
Cu606  N621    2.023   .     S
Cu606  O626    1.951   .     S
Cu606  Cu607   2.692   .     S
Cu606  O622    1.954   .     S
Cu607  O625    1.923   .     S
Cu607  N620    2.023   .     S
Cu607  O627    1.954   .     S
Cu607  O629    1.942   .     S
Cu607  O623    1.951   .     S
H612   C725    1.088   .     S
H619   C641    1.083   .     S
N620   H658    1.029   .     S
N620   N666    1.287   .     S
O630   H656    0.990   .     S
O630   N666    1.338   .     S
C631   O667    1.292   .     A
C631   O668    1.288   .     A
C631   C633    1.428   .     S
C632   C634    1.474   .     S
C632   C644    1.422   .     A
C632   C640    1.402   .     A
C633   C770    1.329   .     S
C633   H790    1.088   .     S
C634   O669    1.305   .     A
C634   O670    1.297   .     A
C635   C636    1.428   .     S
C636   O672    1.292   .     A
C636   O671    1.288   .     A
C637   O673    1.296   .     A
C637   O674    1.302   .     A
C637   C639    1.463   .     S
C638   C650    1.393   .     A
C638   H570    1.084   1_655 S
C639   C650    1.398   .     A
C639   C649    1.398   .     A
C640   C641    1.387   .     A
C640   H662    1.083   .     S
C641   C238    1.391   1_556 S
C642   C644    1.419   .     A
C642   C238    1.418   1_556 S
C642   C240    1.425   1_556 S
C643   H663    1.077   .     S
C644   C648    1.413   .     A
C645   C649    1.402   .     A
C646   C647    1.391   .     A
C646   C240    1.420   1_556 S
C646   C233    1.405   1_556 S
C647   H659    1.084   .     S
C647   C648    1.387   .     A
C648   H654    1.080   .     S
C649   H661    1.077   .     S
C650   H653    1.083   .     S
Cu651  O673    1.923   .     S
Cu651  O669    1.942   .     S
Cu651  N666    2.023   .     S
Cu651  O671    1.951   .     S
Cu651  Cu652   2.692   .     S
Cu651  O667    1.954   .     S
Cu652  O670    1.923   .     S
Cu652  N665    2.023   .     S
Cu652  O672    1.954   .     S
Cu652  O674    1.942   .     S
Cu652  O668    1.951   .     S
H657   C770    1.088   .     S
H664   C551    1.083   1_655 S
N665   H568    1.029   1_655 S
N665   N576    1.287   1_655 S
O675   H566    0.990   1_655 S
O675   N576    1.338   1_655 S
C676   O712    1.292   .     A
C676   O713    1.288   .     A
C676   C678    1.428   .     S
C677   C679    1.474   .     S
C677   C689    1.422   .     A
C677   C685    1.402   .     A
C678   C410    1.329   1_565 S
C678   H430    1.088   1_565 S
C679   O714    1.305   .     A
C679   O715    1.297   .     A
C680   C681    1.428   .     S
C681   O717    1.292   .     A
C681   O716    1.288   .     A
C682   O718    1.296   .     A
C682   O719    1.302   .     A
C682   C684    1.463   .     S
C683   C695    1.393   .     A
C683   H750    1.084   .     S
C684   C695    1.398   .     A
C684   C694    1.398   .     A
C685   C686    1.387   .     A
C685   H707    1.083   .     S
C686   C283    1.391   1_556 S
C686   H799    1.083   1_455 S
C687   C689    1.419   .     A
C687   C283    1.418   1_556 S
C687   C285    1.425   1_556 S
C688   H708    1.077   .     S
C689   C693    1.413   .     A
C690   C694    1.402   .     A
C691   C692    1.391   .     A
C691   C285    1.420   1_556 S
C691   C278    1.405   1_556 S
C692   H704    1.084   .     S
C692   C693    1.387   .     A
C693   H699    1.080   .     S
C694   H706    1.077   .     S
C695   H698    1.083   .     S
Cu696  O718    1.923   .     S
Cu696  O714    1.942   .     S
Cu696  N711    2.023   .     S
Cu696  O716    1.951   .     S
Cu696  Cu697   2.692   .     S
Cu696  O712    1.954   .     S
Cu697  O715    1.923   .     S
Cu697  N710    2.023   .     S
Cu697  O717    1.954   .     S
Cu697  O719    1.942   .     S
Cu697  O713    1.951   .     S
H701   O810    0.990   1_455 S
H702   C410    1.088   1_565 S
H703   N800    1.029   1_455 S
H705   C773    1.084   1_455 S
H709   C731    1.083   .     S
N710   H748    1.029   .     S
N710   N756    1.287   .     S
N711   N800    1.287   1_455 S
N711   O810    1.338   1_455 S
O720   H746    0.990   .     S
O720   N756    1.338   .     S
C721   O757    1.292   .     A
C721   O758    1.288   .     A
C721   C723    1.428   .     S
C722   C724    1.474   .     S
C722   C734    1.422   .     A
C722   C730    1.402   .     A
C723   C455    1.329   1_565 S
C723   H475    1.088   1_565 S
C724   O759    1.305   .     A
C724   O760    1.297   .     A
C725   C726    1.428   .     S
C726   O762    1.292   .     A
C726   O761    1.288   .     A
C727   O763    1.296   .     A
C727   O764    1.302   .     A
C727   C729    1.463   .     S
C728   C740    1.393   .     A
C728   H795    1.084   .     S
C729   C740    1.398   .     A
C729   C739    1.398   .     A
C730   C731    1.387   .     A
C730   H752    1.083   .     S
C731   C328    1.391   1_556 S
C732   C734    1.419   .     A
C732   C328    1.418   1_556 S
C732   C330    1.425   1_556 S
C733   H753    1.077   .     S
C734   C738    1.413   .     A
C735   C739    1.402   .     A
C736   C737    1.391   .     A
C736   C330    1.420   1_556 S
C736   C323    1.405   1_556 S
C737   H749    1.084   .     S
C737   C738    1.387   .     A
C738   H744    1.080   .     S
C739   H751    1.077   .     S
C740   H743    1.083   .     S
Cu741  O763    1.923   .     S
Cu741  O759    1.942   .     S
Cu741  N756    2.023   .     S
Cu741  O761    1.951   .     S
Cu741  Cu742   2.692   .     S
Cu741  O757    1.954   .     S
Cu742  O760    1.923   .     S
Cu742  N755    2.023   .     S
Cu742  O762    1.954   .     S
Cu742  O764    1.942   .     S
Cu742  O758    1.951   .     S
H747   C455    1.088   1_565 S
H754   C776    1.083   .     S
N755   H793    1.029   .     S
N755   N801    1.287   .     S
O765   H791    0.990   .     S
O765   N801    1.338   .     S
C766   O802    1.292   .     A
C766   O803    1.288   .     A
C766   C768    1.428   .     S
C767   C769    1.474   .     S
C767   C779    1.422   .     A
C767   C775    1.402   .     A
C768   C500    1.329   1_565 S
C768   H520    1.088   1_565 S
C769   O804    1.305   .     A
C769   O805    1.297   .     A
C770   C771    1.428   .     S
C771   O807    1.292   .     A
C771   O806    1.288   .     A
C772   O808    1.296   .     A
C772   O809    1.302   .     A
C772   C774    1.463   .     S
C773   C785    1.393   .     A
C773   H705    1.084   1_655 S
C774   C785    1.398   .     A
C774   C784    1.398   .     A
C775   C776    1.387   .     A
C775   H797    1.083   .     S
C776   C373    1.391   1_556 S
C777   C779    1.419   .     A
C777   C373    1.418   1_556 S
C777   C375    1.425   1_556 S
C778   H798    1.077   .     S
C779   C783    1.413   .     A
C780   C784    1.402   .     A
C781   C782    1.391   .     A
C781   C375    1.420   1_556 S
C781   C368    1.405   1_556 S
C782   H794    1.084   .     S
C782   C783    1.387   .     A
C783   H789    1.080   .     S
C784   H796    1.077   .     S
C785   H788    1.083   .     S
Cu786  O808    1.923   .     S
Cu786  O804    1.942   .     S
Cu786  N801    2.023   .     S
Cu786  O806    1.951   .     S
Cu786  Cu787   2.692   .     S
Cu786  O802    1.954   .     S
Cu787  O805    1.923   .     S
Cu787  N800    2.023   .     S
Cu787  O807    1.954   .     S
Cu787  O809    1.942   .     S
Cu787  O803    1.951   .     S
H792   C500    1.088   1_565 S
H799   C686    1.083   1_655 S
N800   H703    1.029   1_655 S
N800   N711    1.287   1_655 S
O810   H701    0.990   1_655 S
O810   N711    1.338   1_655 S
