data_str_m2_o5_o17_pcu_sym.42
_audit_creation_date              2020-01-03
_audit_creation_method            'Materials Studio'
_symmetry_space_group_name_H-M    'P1'
_symmetry_Int_Tables_number       1
_symmetry_cell_setting            triclinic
loop_
_symmetry_equiv_pos_as_xyz
  x,y,z
_cell_length_a                    30.1781
_cell_length_b                    27.2832
_cell_length_c                    23.3446
_cell_angle_alpha                 89.9974
_cell_angle_beta                  89.9999
_cell_angle_gamma                 90.0000
loop_
_atom_site_label
_atom_site_type_symbol
_atom_site_fract_x
_atom_site_fract_y
_atom_site_fract_z
_atom_site_U_iso_or_equiv
_atom_site_adp_type
_atom_site_occupancy
O1     O     0.25000   0.09613   0.21425   0.00000  Uiso   1.00
O2     O     0.25000   0.23720   0.11908   0.00000  Uiso   1.00
O3     O     0.25000   0.23720   0.21425   0.00000  Uiso   1.00
O4     O     0.25000   0.09613   0.11908   0.00000  Uiso   1.00
C5     C     0.25000   0.07334   0.16667   0.00000  Uiso   1.00
C6     C     0.25000   0.26000   0.16667   0.00000  Uiso   1.00
O7     O     0.18513   0.16667   0.21427   0.00000  Uiso   1.00
O8     O     0.31487   0.16667   0.11907   0.00000  Uiso   1.00
O9     O     0.31487   0.16667   0.21427   0.00000  Uiso   1.00
O10    O     0.18513   0.16667   0.11907   0.00000  Uiso   1.00
C11    C     0.16413   0.16667   0.16667   0.00000  Uiso   1.00
C12    C     0.33587   0.16667   0.16667   0.00000  Uiso   1.00
Cu13   Cu    0.25000   0.16667   0.22303   0.00000  Uiso   1.00
Cu14   Cu    0.25000   0.16667   0.11031   0.00000  Uiso   1.00
N15    N     0.25000   0.16667   0.02561   0.00000  Uiso   1.00
N16    N     0.25000   0.16667   0.30773   0.00000  Uiso   1.00
C17    C     0.40709   0.18555   0.21359   0.00000  Uiso   1.00
C18    C     0.09291   0.14778   0.11974   0.00000  Uiso   1.00
C19    C     0.40709   0.14778   0.11974   0.00000  Uiso   1.00
C20    C     0.09291   0.18555   0.21359   0.00000  Uiso   1.00
C21    C     0.38415   0.16667   0.16667   0.00000  Uiso   1.00
C22    C     0.11585   0.16667   0.16667   0.00000  Uiso   1.00
C23    C     0.45343   0.14689   0.11923   0.00000  Uiso   1.00
C24    C     0.04657   0.18644   0.21411   0.00000  Uiso   1.00
C25    C     0.45343   0.18644   0.21410   0.00000  Uiso   1.00
C26    C     0.04657   0.14689   0.11923   0.00000  Uiso   1.00
C27    C     0.47675   0.16667   0.16667   0.00000  Uiso   1.00
C28    C     0.02325   0.16667   0.16667   0.00000  Uiso   1.00
C29    C     0.47678   0.12654   0.07253   0.00000  Uiso   1.00
C30    C     0.02322   0.20679   0.26080   0.00000  Uiso   1.00
C31    C     0.47678   0.20679   0.26080   0.00000  Uiso   1.00
C32    C     0.02322   0.12654   0.07253   0.00000  Uiso   1.00
C33    C     0.25000   0.02179   0.16667   0.00000  Uiso   1.00
C34    C     0.25000   0.31154   0.16667   0.00000  Uiso   1.00
H35    H     0.38827   0.20014   0.24915   0.00000  Uiso   1.00
H36    H     0.11173   0.13319   0.08418   0.00000  Uiso   1.00
H37    H     0.38827   0.13319   0.08418   0.00000  Uiso   1.00
H38    H     0.11173   0.20014   0.24915   0.00000  Uiso   1.00
Cl39   Cl    0.44840   0.10021   0.01354   0.00000  Uiso   1.00
Cl40   Cl    0.05160   0.23312   0.31979   0.00000  Uiso   1.00
Cl41   Cl    0.44840   0.23312   0.31979   0.00000  Uiso   1.00
Cl42   Cl    0.05160   0.10021   0.01355   0.00000  Uiso   1.00
O43    O     0.75000   0.09613   0.21425   0.00000  Uiso   1.00
O44    O     0.75000   0.23720   0.11908   0.00000  Uiso   1.00
O45    O     0.75000   0.23720   0.21425   0.00000  Uiso   1.00
O46    O     0.75000   0.09613   0.11908   0.00000  Uiso   1.00
C47    C     0.75000   0.07334   0.16667   0.00000  Uiso   1.00
C48    C     0.75000   0.26000   0.16667   0.00000  Uiso   1.00
O49    O     0.68513   0.16667   0.21427   0.00000  Uiso   1.00
O50    O     0.81487   0.16667   0.11907   0.00000  Uiso   1.00
O51    O     0.81487   0.16667   0.21427   0.00000  Uiso   1.00
O52    O     0.68513   0.16667   0.11907   0.00000  Uiso   1.00
C53    C     0.66413   0.16667   0.16667   0.00000  Uiso   1.00
C54    C     0.83587   0.16667   0.16667   0.00000  Uiso   1.00
Cu55   Cu    0.75000   0.16667   0.22303   0.00000  Uiso   1.00
Cu56   Cu    0.75000   0.16667   0.11031   0.00000  Uiso   1.00
N57    N     0.75000   0.16667   0.02561   0.00000  Uiso   1.00
N58    N     0.75000   0.16667   0.30773   0.00000  Uiso   1.00
C59    C     0.90709   0.18555   0.21359   0.00000  Uiso   1.00
C60    C     0.59291   0.14778   0.11974   0.00000  Uiso   1.00
C61    C     0.90709   0.14778   0.11974   0.00000  Uiso   1.00
C62    C     0.59291   0.18555   0.21359   0.00000  Uiso   1.00
C63    C     0.88415   0.16667   0.16667   0.00000  Uiso   1.00
C64    C     0.61585   0.16667   0.16667   0.00000  Uiso   1.00
C65    C     0.95343   0.14689   0.11923   0.00000  Uiso   1.00
C66    C     0.54657   0.18644   0.21411   0.00000  Uiso   1.00
C67    C     0.95343   0.18644   0.21410   0.00000  Uiso   1.00
C68    C     0.54657   0.14689   0.11923   0.00000  Uiso   1.00
C69    C     0.97675   0.16667   0.16667   0.00000  Uiso   1.00
C70    C     0.52325   0.16667   0.16667   0.00000  Uiso   1.00
C71    C     0.97678   0.12654   0.07253   0.00000  Uiso   1.00
C72    C     0.52322   0.20679   0.26080   0.00000  Uiso   1.00
C73    C     0.97678   0.20679   0.26080   0.00000  Uiso   1.00
C74    C     0.52322   0.12654   0.07253   0.00000  Uiso   1.00
C75    C     0.75000   0.02179   0.16667   0.00000  Uiso   1.00
C76    C     0.75000   0.31154   0.16667   0.00000  Uiso   1.00
H77    H     0.88827   0.20014   0.24915   0.00000  Uiso   1.00
H78    H     0.61173   0.13319   0.08418   0.00000  Uiso   1.00
H79    H     0.88827   0.13319   0.08418   0.00000  Uiso   1.00
H80    H     0.61173   0.20014   0.24915   0.00000  Uiso   1.00
Cl81   Cl    0.94840   0.10021   0.01354   0.00000  Uiso   1.00
Cl82   Cl    0.55160   0.23312   0.31979   0.00000  Uiso   1.00
Cl83   Cl    0.94840   0.23312   0.31979   0.00000  Uiso   1.00
Cl84   Cl    0.55160   0.10021   0.01355   0.00000  Uiso   1.00
O85    O     0.25000   0.42946   0.21425   0.00000  Uiso   1.00
O86    O     0.25000   0.57054   0.11908   0.00000  Uiso   1.00
O87    O     0.25000   0.57054   0.21425   0.00000  Uiso   1.00
O88    O     0.25000   0.42946   0.11908   0.00000  Uiso   1.00
C89    C     0.25000   0.40667   0.16667   0.00000  Uiso   1.00
C90    C     0.25000   0.59333   0.16667   0.00000  Uiso   1.00
O91    O     0.18513   0.50000   0.21427   0.00000  Uiso   1.00
O92    O     0.31487   0.50000   0.11907   0.00000  Uiso   1.00
O93    O     0.31487   0.50000   0.21427   0.00000  Uiso   1.00
O94    O     0.18513   0.50000   0.11907   0.00000  Uiso   1.00
C95    C     0.16413   0.50000   0.16667   0.00000  Uiso   1.00
C96    C     0.33587   0.50000   0.16667   0.00000  Uiso   1.00
Cu97   Cu    0.25000   0.50000   0.22303   0.00000  Uiso   1.00
Cu98   Cu    0.25000   0.50000   0.11031   0.00000  Uiso   1.00
N99    N     0.25000   0.50000   0.02561   0.00000  Uiso   1.00
N100   N     0.25000   0.50000   0.30773   0.00000  Uiso   1.00
C101   C     0.40709   0.51889   0.21359   0.00000  Uiso   1.00
C102   C     0.09291   0.48111   0.11974   0.00000  Uiso   1.00
C103   C     0.40709   0.48111   0.11974   0.00000  Uiso   1.00
C104   C     0.09291   0.51889   0.21359   0.00000  Uiso   1.00
C105   C     0.38415   0.50000   0.16667   0.00000  Uiso   1.00
C106   C     0.11585   0.50000   0.16667   0.00000  Uiso   1.00
C107   C     0.45343   0.48023   0.11923   0.00000  Uiso   1.00
C108   C     0.04657   0.51977   0.21411   0.00000  Uiso   1.00
C109   C     0.45343   0.51977   0.21410   0.00000  Uiso   1.00
C110   C     0.04657   0.48023   0.11923   0.00000  Uiso   1.00
C111   C     0.47675   0.50000   0.16667   0.00000  Uiso   1.00
C112   C     0.02325   0.50000   0.16667   0.00000  Uiso   1.00
C113   C     0.47678   0.45988   0.07253   0.00000  Uiso   1.00
C114   C     0.02322   0.54012   0.26080   0.00000  Uiso   1.00
C115   C     0.47678   0.54012   0.26080   0.00000  Uiso   1.00
C116   C     0.02322   0.45987   0.07253   0.00000  Uiso   1.00
C117   C     0.25000   0.35512   0.16667   0.00000  Uiso   1.00
C118   C     0.25000   0.64488   0.16667   0.00000  Uiso   1.00
H119   H     0.38827   0.53347   0.24915   0.00000  Uiso   1.00
H120   H     0.11173   0.46653   0.08418   0.00000  Uiso   1.00
H121   H     0.38827   0.46652   0.08418   0.00000  Uiso   1.00
H122   H     0.11173   0.53347   0.24915   0.00000  Uiso   1.00
Cl123  Cl    0.44840   0.43355   0.01354   0.00000  Uiso   1.00
Cl124  Cl    0.05160   0.56645   0.31979   0.00000  Uiso   1.00
Cl125  Cl    0.44840   0.56645   0.31979   0.00000  Uiso   1.00
Cl126  Cl    0.05160   0.43354   0.01355   0.00000  Uiso   1.00
O127   O     0.75000   0.42946   0.21425   0.00000  Uiso   1.00
O128   O     0.75000   0.57054   0.11908   0.00000  Uiso   1.00
O129   O     0.75000   0.57054   0.21425   0.00000  Uiso   1.00
O130   O     0.75000   0.42946   0.11908   0.00000  Uiso   1.00
C131   C     0.75000   0.40667   0.16667   0.00000  Uiso   1.00
C132   C     0.75000   0.59333   0.16667   0.00000  Uiso   1.00
O133   O     0.68513   0.50000   0.21427   0.00000  Uiso   1.00
O134   O     0.81487   0.50000   0.11907   0.00000  Uiso   1.00
O135   O     0.81487   0.50000   0.21427   0.00000  Uiso   1.00
O136   O     0.68513   0.50000   0.11907   0.00000  Uiso   1.00
C137   C     0.66413   0.50000   0.16667   0.00000  Uiso   1.00
C138   C     0.83587   0.50000   0.16667   0.00000  Uiso   1.00
Cu139  Cu    0.75000   0.50000   0.22303   0.00000  Uiso   1.00
Cu140  Cu    0.75000   0.50000   0.11031   0.00000  Uiso   1.00
N141   N     0.75000   0.50000   0.02561   0.00000  Uiso   1.00
N142   N     0.75000   0.50000   0.30773   0.00000  Uiso   1.00
C143   C     0.90709   0.51889   0.21359   0.00000  Uiso   1.00
C144   C     0.59291   0.48111   0.11974   0.00000  Uiso   1.00
C145   C     0.90709   0.48111   0.11974   0.00000  Uiso   1.00
C146   C     0.59291   0.51889   0.21359   0.00000  Uiso   1.00
C147   C     0.88415   0.50000   0.16667   0.00000  Uiso   1.00
C148   C     0.61585   0.50000   0.16667   0.00000  Uiso   1.00
C149   C     0.95343   0.48023   0.11923   0.00000  Uiso   1.00
C150   C     0.54657   0.51977   0.21411   0.00000  Uiso   1.00
C151   C     0.95343   0.51977   0.21410   0.00000  Uiso   1.00
C152   C     0.54657   0.48023   0.11923   0.00000  Uiso   1.00
C153   C     0.97675   0.50000   0.16667   0.00000  Uiso   1.00
C154   C     0.52325   0.50000   0.16667   0.00000  Uiso   1.00
C155   C     0.97678   0.45988   0.07253   0.00000  Uiso   1.00
C156   C     0.52322   0.54012   0.26080   0.00000  Uiso   1.00
C157   C     0.97678   0.54012   0.26080   0.00000  Uiso   1.00
C158   C     0.52322   0.45987   0.07253   0.00000  Uiso   1.00
C159   C     0.75000   0.35512   0.16667   0.00000  Uiso   1.00
C160   C     0.75000   0.64488   0.16667   0.00000  Uiso   1.00
H161   H     0.88827   0.53347   0.24915   0.00000  Uiso   1.00
H162   H     0.61173   0.46653   0.08418   0.00000  Uiso   1.00
H163   H     0.88827   0.46652   0.08418   0.00000  Uiso   1.00
H164   H     0.61173   0.53347   0.24915   0.00000  Uiso   1.00
Cl165  Cl    0.94840   0.43355   0.01354   0.00000  Uiso   1.00
Cl166  Cl    0.55160   0.56645   0.31979   0.00000  Uiso   1.00
Cl167  Cl    0.94840   0.56645   0.31979   0.00000  Uiso   1.00
Cl168  Cl    0.55160   0.43354   0.01355   0.00000  Uiso   1.00
O169   O     0.25000   0.76280   0.21425   0.00000  Uiso   1.00
O170   O     0.25000   0.90387   0.11908   0.00000  Uiso   1.00
O171   O     0.25000   0.90387   0.21425   0.00000  Uiso   1.00
O172   O     0.25000   0.76280   0.11908   0.00000  Uiso   1.00
C173   C     0.25000   0.74000   0.16667   0.00000  Uiso   1.00
C174   C     0.25000   0.92666   0.16667   0.00000  Uiso   1.00
O175   O     0.18513   0.83333   0.21427   0.00000  Uiso   1.00
O176   O     0.31487   0.83333   0.11907   0.00000  Uiso   1.00
O177   O     0.31487   0.83333   0.21427   0.00000  Uiso   1.00
O178   O     0.18513   0.83333   0.11907   0.00000  Uiso   1.00
C179   C     0.16413   0.83333   0.16667   0.00000  Uiso   1.00
C180   C     0.33587   0.83333   0.16667   0.00000  Uiso   1.00
Cu181  Cu    0.25000   0.83333   0.22303   0.00000  Uiso   1.00
Cu182  Cu    0.25000   0.83333   0.11031   0.00000  Uiso   1.00
N183   N     0.25000   0.83333   0.02561   0.00000  Uiso   1.00
N184   N     0.25000   0.83333   0.30773   0.00000  Uiso   1.00
C185   C     0.40709   0.85222   0.21359   0.00000  Uiso   1.00
C186   C     0.09291   0.81445   0.11974   0.00000  Uiso   1.00
C187   C     0.40709   0.81445   0.11974   0.00000  Uiso   1.00
C188   C     0.09291   0.85222   0.21359   0.00000  Uiso   1.00
C189   C     0.38415   0.83333   0.16667   0.00000  Uiso   1.00
C190   C     0.11585   0.83333   0.16667   0.00000  Uiso   1.00
C191   C     0.45343   0.81356   0.11923   0.00000  Uiso   1.00
C192   C     0.04657   0.85310   0.21411   0.00000  Uiso   1.00
C193   C     0.45343   0.85311   0.21410   0.00000  Uiso   1.00
C194   C     0.04657   0.81356   0.11923   0.00000  Uiso   1.00
C195   C     0.47675   0.83333   0.16667   0.00000  Uiso   1.00
C196   C     0.02325   0.83333   0.16667   0.00000  Uiso   1.00
C197   C     0.47678   0.79321   0.07253   0.00000  Uiso   1.00
C198   C     0.02322   0.87346   0.26080   0.00000  Uiso   1.00
C199   C     0.47678   0.87346   0.26080   0.00000  Uiso   1.00
C200   C     0.02322   0.79321   0.07253   0.00000  Uiso   1.00
C201   C     0.25000   0.68846   0.16667   0.00000  Uiso   1.00
C202   C     0.25000   0.97821   0.16667   0.00000  Uiso   1.00
H203   H     0.38827   0.86681   0.24915   0.00000  Uiso   1.00
H204   H     0.11173   0.79986   0.08418   0.00000  Uiso   1.00
H205   H     0.38827   0.79986   0.08418   0.00000  Uiso   1.00
H206   H     0.11173   0.86681   0.24915   0.00000  Uiso   1.00
Cl207  Cl    0.44840   0.76688   0.01354   0.00000  Uiso   1.00
Cl208  Cl    0.05160   0.89979   0.31979   0.00000  Uiso   1.00
Cl209  Cl    0.44840   0.89979   0.31979   0.00000  Uiso   1.00
Cl210  Cl    0.05160   0.76688   0.01355   0.00000  Uiso   1.00
O211   O     0.75000   0.76280   0.21425   0.00000  Uiso   1.00
O212   O     0.75000   0.90387   0.11908   0.00000  Uiso   1.00
O213   O     0.75000   0.90387   0.21425   0.00000  Uiso   1.00
O214   O     0.75000   0.76280   0.11908   0.00000  Uiso   1.00
C215   C     0.75000   0.74000   0.16667   0.00000  Uiso   1.00
C216   C     0.75000   0.92666   0.16667   0.00000  Uiso   1.00
O217   O     0.68513   0.83333   0.21427   0.00000  Uiso   1.00
O218   O     0.81487   0.83333   0.11907   0.00000  Uiso   1.00
O219   O     0.81487   0.83333   0.21427   0.00000  Uiso   1.00
O220   O     0.68513   0.83333   0.11907   0.00000  Uiso   1.00
C221   C     0.66413   0.83333   0.16667   0.00000  Uiso   1.00
C222   C     0.83587   0.83333   0.16667   0.00000  Uiso   1.00
Cu223  Cu    0.75000   0.83333   0.22303   0.00000  Uiso   1.00
Cu224  Cu    0.75000   0.83333   0.11031   0.00000  Uiso   1.00
N225   N     0.75000   0.83333   0.02561   0.00000  Uiso   1.00
N226   N     0.75000   0.83333   0.30773   0.00000  Uiso   1.00
C227   C     0.90709   0.85222   0.21359   0.00000  Uiso   1.00
C228   C     0.59291   0.81445   0.11974   0.00000  Uiso   1.00
C229   C     0.90709   0.81445   0.11974   0.00000  Uiso   1.00
C230   C     0.59291   0.85222   0.21359   0.00000  Uiso   1.00
C231   C     0.88415   0.83333   0.16667   0.00000  Uiso   1.00
C232   C     0.61585   0.83333   0.16667   0.00000  Uiso   1.00
C233   C     0.95343   0.81356   0.11923   0.00000  Uiso   1.00
C234   C     0.54657   0.85310   0.21411   0.00000  Uiso   1.00
C235   C     0.95343   0.85311   0.21410   0.00000  Uiso   1.00
C236   C     0.54657   0.81356   0.11923   0.00000  Uiso   1.00
C237   C     0.97675   0.83333   0.16667   0.00000  Uiso   1.00
C238   C     0.52325   0.83333   0.16667   0.00000  Uiso   1.00
C239   C     0.97678   0.79321   0.07253   0.00000  Uiso   1.00
C240   C     0.52322   0.87346   0.26080   0.00000  Uiso   1.00
C241   C     0.97678   0.87346   0.26080   0.00000  Uiso   1.00
C242   C     0.52322   0.79321   0.07253   0.00000  Uiso   1.00
C243   C     0.75000   0.68846   0.16667   0.00000  Uiso   1.00
C244   C     0.75000   0.97821   0.16667   0.00000  Uiso   1.00
H245   H     0.88827   0.86681   0.24915   0.00000  Uiso   1.00
H246   H     0.61173   0.79986   0.08418   0.00000  Uiso   1.00
H247   H     0.88827   0.79986   0.08418   0.00000  Uiso   1.00
H248   H     0.61173   0.86681   0.24915   0.00000  Uiso   1.00
Cl249  Cl    0.94840   0.76688   0.01354   0.00000  Uiso   1.00
Cl250  Cl    0.55160   0.89979   0.31979   0.00000  Uiso   1.00
Cl251  Cl    0.94840   0.89979   0.31979   0.00000  Uiso   1.00
Cl252  Cl    0.55160   0.76688   0.01355   0.00000  Uiso   1.00
O253   O     0.25000   0.09613   0.54759   0.00000  Uiso   1.00
O254   O     0.25000   0.23720   0.45241   0.00000  Uiso   1.00
O255   O     0.25000   0.23720   0.54759   0.00000  Uiso   1.00
O256   O     0.25000   0.09613   0.45241   0.00000  Uiso   1.00
C257   C     0.25000   0.07334   0.50000   0.00000  Uiso   1.00
C258   C     0.25000   0.26000   0.50000   0.00000  Uiso   1.00
O259   O     0.18513   0.16667   0.54760   0.00000  Uiso   1.00
O260   O     0.31487   0.16667   0.45240   0.00000  Uiso   1.00
O261   O     0.31487   0.16667   0.54760   0.00000  Uiso   1.00
O262   O     0.18513   0.16667   0.45240   0.00000  Uiso   1.00
C263   C     0.16413   0.16667   0.50000   0.00000  Uiso   1.00
C264   C     0.33587   0.16667   0.50000   0.00000  Uiso   1.00
Cu265  Cu    0.25000   0.16667   0.55636   0.00000  Uiso   1.00
Cu266  Cu    0.25000   0.16667   0.44364   0.00000  Uiso   1.00
N267   N     0.25000   0.16667   0.35894   0.00000  Uiso   1.00
N268   N     0.25000   0.16667   0.64106   0.00000  Uiso   1.00
C269   C     0.40709   0.18555   0.54692   0.00000  Uiso   1.00
C270   C     0.09291   0.14778   0.45308   0.00000  Uiso   1.00
C271   C     0.40709   0.14778   0.45308   0.00000  Uiso   1.00
C272   C     0.09291   0.18555   0.54692   0.00000  Uiso   1.00
C273   C     0.38415   0.16667   0.50000   0.00000  Uiso   1.00
C274   C     0.11585   0.16667   0.50000   0.00000  Uiso   1.00
C275   C     0.45343   0.14689   0.45256   0.00000  Uiso   1.00
C276   C     0.04657   0.18644   0.54744   0.00000  Uiso   1.00
C277   C     0.45343   0.18644   0.54744   0.00000  Uiso   1.00
C278   C     0.04657   0.14689   0.45256   0.00000  Uiso   1.00
C279   C     0.47675   0.16667   0.50000   0.00000  Uiso   1.00
C280   C     0.02325   0.16667   0.50000   0.00000  Uiso   1.00
C281   C     0.47678   0.12654   0.40586   0.00000  Uiso   1.00
C282   C     0.02322   0.20679   0.59414   0.00000  Uiso   1.00
C283   C     0.47678   0.20679   0.59414   0.00000  Uiso   1.00
C284   C     0.02322   0.12654   0.40586   0.00000  Uiso   1.00
C285   C     0.25000   0.02179   0.50000   0.00000  Uiso   1.00
C286   C     0.25000   0.31154   0.50000   0.00000  Uiso   1.00
H287   H     0.38827   0.20014   0.58248   0.00000  Uiso   1.00
H288   H     0.11173   0.13319   0.41751   0.00000  Uiso   1.00
H289   H     0.38827   0.13319   0.41752   0.00000  Uiso   1.00
H290   H     0.11173   0.20014   0.58249   0.00000  Uiso   1.00
Cl291  Cl    0.44840   0.10021   0.34688   0.00000  Uiso   1.00
Cl292  Cl    0.05160   0.23312   0.65312   0.00000  Uiso   1.00
Cl293  Cl    0.44840   0.23312   0.65312   0.00000  Uiso   1.00
Cl294  Cl    0.05160   0.10021   0.34688   0.00000  Uiso   1.00
O295   O     0.75000   0.09613   0.54759   0.00000  Uiso   1.00
O296   O     0.75000   0.23720   0.45241   0.00000  Uiso   1.00
O297   O     0.75000   0.23720   0.54759   0.00000  Uiso   1.00
O298   O     0.75000   0.09613   0.45241   0.00000  Uiso   1.00
C299   C     0.75000   0.07334   0.50000   0.00000  Uiso   1.00
C300   C     0.75000   0.26000   0.50000   0.00000  Uiso   1.00
O301   O     0.68513   0.16667   0.54760   0.00000  Uiso   1.00
O302   O     0.81487   0.16667   0.45240   0.00000  Uiso   1.00
O303   O     0.81487   0.16667   0.54760   0.00000  Uiso   1.00
O304   O     0.68513   0.16667   0.45240   0.00000  Uiso   1.00
C305   C     0.66413   0.16667   0.50000   0.00000  Uiso   1.00
C306   C     0.83587   0.16667   0.50000   0.00000  Uiso   1.00
Cu307  Cu    0.75000   0.16667   0.55636   0.00000  Uiso   1.00
Cu308  Cu    0.75000   0.16667   0.44364   0.00000  Uiso   1.00
N309   N     0.75000   0.16667   0.35894   0.00000  Uiso   1.00
N310   N     0.75000   0.16667   0.64106   0.00000  Uiso   1.00
C311   C     0.90709   0.18555   0.54692   0.00000  Uiso   1.00
C312   C     0.59291   0.14778   0.45308   0.00000  Uiso   1.00
C313   C     0.90709   0.14778   0.45308   0.00000  Uiso   1.00
C314   C     0.59291   0.18555   0.54692   0.00000  Uiso   1.00
C315   C     0.88415   0.16667   0.50000   0.00000  Uiso   1.00
C316   C     0.61585   0.16667   0.50000   0.00000  Uiso   1.00
C317   C     0.95343   0.14689   0.45256   0.00000  Uiso   1.00
C318   C     0.54657   0.18644   0.54744   0.00000  Uiso   1.00
C319   C     0.95343   0.18644   0.54744   0.00000  Uiso   1.00
C320   C     0.54657   0.14689   0.45256   0.00000  Uiso   1.00
C321   C     0.97675   0.16667   0.50000   0.00000  Uiso   1.00
C322   C     0.52325   0.16667   0.50000   0.00000  Uiso   1.00
C323   C     0.97678   0.12654   0.40586   0.00000  Uiso   1.00
C324   C     0.52322   0.20679   0.59414   0.00000  Uiso   1.00
C325   C     0.97678   0.20679   0.59414   0.00000  Uiso   1.00
C326   C     0.52322   0.12654   0.40586   0.00000  Uiso   1.00
C327   C     0.75000   0.02179   0.50000   0.00000  Uiso   1.00
C328   C     0.75000   0.31154   0.50000   0.00000  Uiso   1.00
H329   H     0.88827   0.20014   0.58248   0.00000  Uiso   1.00
H330   H     0.61173   0.13319   0.41751   0.00000  Uiso   1.00
H331   H     0.88827   0.13319   0.41752   0.00000  Uiso   1.00
H332   H     0.61173   0.20014   0.58249   0.00000  Uiso   1.00
Cl333  Cl    0.94840   0.10021   0.34688   0.00000  Uiso   1.00
Cl334  Cl    0.55160   0.23312   0.65312   0.00000  Uiso   1.00
Cl335  Cl    0.94840   0.23312   0.65312   0.00000  Uiso   1.00
Cl336  Cl    0.55160   0.10021   0.34688   0.00000  Uiso   1.00
O337   O     0.25000   0.42946   0.54759   0.00000  Uiso   1.00
O338   O     0.25000   0.57054   0.45241   0.00000  Uiso   1.00
O339   O     0.25000   0.57054   0.54759   0.00000  Uiso   1.00
O340   O     0.25000   0.42946   0.45241   0.00000  Uiso   1.00
C341   C     0.25000   0.40667   0.50000   0.00000  Uiso   1.00
C342   C     0.25000   0.59333   0.50000   0.00000  Uiso   1.00
O343   O     0.18513   0.50000   0.54760   0.00000  Uiso   1.00
O344   O     0.31487   0.50000   0.45240   0.00000  Uiso   1.00
O345   O     0.31487   0.50000   0.54760   0.00000  Uiso   1.00
O346   O     0.18513   0.50000   0.45240   0.00000  Uiso   1.00
C347   C     0.16413   0.50000   0.50000   0.00000  Uiso   1.00
C348   C     0.33587   0.50000   0.50000   0.00000  Uiso   1.00
Cu349  Cu    0.25000   0.50000   0.55636   0.00000  Uiso   1.00
Cu350  Cu    0.25000   0.50000   0.44364   0.00000  Uiso   1.00
N351   N     0.25000   0.50000   0.35894   0.00000  Uiso   1.00
N352   N     0.25000   0.50000   0.64106   0.00000  Uiso   1.00
C353   C     0.40709   0.51889   0.54692   0.00000  Uiso   1.00
C354   C     0.09291   0.48111   0.45308   0.00000  Uiso   1.00
C355   C     0.40709   0.48111   0.45308   0.00000  Uiso   1.00
C356   C     0.09291   0.51889   0.54692   0.00000  Uiso   1.00
C357   C     0.38415   0.50000   0.50000   0.00000  Uiso   1.00
C358   C     0.11585   0.50000   0.50000   0.00000  Uiso   1.00
C359   C     0.45343   0.48023   0.45256   0.00000  Uiso   1.00
C360   C     0.04657   0.51977   0.54744   0.00000  Uiso   1.00
C361   C     0.45343   0.51977   0.54744   0.00000  Uiso   1.00
C362   C     0.04657   0.48023   0.45256   0.00000  Uiso   1.00
C363   C     0.47675   0.50000   0.50000   0.00000  Uiso   1.00
C364   C     0.02325   0.50000   0.50000   0.00000  Uiso   1.00
C365   C     0.47678   0.45988   0.40586   0.00000  Uiso   1.00
C366   C     0.02322   0.54012   0.59414   0.00000  Uiso   1.00
C367   C     0.47678   0.54012   0.59414   0.00000  Uiso   1.00
C368   C     0.02322   0.45987   0.40586   0.00000  Uiso   1.00
C369   C     0.25000   0.35512   0.50000   0.00000  Uiso   1.00
C370   C     0.25000   0.64488   0.50000   0.00000  Uiso   1.00
H371   H     0.38827   0.53347   0.58248   0.00000  Uiso   1.00
H372   H     0.11173   0.46653   0.41751   0.00000  Uiso   1.00
H373   H     0.38827   0.46652   0.41752   0.00000  Uiso   1.00
H374   H     0.11173   0.53347   0.58249   0.00000  Uiso   1.00
Cl375  Cl    0.44840   0.43355   0.34688   0.00000  Uiso   1.00
Cl376  Cl    0.05160   0.56645   0.65312   0.00000  Uiso   1.00
Cl377  Cl    0.44840   0.56645   0.65312   0.00000  Uiso   1.00
Cl378  Cl    0.05160   0.43354   0.34688   0.00000  Uiso   1.00
O379   O     0.75000   0.42946   0.54759   0.00000  Uiso   1.00
O380   O     0.75000   0.57054   0.45241   0.00000  Uiso   1.00
O381   O     0.75000   0.57054   0.54759   0.00000  Uiso   1.00
O382   O     0.75000   0.42946   0.45241   0.00000  Uiso   1.00
C383   C     0.75000   0.40667   0.50000   0.00000  Uiso   1.00
C384   C     0.75000   0.59333   0.50000   0.00000  Uiso   1.00
O385   O     0.68513   0.50000   0.54760   0.00000  Uiso   1.00
O386   O     0.81487   0.50000   0.45240   0.00000  Uiso   1.00
O387   O     0.81487   0.50000   0.54760   0.00000  Uiso   1.00
O388   O     0.68513   0.50000   0.45240   0.00000  Uiso   1.00
C389   C     0.66413   0.50000   0.50000   0.00000  Uiso   1.00
C390   C     0.83587   0.50000   0.50000   0.00000  Uiso   1.00
Cu391  Cu    0.75000   0.50000   0.55636   0.00000  Uiso   1.00
Cu392  Cu    0.75000   0.50000   0.44364   0.00000  Uiso   1.00
N393   N     0.75000   0.50000   0.35894   0.00000  Uiso   1.00
N394   N     0.75000   0.50000   0.64106   0.00000  Uiso   1.00
C395   C     0.90709   0.51889   0.54692   0.00000  Uiso   1.00
C396   C     0.59291   0.48111   0.45308   0.00000  Uiso   1.00
C397   C     0.90709   0.48111   0.45308   0.00000  Uiso   1.00
C398   C     0.59291   0.51889   0.54692   0.00000  Uiso   1.00
C399   C     0.88415   0.50000   0.50000   0.00000  Uiso   1.00
C400   C     0.61585   0.50000   0.50000   0.00000  Uiso   1.00
C401   C     0.95343   0.48023   0.45256   0.00000  Uiso   1.00
C402   C     0.54657   0.51977   0.54744   0.00000  Uiso   1.00
C403   C     0.95343   0.51977   0.54744   0.00000  Uiso   1.00
C404   C     0.54657   0.48023   0.45256   0.00000  Uiso   1.00
C405   C     0.97675   0.50000   0.50000   0.00000  Uiso   1.00
C406   C     0.52325   0.50000   0.50000   0.00000  Uiso   1.00
C407   C     0.97678   0.45988   0.40586   0.00000  Uiso   1.00
C408   C     0.52322   0.54012   0.59414   0.00000  Uiso   1.00
C409   C     0.97678   0.54012   0.59414   0.00000  Uiso   1.00
C410   C     0.52322   0.45987   0.40586   0.00000  Uiso   1.00
C411   C     0.75000   0.35512   0.50000   0.00000  Uiso   1.00
C412   C     0.75000   0.64488   0.50000   0.00000  Uiso   1.00
H413   H     0.88827   0.53347   0.58248   0.00000  Uiso   1.00
H414   H     0.61173   0.46653   0.41751   0.00000  Uiso   1.00
H415   H     0.88827   0.46652   0.41752   0.00000  Uiso   1.00
H416   H     0.61173   0.53347   0.58249   0.00000  Uiso   1.00
Cl417  Cl    0.94840   0.43355   0.34688   0.00000  Uiso   1.00
Cl418  Cl    0.55160   0.56645   0.65312   0.00000  Uiso   1.00
Cl419  Cl    0.94840   0.56645   0.65312   0.00000  Uiso   1.00
Cl420  Cl    0.55160   0.43354   0.34688   0.00000  Uiso   1.00
O421   O     0.25000   0.76280   0.54759   0.00000  Uiso   1.00
O422   O     0.25000   0.90387   0.45241   0.00000  Uiso   1.00
O423   O     0.25000   0.90387   0.54759   0.00000  Uiso   1.00
O424   O     0.25000   0.76280   0.45241   0.00000  Uiso   1.00
C425   C     0.25000   0.74000   0.50000   0.00000  Uiso   1.00
C426   C     0.25000   0.92666   0.50000   0.00000  Uiso   1.00
O427   O     0.18513   0.83333   0.54760   0.00000  Uiso   1.00
O428   O     0.31487   0.83333   0.45240   0.00000  Uiso   1.00
O429   O     0.31487   0.83333   0.54760   0.00000  Uiso   1.00
O430   O     0.18513   0.83333   0.45240   0.00000  Uiso   1.00
C431   C     0.16413   0.83333   0.50000   0.00000  Uiso   1.00
C432   C     0.33587   0.83333   0.50000   0.00000  Uiso   1.00
Cu433  Cu    0.25000   0.83333   0.55636   0.00000  Uiso   1.00
Cu434  Cu    0.25000   0.83333   0.44364   0.00000  Uiso   1.00
N435   N     0.25000   0.83333   0.35894   0.00000  Uiso   1.00
N436   N     0.25000   0.83333   0.64106   0.00000  Uiso   1.00
C437   C     0.40709   0.85222   0.54692   0.00000  Uiso   1.00
C438   C     0.09291   0.81445   0.45308   0.00000  Uiso   1.00
C439   C     0.40709   0.81445   0.45308   0.00000  Uiso   1.00
C440   C     0.09291   0.85222   0.54692   0.00000  Uiso   1.00
C441   C     0.38415   0.83333   0.50000   0.00000  Uiso   1.00
C442   C     0.11585   0.83333   0.50000   0.00000  Uiso   1.00
C443   C     0.45343   0.81356   0.45256   0.00000  Uiso   1.00
C444   C     0.04657   0.85310   0.54744   0.00000  Uiso   1.00
C445   C     0.45343   0.85311   0.54744   0.00000  Uiso   1.00
C446   C     0.04657   0.81356   0.45256   0.00000  Uiso   1.00
C447   C     0.47675   0.83333   0.50000   0.00000  Uiso   1.00
C448   C     0.02325   0.83333   0.50000   0.00000  Uiso   1.00
C449   C     0.47678   0.79321   0.40586   0.00000  Uiso   1.00
C450   C     0.02322   0.87346   0.59414   0.00000  Uiso   1.00
C451   C     0.47678   0.87346   0.59414   0.00000  Uiso   1.00
C452   C     0.02322   0.79321   0.40586   0.00000  Uiso   1.00
C453   C     0.25000   0.68846   0.50000   0.00000  Uiso   1.00
C454   C     0.25000   0.97821   0.50000   0.00000  Uiso   1.00
H455   H     0.38827   0.86681   0.58248   0.00000  Uiso   1.00
H456   H     0.11173   0.79986   0.41751   0.00000  Uiso   1.00
H457   H     0.38827   0.79986   0.41752   0.00000  Uiso   1.00
H458   H     0.11173   0.86681   0.58249   0.00000  Uiso   1.00
Cl459  Cl    0.44840   0.76688   0.34688   0.00000  Uiso   1.00
Cl460  Cl    0.05160   0.89979   0.65312   0.00000  Uiso   1.00
Cl461  Cl    0.44840   0.89979   0.65312   0.00000  Uiso   1.00
Cl462  Cl    0.05160   0.76688   0.34688   0.00000  Uiso   1.00
O463   O     0.75000   0.76280   0.54759   0.00000  Uiso   1.00
O464   O     0.75000   0.90387   0.45241   0.00000  Uiso   1.00
O465   O     0.75000   0.90387   0.54759   0.00000  Uiso   1.00
O466   O     0.75000   0.76280   0.45241   0.00000  Uiso   1.00
C467   C     0.75000   0.74000   0.50000   0.00000  Uiso   1.00
C468   C     0.75000   0.92666   0.50000   0.00000  Uiso   1.00
O469   O     0.68513   0.83333   0.54760   0.00000  Uiso   1.00
O470   O     0.81487   0.83333   0.45240   0.00000  Uiso   1.00
O471   O     0.81487   0.83333   0.54760   0.00000  Uiso   1.00
O472   O     0.68513   0.83333   0.45240   0.00000  Uiso   1.00
C473   C     0.66413   0.83333   0.50000   0.00000  Uiso   1.00
C474   C     0.83587   0.83333   0.50000   0.00000  Uiso   1.00
Cu475  Cu    0.75000   0.83333   0.55636   0.00000  Uiso   1.00
Cu476  Cu    0.75000   0.83333   0.44364   0.00000  Uiso   1.00
N477   N     0.75000   0.83333   0.35894   0.00000  Uiso   1.00
N478   N     0.75000   0.83333   0.64106   0.00000  Uiso   1.00
C479   C     0.90709   0.85222   0.54692   0.00000  Uiso   1.00
C480   C     0.59291   0.81445   0.45308   0.00000  Uiso   1.00
C481   C     0.90709   0.81445   0.45308   0.00000  Uiso   1.00
C482   C     0.59291   0.85222   0.54692   0.00000  Uiso   1.00
C483   C     0.88415   0.83333   0.50000   0.00000  Uiso   1.00
C484   C     0.61585   0.83333   0.50000   0.00000  Uiso   1.00
C485   C     0.95343   0.81356   0.45256   0.00000  Uiso   1.00
C486   C     0.54657   0.85310   0.54744   0.00000  Uiso   1.00
C487   C     0.95343   0.85311   0.54744   0.00000  Uiso   1.00
C488   C     0.54657   0.81356   0.45256   0.00000  Uiso   1.00
C489   C     0.97675   0.83333   0.50000   0.00000  Uiso   1.00
C490   C     0.52325   0.83333   0.50000   0.00000  Uiso   1.00
C491   C     0.97678   0.79321   0.40586   0.00000  Uiso   1.00
C492   C     0.52322   0.87346   0.59414   0.00000  Uiso   1.00
C493   C     0.97678   0.87346   0.59414   0.00000  Uiso   1.00
C494   C     0.52322   0.79321   0.40586   0.00000  Uiso   1.00
C495   C     0.75000   0.68846   0.50000   0.00000  Uiso   1.00
C496   C     0.75000   0.97821   0.50000   0.00000  Uiso   1.00
H497   H     0.88827   0.86681   0.58248   0.00000  Uiso   1.00
H498   H     0.61173   0.79986   0.41751   0.00000  Uiso   1.00
H499   H     0.88827   0.79986   0.41752   0.00000  Uiso   1.00
H500   H     0.61173   0.86681   0.58249   0.00000  Uiso   1.00
Cl501  Cl    0.94840   0.76688   0.34688   0.00000  Uiso   1.00
Cl502  Cl    0.55160   0.89979   0.65312   0.00000  Uiso   1.00
Cl503  Cl    0.94840   0.89979   0.65312   0.00000  Uiso   1.00
Cl504  Cl    0.55160   0.76688   0.34688   0.00000  Uiso   1.00
O505   O     0.25000   0.09613   0.88092   0.00000  Uiso   1.00
O506   O     0.25000   0.23720   0.78575   0.00000  Uiso   1.00
O507   O     0.25000   0.23720   0.88092   0.00000  Uiso   1.00
O508   O     0.25000   0.09613   0.78575   0.00000  Uiso   1.00
C509   C     0.25000   0.07334   0.83333   0.00000  Uiso   1.00
C510   C     0.25000   0.26000   0.83333   0.00000  Uiso   1.00
O511   O     0.18513   0.16667   0.88093   0.00000  Uiso   1.00
O512   O     0.31487   0.16667   0.78573   0.00000  Uiso   1.00
O513   O     0.31487   0.16667   0.88093   0.00000  Uiso   1.00
O514   O     0.18513   0.16667   0.78573   0.00000  Uiso   1.00
C515   C     0.16413   0.16667   0.83333   0.00000  Uiso   1.00
C516   C     0.33587   0.16667   0.83333   0.00000  Uiso   1.00
Cu517  Cu    0.25000   0.16667   0.88969   0.00000  Uiso   1.00
Cu518  Cu    0.25000   0.16667   0.77697   0.00000  Uiso   1.00
N519   N     0.25000   0.16667   0.69227   0.00000  Uiso   1.00
N520   N     0.25000   0.16667   0.97439   0.00000  Uiso   1.00
C521   C     0.40709   0.18555   0.88026   0.00000  Uiso   1.00
C522   C     0.09291   0.14778   0.78641   0.00000  Uiso   1.00
C523   C     0.40709   0.14778   0.78641   0.00000  Uiso   1.00
C524   C     0.09291   0.18555   0.88026   0.00000  Uiso   1.00
C525   C     0.38415   0.16667   0.83333   0.00000  Uiso   1.00
C526   C     0.11585   0.16667   0.83333   0.00000  Uiso   1.00
C527   C     0.45343   0.14689   0.78589   0.00000  Uiso   1.00
C528   C     0.04657   0.18644   0.88077   0.00000  Uiso   1.00
C529   C     0.45343   0.18644   0.88077   0.00000  Uiso   1.00
C530   C     0.04657   0.14689   0.78590   0.00000  Uiso   1.00
C531   C     0.47675   0.16667   0.83333   0.00000  Uiso   1.00
C532   C     0.02325   0.16667   0.83333   0.00000  Uiso   1.00
C533   C     0.47678   0.12654   0.73920   0.00000  Uiso   1.00
C534   C     0.02322   0.20679   0.92747   0.00000  Uiso   1.00
C535   C     0.47678   0.20679   0.92747   0.00000  Uiso   1.00
C536   C     0.02322   0.12654   0.73920   0.00000  Uiso   1.00
C537   C     0.25000   0.02179   0.83333   0.00000  Uiso   1.00
C538   C     0.25000   0.31154   0.83333   0.00000  Uiso   1.00
H539   H     0.38827   0.20014   0.91582   0.00000  Uiso   1.00
H540   H     0.11173   0.13319   0.75085   0.00000  Uiso   1.00
H541   H     0.38827   0.13319   0.75085   0.00000  Uiso   1.00
H542   H     0.11173   0.20014   0.91582   0.00000  Uiso   1.00
Cl543  Cl    0.44840   0.10021   0.68021   0.00000  Uiso   1.00
Cl544  Cl    0.05160   0.23312   0.98645   0.00000  Uiso   1.00
Cl545  Cl    0.44840   0.23312   0.98645   0.00000  Uiso   1.00
Cl546  Cl    0.05160   0.10021   0.68022   0.00000  Uiso   1.00
O547   O     0.75000   0.09613   0.88092   0.00000  Uiso   1.00
O548   O     0.75000   0.23720   0.78575   0.00000  Uiso   1.00
O549   O     0.75000   0.23720   0.88092   0.00000  Uiso   1.00
O550   O     0.75000   0.09613   0.78575   0.00000  Uiso   1.00
C551   C     0.75000   0.07334   0.83333   0.00000  Uiso   1.00
C552   C     0.75000   0.26000   0.83333   0.00000  Uiso   1.00
O553   O     0.68513   0.16667   0.88093   0.00000  Uiso   1.00
O554   O     0.81487   0.16667   0.78573   0.00000  Uiso   1.00
O555   O     0.81487   0.16667   0.88093   0.00000  Uiso   1.00
O556   O     0.68513   0.16667   0.78573   0.00000  Uiso   1.00
C557   C     0.66413   0.16667   0.83333   0.00000  Uiso   1.00
C558   C     0.83587   0.16667   0.83333   0.00000  Uiso   1.00
Cu559  Cu    0.75000   0.16667   0.88969   0.00000  Uiso   1.00
Cu560  Cu    0.75000   0.16667   0.77697   0.00000  Uiso   1.00
N561   N     0.75000   0.16667   0.69227   0.00000  Uiso   1.00
N562   N     0.75000   0.16667   0.97439   0.00000  Uiso   1.00
C563   C     0.90709   0.18555   0.88026   0.00000  Uiso   1.00
C564   C     0.59291   0.14778   0.78641   0.00000  Uiso   1.00
C565   C     0.90709   0.14778   0.78641   0.00000  Uiso   1.00
C566   C     0.59291   0.18555   0.88026   0.00000  Uiso   1.00
C567   C     0.88415   0.16667   0.83333   0.00000  Uiso   1.00
C568   C     0.61585   0.16667   0.83333   0.00000  Uiso   1.00
C569   C     0.95343   0.14689   0.78589   0.00000  Uiso   1.00
C570   C     0.54657   0.18644   0.88077   0.00000  Uiso   1.00
C571   C     0.95343   0.18644   0.88077   0.00000  Uiso   1.00
C572   C     0.54657   0.14689   0.78590   0.00000  Uiso   1.00
C573   C     0.97675   0.16667   0.83333   0.00000  Uiso   1.00
C574   C     0.52325   0.16667   0.83333   0.00000  Uiso   1.00
C575   C     0.97678   0.12654   0.73920   0.00000  Uiso   1.00
C576   C     0.52322   0.20679   0.92747   0.00000  Uiso   1.00
C577   C     0.97678   0.20679   0.92747   0.00000  Uiso   1.00
C578   C     0.52322   0.12654   0.73920   0.00000  Uiso   1.00
C579   C     0.75000   0.02179   0.83333   0.00000  Uiso   1.00
C580   C     0.75000   0.31154   0.83333   0.00000  Uiso   1.00
H581   H     0.88827   0.20014   0.91582   0.00000  Uiso   1.00
H582   H     0.61173   0.13319   0.75085   0.00000  Uiso   1.00
H583   H     0.88827   0.13319   0.75085   0.00000  Uiso   1.00
H584   H     0.61173   0.20014   0.91582   0.00000  Uiso   1.00
Cl585  Cl    0.94840   0.10021   0.68021   0.00000  Uiso   1.00
Cl586  Cl    0.55160   0.23312   0.98645   0.00000  Uiso   1.00
Cl587  Cl    0.94840   0.23312   0.98645   0.00000  Uiso   1.00
Cl588  Cl    0.55160   0.10021   0.68022   0.00000  Uiso   1.00
O589   O     0.25000   0.42946   0.88092   0.00000  Uiso   1.00
O590   O     0.25000   0.57054   0.78575   0.00000  Uiso   1.00
O591   O     0.25000   0.57054   0.88092   0.00000  Uiso   1.00
O592   O     0.25000   0.42946   0.78575   0.00000  Uiso   1.00
C593   C     0.25000   0.40667   0.83333   0.00000  Uiso   1.00
C594   C     0.25000   0.59333   0.83333   0.00000  Uiso   1.00
O595   O     0.18513   0.50000   0.88093   0.00000  Uiso   1.00
O596   O     0.31487   0.50000   0.78573   0.00000  Uiso   1.00
O597   O     0.31487   0.50000   0.88093   0.00000  Uiso   1.00
O598   O     0.18513   0.50000   0.78573   0.00000  Uiso   1.00
C599   C     0.16413   0.50000   0.83333   0.00000  Uiso   1.00
C600   C     0.33587   0.50000   0.83333   0.00000  Uiso   1.00
Cu601  Cu    0.25000   0.50000   0.88969   0.00000  Uiso   1.00
Cu602  Cu    0.25000   0.50000   0.77697   0.00000  Uiso   1.00
N603   N     0.25000   0.50000   0.69227   0.00000  Uiso   1.00
N604   N     0.25000   0.50000   0.97439   0.00000  Uiso   1.00
C605   C     0.40709   0.51889   0.88026   0.00000  Uiso   1.00
C606   C     0.09291   0.48111   0.78641   0.00000  Uiso   1.00
C607   C     0.40709   0.48111   0.78641   0.00000  Uiso   1.00
C608   C     0.09291   0.51889   0.88026   0.00000  Uiso   1.00
C609   C     0.38415   0.50000   0.83333   0.00000  Uiso   1.00
C610   C     0.11585   0.50000   0.83333   0.00000  Uiso   1.00
C611   C     0.45343   0.48023   0.78589   0.00000  Uiso   1.00
C612   C     0.04657   0.51977   0.88077   0.00000  Uiso   1.00
C613   C     0.45343   0.51977   0.88077   0.00000  Uiso   1.00
C614   C     0.04657   0.48023   0.78590   0.00000  Uiso   1.00
C615   C     0.47675   0.50000   0.83333   0.00000  Uiso   1.00
C616   C     0.02325   0.50000   0.83333   0.00000  Uiso   1.00
C617   C     0.47678   0.45988   0.73920   0.00000  Uiso   1.00
C618   C     0.02322   0.54012   0.92747   0.00000  Uiso   1.00
C619   C     0.47678   0.54012   0.92747   0.00000  Uiso   1.00
C620   C     0.02322   0.45987   0.73920   0.00000  Uiso   1.00
C621   C     0.25000   0.35512   0.83333   0.00000  Uiso   1.00
C622   C     0.25000   0.64488   0.83333   0.00000  Uiso   1.00
H623   H     0.38827   0.53347   0.91582   0.00000  Uiso   1.00
H624   H     0.11173   0.46653   0.75085   0.00000  Uiso   1.00
H625   H     0.38827   0.46652   0.75085   0.00000  Uiso   1.00
H626   H     0.11173   0.53347   0.91582   0.00000  Uiso   1.00
Cl627  Cl    0.44840   0.43355   0.68021   0.00000  Uiso   1.00
Cl628  Cl    0.05160   0.56645   0.98645   0.00000  Uiso   1.00
Cl629  Cl    0.44840   0.56645   0.98645   0.00000  Uiso   1.00
Cl630  Cl    0.05160   0.43354   0.68022   0.00000  Uiso   1.00
O631   O     0.75000   0.42946   0.88092   0.00000  Uiso   1.00
O632   O     0.75000   0.57054   0.78575   0.00000  Uiso   1.00
O633   O     0.75000   0.57054   0.88092   0.00000  Uiso   1.00
O634   O     0.75000   0.42946   0.78575   0.00000  Uiso   1.00
C635   C     0.75000   0.40667   0.83333   0.00000  Uiso   1.00
C636   C     0.75000   0.59333   0.83333   0.00000  Uiso   1.00
O637   O     0.68513   0.50000   0.88093   0.00000  Uiso   1.00
O638   O     0.81487   0.50000   0.78573   0.00000  Uiso   1.00
O639   O     0.81487   0.50000   0.88093   0.00000  Uiso   1.00
O640   O     0.68513   0.50000   0.78573   0.00000  Uiso   1.00
C641   C     0.66413   0.50000   0.83333   0.00000  Uiso   1.00
C642   C     0.83587   0.50000   0.83333   0.00000  Uiso   1.00
Cu643  Cu    0.75000   0.50000   0.88969   0.00000  Uiso   1.00
Cu644  Cu    0.75000   0.50000   0.77697   0.00000  Uiso   1.00
N645   N     0.75000   0.50000   0.69227   0.00000  Uiso   1.00
N646   N     0.75000   0.50000   0.97439   0.00000  Uiso   1.00
C647   C     0.90709   0.51889   0.88026   0.00000  Uiso   1.00
C648   C     0.59291   0.48111   0.78641   0.00000  Uiso   1.00
C649   C     0.90709   0.48111   0.78641   0.00000  Uiso   1.00
C650   C     0.59291   0.51889   0.88026   0.00000  Uiso   1.00
C651   C     0.88415   0.50000   0.83333   0.00000  Uiso   1.00
C652   C     0.61585   0.50000   0.83333   0.00000  Uiso   1.00
C653   C     0.95343   0.48023   0.78589   0.00000  Uiso   1.00
C654   C     0.54657   0.51977   0.88077   0.00000  Uiso   1.00
C655   C     0.95343   0.51977   0.88077   0.00000  Uiso   1.00
C656   C     0.54657   0.48023   0.78590   0.00000  Uiso   1.00
C657   C     0.97675   0.50000   0.83333   0.00000  Uiso   1.00
C658   C     0.52325   0.50000   0.83333   0.00000  Uiso   1.00
C659   C     0.97678   0.45988   0.73920   0.00000  Uiso   1.00
C660   C     0.52322   0.54012   0.92747   0.00000  Uiso   1.00
C661   C     0.97678   0.54012   0.92747   0.00000  Uiso   1.00
C662   C     0.52322   0.45987   0.73920   0.00000  Uiso   1.00
C663   C     0.75000   0.35512   0.83333   0.00000  Uiso   1.00
C664   C     0.75000   0.64488   0.83333   0.00000  Uiso   1.00
H665   H     0.88827   0.53347   0.91582   0.00000  Uiso   1.00
H666   H     0.61173   0.46653   0.75085   0.00000  Uiso   1.00
H667   H     0.88827   0.46652   0.75085   0.00000  Uiso   1.00
H668   H     0.61173   0.53347   0.91582   0.00000  Uiso   1.00
Cl669  Cl    0.94840   0.43355   0.68021   0.00000  Uiso   1.00
Cl670  Cl    0.55160   0.56645   0.98645   0.00000  Uiso   1.00
Cl671  Cl    0.94840   0.56645   0.98645   0.00000  Uiso   1.00
Cl672  Cl    0.55160   0.43354   0.68022   0.00000  Uiso   1.00
O673   O     0.25000   0.76280   0.88092   0.00000  Uiso   1.00
O674   O     0.25000   0.90387   0.78575   0.00000  Uiso   1.00
O675   O     0.25000   0.90387   0.88092   0.00000  Uiso   1.00
O676   O     0.25000   0.76280   0.78575   0.00000  Uiso   1.00
C677   C     0.25000   0.74000   0.83333   0.00000  Uiso   1.00
C678   C     0.25000   0.92666   0.83333   0.00000  Uiso   1.00
O679   O     0.18513   0.83333   0.88093   0.00000  Uiso   1.00
O680   O     0.31487   0.83333   0.78573   0.00000  Uiso   1.00
O681   O     0.31487   0.83333   0.88093   0.00000  Uiso   1.00
O682   O     0.18513   0.83333   0.78573   0.00000  Uiso   1.00
C683   C     0.16413   0.83333   0.83333   0.00000  Uiso   1.00
C684   C     0.33587   0.83333   0.83333   0.00000  Uiso   1.00
Cu685  Cu    0.25000   0.83333   0.88969   0.00000  Uiso   1.00
Cu686  Cu    0.25000   0.83333   0.77697   0.00000  Uiso   1.00
N687   N     0.25000   0.83333   0.69227   0.00000  Uiso   1.00
N688   N     0.25000   0.83333   0.97439   0.00000  Uiso   1.00
C689   C     0.40709   0.85222   0.88026   0.00000  Uiso   1.00
C690   C     0.09291   0.81445   0.78641   0.00000  Uiso   1.00
C691   C     0.40709   0.81445   0.78641   0.00000  Uiso   1.00
C692   C     0.09291   0.85222   0.88026   0.00000  Uiso   1.00
C693   C     0.38415   0.83333   0.83333   0.00000  Uiso   1.00
C694   C     0.11585   0.83333   0.83333   0.00000  Uiso   1.00
C695   C     0.45343   0.81356   0.78589   0.00000  Uiso   1.00
C696   C     0.04657   0.85310   0.88077   0.00000  Uiso   1.00
C697   C     0.45343   0.85311   0.88077   0.00000  Uiso   1.00
C698   C     0.04657   0.81356   0.78590   0.00000  Uiso   1.00
C699   C     0.47675   0.83333   0.83333   0.00000  Uiso   1.00
C700   C     0.02325   0.83333   0.83333   0.00000  Uiso   1.00
C701   C     0.47678   0.79321   0.73920   0.00000  Uiso   1.00
C702   C     0.02322   0.87346   0.92747   0.00000  Uiso   1.00
C703   C     0.47678   0.87346   0.92747   0.00000  Uiso   1.00
C704   C     0.02322   0.79321   0.73920   0.00000  Uiso   1.00
C705   C     0.25000   0.68846   0.83333   0.00000  Uiso   1.00
C706   C     0.25000   0.97821   0.83333   0.00000  Uiso   1.00
H707   H     0.38827   0.86681   0.91582   0.00000  Uiso   1.00
H708   H     0.11173   0.79986   0.75085   0.00000  Uiso   1.00
H709   H     0.38827   0.79986   0.75085   0.00000  Uiso   1.00
H710   H     0.11173   0.86681   0.91582   0.00000  Uiso   1.00
Cl711  Cl    0.44840   0.76688   0.68021   0.00000  Uiso   1.00
Cl712  Cl    0.05160   0.89979   0.98645   0.00000  Uiso   1.00
Cl713  Cl    0.44840   0.89979   0.98645   0.00000  Uiso   1.00
Cl714  Cl    0.05160   0.76688   0.68022   0.00000  Uiso   1.00
O715   O     0.75000   0.76280   0.88092   0.00000  Uiso   1.00
O716   O     0.75000   0.90387   0.78575   0.00000  Uiso   1.00
O717   O     0.75000   0.90387   0.88092   0.00000  Uiso   1.00
O718   O     0.75000   0.76280   0.78575   0.00000  Uiso   1.00
C719   C     0.75000   0.74000   0.83333   0.00000  Uiso   1.00
C720   C     0.75000   0.92666   0.83333   0.00000  Uiso   1.00
O721   O     0.68513   0.83333   0.88093   0.00000  Uiso   1.00
O722   O     0.81487   0.83333   0.78573   0.00000  Uiso   1.00
O723   O     0.81487   0.83333   0.88093   0.00000  Uiso   1.00
O724   O     0.68513   0.83333   0.78573   0.00000  Uiso   1.00
C725   C     0.66413   0.83333   0.83333   0.00000  Uiso   1.00
C726   C     0.83587   0.83333   0.83333   0.00000  Uiso   1.00
Cu727  Cu    0.75000   0.83333   0.88969   0.00000  Uiso   1.00
Cu728  Cu    0.75000   0.83333   0.77697   0.00000  Uiso   1.00
N729   N     0.75000   0.83333   0.69227   0.00000  Uiso   1.00
N730   N     0.75000   0.83333   0.97439   0.00000  Uiso   1.00
C731   C     0.90709   0.85222   0.88026   0.00000  Uiso   1.00
C732   C     0.59291   0.81445   0.78641   0.00000  Uiso   1.00
C733   C     0.90709   0.81445   0.78641   0.00000  Uiso   1.00
C734   C     0.59291   0.85222   0.88026   0.00000  Uiso   1.00
C735   C     0.88415   0.83333   0.83333   0.00000  Uiso   1.00
C736   C     0.61585   0.83333   0.83333   0.00000  Uiso   1.00
C737   C     0.95343   0.81356   0.78589   0.00000  Uiso   1.00
C738   C     0.54657   0.85310   0.88077   0.00000  Uiso   1.00
C739   C     0.95343   0.85311   0.88077   0.00000  Uiso   1.00
C740   C     0.54657   0.81356   0.78590   0.00000  Uiso   1.00
C741   C     0.97675   0.83333   0.83333   0.00000  Uiso   1.00
C742   C     0.52325   0.83333   0.83333   0.00000  Uiso   1.00
C743   C     0.97678   0.79321   0.73920   0.00000  Uiso   1.00
C744   C     0.52322   0.87346   0.92747   0.00000  Uiso   1.00
C745   C     0.97678   0.87346   0.92747   0.00000  Uiso   1.00
C746   C     0.52322   0.79321   0.73920   0.00000  Uiso   1.00
C747   C     0.75000   0.68846   0.83333   0.00000  Uiso   1.00
C748   C     0.75000   0.97821   0.83333   0.00000  Uiso   1.00
H749   H     0.88827   0.86681   0.91582   0.00000  Uiso   1.00
H750   H     0.61173   0.79986   0.75085   0.00000  Uiso   1.00
H751   H     0.88827   0.79986   0.75085   0.00000  Uiso   1.00
H752   H     0.61173   0.86681   0.91582   0.00000  Uiso   1.00
Cl753  Cl    0.94840   0.76688   0.68021   0.00000  Uiso   1.00
Cl754  Cl    0.55160   0.89979   0.98645   0.00000  Uiso   1.00
Cl755  Cl    0.94840   0.89979   0.98645   0.00000  Uiso   1.00
Cl756  Cl    0.55160   0.76688   0.68022   0.00000  Uiso   1.00
loop_
_geom_bond_atom_site_label_1
_geom_bond_atom_site_label_2
_geom_bond_distance
_geom_bond_site_symmetry_2
_ccdc_geom_bond_type
O1     C5      1.273   .     A
O1     Cu13    1.935   .     S
O2     C6      1.273   .     A
O2     Cu14    1.935   .     S
O3     Cu13    1.935   .     S
O3     C6      1.273   .     A
O4     Cu14    1.935   .     S
O4     C5      1.273   .     A
C5     C33     1.406   .     S
C6     C34     1.406   .     S
O7     C11     1.279   .     A
O7     Cu13    1.968   .     S
O8     C12     1.279   .     A
O8     Cu14    1.968   .     S
O9     C12     1.279   .     A
O9     Cu13    1.968   .     S
O10    C11     1.279   .     A
O10    Cu14    1.968   .     S
C11    C22     1.457   .     S
C12    C21     1.457   .     S
Cu13   Cu14    2.631   .     S
Cu13   N16     1.977   .     S
Cu14   N15     1.977   .     S
N15    N520    1.196   1_554 S
N16    N267    1.196   .     S
C17    C25     1.399   .     A
C17    H35     1.082   .     S
C17    C21     1.395   .     A
C18    C22     1.395   .     A
C18    H36     1.082   .     S
C18    C26     1.399   .     A
C19    C23     1.399   .     A
C19    H37     1.082   .     S
C19    C21     1.395   .     A
C20    H38     1.082   .     S
C20    C22     1.395   .     A
C20    C24     1.399   .     A
C23    C27     1.419   .     A
C23    C29     1.412   .     A
C24    C30     1.412   .     A
C24    C28     1.419   .     A
C25    C31     1.412   .     A
C25    C27     1.419   .     A
C26    C32     1.412   .     A
C26    C28     1.419   .     A
C27    C70     1.404   .     S
C28    C69     1.404   1_455 S
C29    Cl39    1.774   .     S
C29    C74     1.402   .     S
C30    Cl40    1.774   .     S
C30    C73     1.402   1_455 S
C31    Cl41    1.774   .     S
C31    C72     1.402   .     S
C32    Cl42    1.774   .     S
C32    C71     1.402   1_455 S
C33    C202    1.189   1_545 S
C34    C117    1.189   .     S
O43    C47     1.273   .     A
O43    Cu55    1.935   .     S
O44    C48     1.273   .     A
O44    Cu56    1.935   .     S
O45    Cu55    1.935   .     S
O45    C48     1.273   .     A
O46    Cu56    1.935   .     S
O46    C47     1.273   .     A
C47    C75     1.406   .     S
C48    C76     1.406   .     S
O49    C53     1.279   .     A
O49    Cu55    1.968   .     S
O50    C54     1.279   .     A
O50    Cu56    1.968   .     S
O51    C54     1.279   .     A
O51    Cu55    1.968   .     S
O52    C53     1.279   .     A
O52    Cu56    1.968   .     S
C53    C64     1.457   .     S
C54    C63     1.457   .     S
Cu55   Cu56    2.631   .     S
Cu55   N58     1.977   .     S
Cu56   N57     1.977   .     S
N57    N562    1.196   1_554 S
N58    N309    1.196   .     S
C59    C67     1.399   .     A
C59    H77     1.082   .     S
C59    C63     1.395   .     A
C60    C64     1.395   .     A
C60    H78     1.082   .     S
C60    C68     1.399   .     A
C61    C65     1.399   .     A
C61    H79     1.082   .     S
C61    C63     1.395   .     A
C62    H80     1.082   .     S
C62    C64     1.395   .     A
C62    C66     1.399   .     A
C65    C69     1.419   .     A
C65    C71     1.412   .     A
C66    C72     1.412   .     A
C66    C70     1.419   .     A
C67    C73     1.412   .     A
C67    C69     1.419   .     A
C68    C74     1.412   .     A
C68    C70     1.419   .     A
C69    C28     1.404   1_655 S
C71    Cl81    1.774   .     S
C71    C32     1.402   1_655 S
C72    Cl82    1.774   .     S
C73    Cl83    1.774   .     S
C73    C30     1.402   1_655 S
C74    Cl84    1.774   .     S
C75    C244    1.189   1_545 S
C76    C159    1.189   .     S
O85    C89     1.273   .     A
O85    Cu97    1.935   .     S
O86    C90     1.273   .     A
O86    Cu98    1.935   .     S
O87    Cu97    1.935   .     S
O87    C90     1.273   .     A
O88    Cu98    1.935   .     S
O88    C89     1.273   .     A
C89    C117    1.406   .     S
C90    C118    1.406   .     S
O91    C95     1.279   .     A
O91    Cu97    1.968   .     S
O92    C96     1.279   .     A
O92    Cu98    1.968   .     S
O93    C96     1.279   .     A
O93    Cu97    1.968   .     S
O94    C95     1.279   .     A
O94    Cu98    1.968   .     S
C95    C106    1.457   .     S
C96    C105    1.457   .     S
Cu97   Cu98    2.631   .     S
Cu97   N100    1.977   .     S
Cu98   N99     1.977   .     S
N99    N604    1.196   1_554 S
N100   N351    1.196   .     S
C101   C109    1.399   .     A
C101   H119    1.082   .     S
C101   C105    1.395   .     A
C102   C106    1.395   .     A
C102   H120    1.082   .     S
C102   C110    1.399   .     A
C103   C107    1.399   .     A
C103   H121    1.082   .     S
C103   C105    1.395   .     A
C104   H122    1.082   .     S
C104   C106    1.395   .     A
C104   C108    1.399   .     A
C107   C111    1.419   .     A
C107   C113    1.412   .     A
C108   C114    1.412   .     A
C108   C112    1.419   .     A
C109   C115    1.412   .     A
C109   C111    1.419   .     A
C110   C116    1.412   .     A
C110   C112    1.419   .     A
C111   C154    1.404   .     S
C112   C153    1.404   1_455 S
C113   Cl123   1.774   .     S
C113   C158    1.402   .     S
C114   Cl124   1.774   .     S
C114   C157    1.402   1_455 S
C115   Cl125   1.774   .     S
C115   C156    1.402   .     S
C116   Cl126   1.774   .     S
C116   C155    1.402   1_455 S
C118   C201    1.189   .     S
O127   C131    1.273   .     A
O127   Cu139   1.935   .     S
O128   C132    1.273   .     A
O128   Cu140   1.935   .     S
O129   Cu139   1.935   .     S
O129   C132    1.273   .     A
O130   Cu140   1.935   .     S
O130   C131    1.273   .     A
C131   C159    1.406   .     S
C132   C160    1.406   .     S
O133   C137    1.279   .     A
O133   Cu139   1.968   .     S
O134   C138    1.279   .     A
O134   Cu140   1.968   .     S
O135   C138    1.279   .     A
O135   Cu139   1.968   .     S
O136   C137    1.279   .     A
O136   Cu140   1.968   .     S
C137   C148    1.457   .     S
C138   C147    1.457   .     S
Cu139  Cu140   2.631   .     S
Cu139  N142    1.977   .     S
Cu140  N141    1.977   .     S
N141   N646    1.196   1_554 S
N142   N393    1.196   .     S
C143   C151    1.399   .     A
C143   H161    1.082   .     S
C143   C147    1.395   .     A
C144   C148    1.395   .     A
C144   H162    1.082   .     S
C144   C152    1.399   .     A
C145   C149    1.399   .     A
C145   H163    1.082   .     S
C145   C147    1.395   .     A
C146   H164    1.082   .     S
C146   C148    1.395   .     A
C146   C150    1.399   .     A
C149   C153    1.419   .     A
C149   C155    1.412   .     A
C150   C156    1.412   .     A
C150   C154    1.419   .     A
C151   C157    1.412   .     A
C151   C153    1.419   .     A
C152   C158    1.412   .     A
C152   C154    1.419   .     A
C153   C112    1.404   1_655 S
C155   Cl165   1.774   .     S
C155   C116    1.402   1_655 S
C156   Cl166   1.774   .     S
C157   Cl167   1.774   .     S
C157   C114    1.402   1_655 S
C158   Cl168   1.774   .     S
C160   C243    1.189   .     S
O169   C173    1.273   .     A
O169   Cu181   1.935   .     S
O170   C174    1.273   .     A
O170   Cu182   1.935   .     S
O171   Cu181   1.935   .     S
O171   C174    1.273   .     A
O172   Cu182   1.935   .     S
O172   C173    1.273   .     A
C173   C201    1.406   .     S
C174   C202    1.406   .     S
O175   C179    1.279   .     A
O175   Cu181   1.968   .     S
O176   C180    1.279   .     A
O176   Cu182   1.968   .     S
O177   C180    1.279   .     A
O177   Cu181   1.968   .     S
O178   C179    1.279   .     A
O178   Cu182   1.968   .     S
C179   C190    1.457   .     S
C180   C189    1.457   .     S
Cu181  Cu182   2.631   .     S
Cu181  N184    1.977   .     S
Cu182  N183    1.977   .     S
N183   N688    1.196   1_554 S
N184   N435    1.196   .     S
C185   C193    1.399   .     A
C185   H203    1.082   .     S
C185   C189    1.395   .     A
C186   C190    1.395   .     A
C186   H204    1.082   .     S
C186   C194    1.399   .     A
C187   C191    1.399   .     A
C187   H205    1.082   .     S
C187   C189    1.395   .     A
C188   H206    1.082   .     S
C188   C190    1.395   .     A
C188   C192    1.399   .     A
C191   C195    1.419   .     A
C191   C197    1.412   .     A
C192   C198    1.412   .     A
C192   C196    1.419   .     A
C193   C199    1.412   .     A
C193   C195    1.419   .     A
C194   C200    1.412   .     A
C194   C196    1.419   .     A
C195   C238    1.404   .     S
C196   C237    1.404   1_455 S
C197   Cl207   1.774   .     S
C197   C242    1.402   .     S
C198   Cl208   1.774   .     S
C198   C241    1.402   1_455 S
C199   Cl209   1.774   .     S
C199   C240    1.402   .     S
C200   Cl210   1.774   .     S
C200   C239    1.402   1_455 S
C202   C33     1.189   1_565 S
O211   C215    1.273   .     A
O211   Cu223   1.935   .     S
O212   C216    1.273   .     A
O212   Cu224   1.935   .     S
O213   Cu223   1.935   .     S
O213   C216    1.273   .     A
O214   Cu224   1.935   .     S
O214   C215    1.273   .     A
C215   C243    1.406   .     S
C216   C244    1.406   .     S
O217   C221    1.279   .     A
O217   Cu223   1.968   .     S
O218   C222    1.279   .     A
O218   Cu224   1.968   .     S
O219   C222    1.279   .     A
O219   Cu223   1.968   .     S
O220   C221    1.279   .     A
O220   Cu224   1.968   .     S
C221   C232    1.457   .     S
C222   C231    1.457   .     S
Cu223  Cu224   2.631   .     S
Cu223  N226    1.977   .     S
Cu224  N225    1.977   .     S
N225   N730    1.196   1_554 S
N226   N477    1.196   .     S
C227   C235    1.399   .     A
C227   H245    1.082   .     S
C227   C231    1.395   .     A
C228   C232    1.395   .     A
C228   H246    1.082   .     S
C228   C236    1.399   .     A
C229   C233    1.399   .     A
C229   H247    1.082   .     S
C229   C231    1.395   .     A
C230   H248    1.082   .     S
C230   C232    1.395   .     A
C230   C234    1.399   .     A
C233   C237    1.419   .     A
C233   C239    1.412   .     A
C234   C240    1.412   .     A
C234   C238    1.419   .     A
C235   C241    1.412   .     A
C235   C237    1.419   .     A
C236   C242    1.412   .     A
C236   C238    1.419   .     A
C237   C196    1.404   1_655 S
C239   Cl249   1.774   .     S
C239   C200    1.402   1_655 S
C240   Cl250   1.774   .     S
C241   Cl251   1.774   .     S
C241   C198    1.402   1_655 S
C242   Cl252   1.774   .     S
C244   C75     1.189   1_565 S
O253   C257    1.273   .     A
O253   Cu265   1.935   .     S
O254   C258    1.273   .     A
O254   Cu266   1.935   .     S
O255   Cu265   1.935   .     S
O255   C258    1.273   .     A
O256   Cu266   1.935   .     S
O256   C257    1.273   .     A
C257   C285    1.406   .     S
C258   C286    1.406   .     S
O259   C263    1.279   .     A
O259   Cu265   1.968   .     S
O260   C264    1.279   .     A
O260   Cu266   1.968   .     S
O261   C264    1.279   .     A
O261   Cu265   1.968   .     S
O262   C263    1.279   .     A
O262   Cu266   1.968   .     S
C263   C274    1.457   .     S
C264   C273    1.457   .     S
Cu265  Cu266   2.631   .     S
Cu265  N268    1.977   .     S
Cu266  N267    1.977   .     S
N268   N519    1.196   .     S
C269   C277    1.399   .     A
C269   H287    1.082   .     S
C269   C273    1.395   .     A
C270   C274    1.395   .     A
C270   H288    1.082   .     S
C270   C278    1.399   .     A
C271   C275    1.399   .     A
C271   H289    1.082   .     S
C271   C273    1.395   .     A
C272   H290    1.082   .     S
C272   C274    1.395   .     A
C272   C276    1.399   .     A
C275   C279    1.419   .     A
C275   C281    1.412   .     A
C276   C282    1.412   .     A
C276   C280    1.419   .     A
C277   C283    1.412   .     A
C277   C279    1.419   .     A
C278   C284    1.412   .     A
C278   C280    1.419   .     A
C279   C322    1.404   .     S
C280   C321    1.404   1_455 S
C281   Cl291   1.774   .     S
C281   C326    1.402   .     S
C282   Cl292   1.774   .     S
C282   C325    1.402   1_455 S
C283   Cl293   1.774   .     S
C283   C324    1.402   .     S
C284   Cl294   1.774   .     S
C284   C323    1.402   1_455 S
C285   C454    1.189   1_545 S
C286   C369    1.189   .     S
O295   C299    1.273   .     A
O295   Cu307   1.935   .     S
O296   C300    1.273   .     A
O296   Cu308   1.935   .     S
O297   Cu307   1.935   .     S
O297   C300    1.273   .     A
O298   Cu308   1.935   .     S
O298   C299    1.273   .     A
C299   C327    1.406   .     S
C300   C328    1.406   .     S
O301   C305    1.279   .     A
O301   Cu307   1.968   .     S
O302   C306    1.279   .     A
O302   Cu308   1.968   .     S
O303   C306    1.279   .     A
O303   Cu307   1.968   .     S
O304   C305    1.279   .     A
O304   Cu308   1.968   .     S
C305   C316    1.457   .     S
C306   C315    1.457   .     S
Cu307  Cu308   2.631   .     S
Cu307  N310    1.977   .     S
Cu308  N309    1.977   .     S
N310   N561    1.196   .     S
C311   C319    1.399   .     A
C311   H329    1.082   .     S
C311   C315    1.395   .     A
C312   C316    1.395   .     A
C312   H330    1.082   .     S
C312   C320    1.399   .     A
C313   C317    1.399   .     A
C313   H331    1.082   .     S
C313   C315    1.395   .     A
C314   H332    1.082   .     S
C314   C316    1.395   .     A
C314   C318    1.399   .     A
C317   C321    1.419   .     A
C317   C323    1.412   .     A
C318   C324    1.412   .     A
C318   C322    1.419   .     A
C319   C325    1.412   .     A
C319   C321    1.419   .     A
C320   C326    1.412   .     A
C320   C322    1.419   .     A
C321   C280    1.404   1_655 S
C323   Cl333   1.774   .     S
C323   C284    1.402   1_655 S
C324   Cl334   1.774   .     S
C325   Cl335   1.774   .     S
C325   C282    1.402   1_655 S
C326   Cl336   1.774   .     S
C327   C496    1.189   1_545 S
C328   C411    1.189   .     S
O337   C341    1.273   .     A
O337   Cu349   1.935   .     S
O338   C342    1.273   .     A
O338   Cu350   1.935   .     S
O339   Cu349   1.935   .     S
O339   C342    1.273   .     A
O340   Cu350   1.935   .     S
O340   C341    1.273   .     A
C341   C369    1.406   .     S
C342   C370    1.406   .     S
O343   C347    1.279   .     A
O343   Cu349   1.968   .     S
O344   C348    1.279   .     A
O344   Cu350   1.968   .     S
O345   C348    1.279   .     A
O345   Cu349   1.968   .     S
O346   C347    1.279   .     A
O346   Cu350   1.968   .     S
C347   C358    1.457   .     S
C348   C357    1.457   .     S
Cu349  Cu350   2.631   .     S
Cu349  N352    1.977   .     S
Cu350  N351    1.977   .     S
N352   N603    1.196   .     S
C353   C361    1.399   .     A
C353   H371    1.082   .     S
C353   C357    1.395   .     A
C354   C358    1.395   .     A
C354   H372    1.082   .     S
C354   C362    1.399   .     A
C355   C359    1.399   .     A
C355   H373    1.082   .     S
C355   C357    1.395   .     A
C356   H374    1.082   .     S
C356   C358    1.395   .     A
C356   C360    1.399   .     A
C359   C363    1.419   .     A
C359   C365    1.412   .     A
C360   C366    1.412   .     A
C360   C364    1.419   .     A
C361   C367    1.412   .     A
C361   C363    1.419   .     A
C362   C368    1.412   .     A
C362   C364    1.419   .     A
C363   C406    1.404   .     S
C364   C405    1.404   1_455 S
C365   Cl375   1.774   .     S
C365   C410    1.402   .     S
C366   Cl376   1.774   .     S
C366   C409    1.402   1_455 S
C367   Cl377   1.774   .     S
C367   C408    1.402   .     S
C368   Cl378   1.774   .     S
C368   C407    1.402   1_455 S
C370   C453    1.189   .     S
O379   C383    1.273   .     A
O379   Cu391   1.935   .     S
O380   C384    1.273   .     A
O380   Cu392   1.935   .     S
O381   Cu391   1.935   .     S
O381   C384    1.273   .     A
O382   Cu392   1.935   .     S
O382   C383    1.273   .     A
C383   C411    1.406   .     S
C384   C412    1.406   .     S
O385   C389    1.279   .     A
O385   Cu391   1.968   .     S
O386   C390    1.279   .     A
O386   Cu392   1.968   .     S
O387   C390    1.279   .     A
O387   Cu391   1.968   .     S
O388   C389    1.279   .     A
O388   Cu392   1.968   .     S
C389   C400    1.457   .     S
C390   C399    1.457   .     S
Cu391  Cu392   2.631   .     S
Cu391  N394    1.977   .     S
Cu392  N393    1.977   .     S
N394   N645    1.196   .     S
C395   C403    1.399   .     A
C395   H413    1.082   .     S
C395   C399    1.395   .     A
C396   C400    1.395   .     A
C396   H414    1.082   .     S
C396   C404    1.399   .     A
C397   C401    1.399   .     A
C397   H415    1.082   .     S
C397   C399    1.395   .     A
C398   H416    1.082   .     S
C398   C400    1.395   .     A
C398   C402    1.399   .     A
C401   C405    1.419   .     A
C401   C407    1.412   .     A
C402   C408    1.412   .     A
C402   C406    1.419   .     A
C403   C409    1.412   .     A
C403   C405    1.419   .     A
C404   C410    1.412   .     A
C404   C406    1.419   .     A
C405   C364    1.404   1_655 S
C407   Cl417   1.774   .     S
C407   C368    1.402   1_655 S
C408   Cl418   1.774   .     S
C409   Cl419   1.774   .     S
C409   C366    1.402   1_655 S
C410   Cl420   1.774   .     S
C412   C495    1.189   .     S
O421   C425    1.273   .     A
O421   Cu433   1.935   .     S
O422   C426    1.273   .     A
O422   Cu434   1.935   .     S
O423   Cu433   1.935   .     S
O423   C426    1.273   .     A
O424   Cu434   1.935   .     S
O424   C425    1.273   .     A
C425   C453    1.406   .     S
C426   C454    1.406   .     S
O427   C431    1.279   .     A
O427   Cu433   1.968   .     S
O428   C432    1.279   .     A
O428   Cu434   1.968   .     S
O429   C432    1.279   .     A
O429   Cu433   1.968   .     S
O430   C431    1.279   .     A
O430   Cu434   1.968   .     S
C431   C442    1.457   .     S
C432   C441    1.457   .     S
Cu433  Cu434   2.631   .     S
Cu433  N436    1.977   .     S
Cu434  N435    1.977   .     S
N436   N687    1.196   .     S
C437   C445    1.399   .     A
C437   H455    1.082   .     S
C437   C441    1.395   .     A
C438   C442    1.395   .     A
C438   H456    1.082   .     S
C438   C446    1.399   .     A
C439   C443    1.399   .     A
C439   H457    1.082   .     S
C439   C441    1.395   .     A
C440   H458    1.082   .     S
C440   C442    1.395   .     A
C440   C444    1.399   .     A
C443   C447    1.419   .     A
C443   C449    1.412   .     A
C444   C450    1.412   .     A
C444   C448    1.419   .     A
C445   C451    1.412   .     A
C445   C447    1.419   .     A
C446   C452    1.412   .     A
C446   C448    1.419   .     A
C447   C490    1.404   .     S
C448   C489    1.404   1_455 S
C449   Cl459   1.774   .     S
C449   C494    1.402   .     S
C450   Cl460   1.774   .     S
C450   C493    1.402   1_455 S
C451   Cl461   1.774   .     S
C451   C492    1.402   .     S
C452   Cl462   1.774   .     S
C452   C491    1.402   1_455 S
C454   C285    1.189   1_565 S
O463   C467    1.273   .     A
O463   Cu475   1.935   .     S
O464   C468    1.273   .     A
O464   Cu476   1.935   .     S
O465   Cu475   1.935   .     S
O465   C468    1.273   .     A
O466   Cu476   1.935   .     S
O466   C467    1.273   .     A
C467   C495    1.406   .     S
C468   C496    1.406   .     S
O469   C473    1.279   .     A
O469   Cu475   1.968   .     S
O470   C474    1.279   .     A
O470   Cu476   1.968   .     S
O471   C474    1.279   .     A
O471   Cu475   1.968   .     S
O472   C473    1.279   .     A
O472   Cu476   1.968   .     S
C473   C484    1.457   .     S
C474   C483    1.457   .     S
Cu475  Cu476   2.631   .     S
Cu475  N478    1.977   .     S
Cu476  N477    1.977   .     S
N478   N729    1.196   .     S
C479   C487    1.399   .     A
C479   H497    1.082   .     S
C479   C483    1.395   .     A
C480   C484    1.395   .     A
C480   H498    1.082   .     S
C480   C488    1.399   .     A
C481   C485    1.399   .     A
C481   H499    1.082   .     S
C481   C483    1.395   .     A
C482   H500    1.082   .     S
C482   C484    1.395   .     A
C482   C486    1.399   .     A
C485   C489    1.419   .     A
C485   C491    1.412   .     A
C486   C492    1.412   .     A
C486   C490    1.419   .     A
C487   C493    1.412   .     A
C487   C489    1.419   .     A
C488   C494    1.412   .     A
C488   C490    1.419   .     A
C489   C448    1.404   1_655 S
C491   Cl501   1.774   .     S
C491   C452    1.402   1_655 S
C492   Cl502   1.774   .     S
C493   Cl503   1.774   .     S
C493   C450    1.402   1_655 S
C494   Cl504   1.774   .     S
C496   C327    1.189   1_565 S
O505   C509    1.273   .     A
O505   Cu517   1.935   .     S
O506   C510    1.273   .     A
O506   Cu518   1.935   .     S
O507   Cu517   1.935   .     S
O507   C510    1.273   .     A
O508   Cu518   1.935   .     S
O508   C509    1.273   .     A
C509   C537    1.406   .     S
C510   C538    1.406   .     S
O511   C515    1.279   .     A
O511   Cu517   1.968   .     S
O512   C516    1.279   .     A
O512   Cu518   1.968   .     S
O513   C516    1.279   .     A
O513   Cu517   1.968   .     S
O514   C515    1.279   .     A
O514   Cu518   1.968   .     S
C515   C526    1.457   .     S
C516   C525    1.457   .     S
Cu517  Cu518   2.631   .     S
Cu517  N520    1.977   .     S
Cu518  N519    1.977   .     S
N520   N15     1.196   1_556 S
C521   C529    1.399   .     A
C521   H539    1.082   .     S
C521   C525    1.395   .     A
C522   C526    1.395   .     A
C522   H540    1.082   .     S
C522   C530    1.399   .     A
C523   C527    1.399   .     A
C523   H541    1.082   .     S
C523   C525    1.395   .     A
C524   H542    1.082   .     S
C524   C526    1.395   .     A
C524   C528    1.399   .     A
C527   C531    1.419   .     A
C527   C533    1.412   .     A
C528   C534    1.412   .     A
C528   C532    1.419   .     A
C529   C535    1.412   .     A
C529   C531    1.419   .     A
C530   C536    1.412   .     A
C530   C532    1.419   .     A
C531   C574    1.404   .     S
C532   C573    1.404   1_455 S
C533   Cl543   1.774   .     S
C533   C578    1.402   .     S
C534   Cl544   1.774   .     S
C534   C577    1.402   1_455 S
C535   Cl545   1.774   .     S
C535   C576    1.402   .     S
C536   Cl546   1.774   .     S
C536   C575    1.402   1_455 S
C537   C706    1.189   1_545 S
C538   C621    1.189   .     S
O547   C551    1.273   .     A
O547   Cu559   1.935   .     S
O548   C552    1.273   .     A
O548   Cu560   1.935   .     S
O549   Cu559   1.935   .     S
O549   C552    1.273   .     A
O550   Cu560   1.935   .     S
O550   C551    1.273   .     A
C551   C579    1.406   .     S
C552   C580    1.406   .     S
O553   C557    1.279   .     A
O553   Cu559   1.968   .     S
O554   C558    1.279   .     A
O554   Cu560   1.968   .     S
O555   C558    1.279   .     A
O555   Cu559   1.968   .     S
O556   C557    1.279   .     A
O556   Cu560   1.968   .     S
C557   C568    1.457   .     S
C558   C567    1.457   .     S
Cu559  Cu560   2.631   .     S
Cu559  N562    1.977   .     S
Cu560  N561    1.977   .     S
N562   N57     1.196   1_556 S
C563   C571    1.399   .     A
C563   H581    1.082   .     S
C563   C567    1.395   .     A
C564   C568    1.395   .     A
C564   H582    1.082   .     S
C564   C572    1.399   .     A
C565   C569    1.399   .     A
C565   H583    1.082   .     S
C565   C567    1.395   .     A
C566   H584    1.082   .     S
C566   C568    1.395   .     A
C566   C570    1.399   .     A
C569   C573    1.419   .     A
C569   C575    1.412   .     A
C570   C576    1.412   .     A
C570   C574    1.419   .     A
C571   C577    1.412   .     A
C571   C573    1.419   .     A
C572   C578    1.412   .     A
C572   C574    1.419   .     A
C573   C532    1.404   1_655 S
C575   Cl585   1.774   .     S
C575   C536    1.402   1_655 S
C576   Cl586   1.774   .     S
C577   Cl587   1.774   .     S
C577   C534    1.402   1_655 S
C578   Cl588   1.774   .     S
C579   C748    1.189   1_545 S
C580   C663    1.189   .     S
O589   C593    1.273   .     A
O589   Cu601   1.935   .     S
O590   C594    1.273   .     A
O590   Cu602   1.935   .     S
O591   Cu601   1.935   .     S
O591   C594    1.273   .     A
O592   Cu602   1.935   .     S
O592   C593    1.273   .     A
C593   C621    1.406   .     S
C594   C622    1.406   .     S
O595   C599    1.279   .     A
O595   Cu601   1.968   .     S
O596   C600    1.279   .     A
O596   Cu602   1.968   .     S
O597   C600    1.279   .     A
O597   Cu601   1.968   .     S
O598   C599    1.279   .     A
O598   Cu602   1.968   .     S
C599   C610    1.457   .     S
C600   C609    1.457   .     S
Cu601  Cu602   2.631   .     S
Cu601  N604    1.977   .     S
Cu602  N603    1.977   .     S
N604   N99     1.196   1_556 S
C605   C613    1.399   .     A
C605   H623    1.082   .     S
C605   C609    1.395   .     A
C606   C610    1.395   .     A
C606   H624    1.082   .     S
C606   C614    1.399   .     A
C607   C611    1.399   .     A
C607   H625    1.082   .     S
C607   C609    1.395   .     A
C608   H626    1.082   .     S
C608   C610    1.395   .     A
C608   C612    1.399   .     A
C611   C615    1.419   .     A
C611   C617    1.412   .     A
C612   C618    1.412   .     A
C612   C616    1.419   .     A
C613   C619    1.412   .     A
C613   C615    1.419   .     A
C614   C620    1.412   .     A
C614   C616    1.419   .     A
C615   C658    1.404   .     S
C616   C657    1.404   1_455 S
C617   Cl627   1.774   .     S
C617   C662    1.402   .     S
C618   Cl628   1.774   .     S
C618   C661    1.402   1_455 S
C619   Cl629   1.774   .     S
C619   C660    1.402   .     S
C620   Cl630   1.774   .     S
C620   C659    1.402   1_455 S
C622   C705    1.189   .     S
O631   C635    1.273   .     A
O631   Cu643   1.935   .     S
O632   C636    1.273   .     A
O632   Cu644   1.935   .     S
O633   Cu643   1.935   .     S
O633   C636    1.273   .     A
O634   Cu644   1.935   .     S
O634   C635    1.273   .     A
C635   C663    1.406   .     S
C636   C664    1.406   .     S
O637   C641    1.279   .     A
O637   Cu643   1.968   .     S
O638   C642    1.279   .     A
O638   Cu644   1.968   .     S
O639   C642    1.279   .     A
O639   Cu643   1.968   .     S
O640   C641    1.279   .     A
O640   Cu644   1.968   .     S
C641   C652    1.457   .     S
C642   C651    1.457   .     S
Cu643  Cu644   2.631   .     S
Cu643  N646    1.977   .     S
Cu644  N645    1.977   .     S
N646   N141    1.196   1_556 S
C647   C655    1.399   .     A
C647   H665    1.082   .     S
C647   C651    1.395   .     A
C648   C652    1.395   .     A
C648   H666    1.082   .     S
C648   C656    1.399   .     A
C649   C653    1.399   .     A
C649   H667    1.082   .     S
C649   C651    1.395   .     A
C650   H668    1.082   .     S
C650   C652    1.395   .     A
C650   C654    1.399   .     A
C653   C657    1.419   .     A
C653   C659    1.412   .     A
C654   C660    1.412   .     A
C654   C658    1.419   .     A
C655   C661    1.412   .     A
C655   C657    1.419   .     A
C656   C662    1.412   .     A
C656   C658    1.419   .     A
C657   C616    1.404   1_655 S
C659   Cl669   1.774   .     S
C659   C620    1.402   1_655 S
C660   Cl670   1.774   .     S
C661   Cl671   1.774   .     S
C661   C618    1.402   1_655 S
C662   Cl672   1.774   .     S
C664   C747    1.189   .     S
O673   C677    1.273   .     A
O673   Cu685   1.935   .     S
O674   C678    1.273   .     A
O674   Cu686   1.935   .     S
O675   Cu685   1.935   .     S
O675   C678    1.273   .     A
O676   Cu686   1.935   .     S
O676   C677    1.273   .     A
C677   C705    1.406   .     S
C678   C706    1.406   .     S
O679   C683    1.279   .     A
O679   Cu685   1.968   .     S
O680   C684    1.279   .     A
O680   Cu686   1.968   .     S
O681   C684    1.279   .     A
O681   Cu685   1.968   .     S
O682   C683    1.279   .     A
O682   Cu686   1.968   .     S
C683   C694    1.457   .     S
C684   C693    1.457   .     S
Cu685  Cu686   2.631   .     S
Cu685  N688    1.977   .     S
Cu686  N687    1.977   .     S
N688   N183    1.196   1_556 S
C689   C697    1.399   .     A
C689   H707    1.082   .     S
C689   C693    1.395   .     A
C690   C694    1.395   .     A
C690   H708    1.082   .     S
C690   C698    1.399   .     A
C691   C695    1.399   .     A
C691   H709    1.082   .     S
C691   C693    1.395   .     A
C692   H710    1.082   .     S
C692   C694    1.395   .     A
C692   C696    1.399   .     A
C695   C699    1.419   .     A
C695   C701    1.412   .     A
C696   C702    1.412   .     A
C696   C700    1.419   .     A
C697   C703    1.412   .     A
C697   C699    1.419   .     A
C698   C704    1.412   .     A
C698   C700    1.419   .     A
C699   C742    1.404   .     S
C700   C741    1.404   1_455 S
C701   Cl711   1.774   .     S
C701   C746    1.402   .     S
C702   Cl712   1.774   .     S
C702   C745    1.402   1_455 S
C703   Cl713   1.774   .     S
C703   C744    1.402   .     S
C704   Cl714   1.774   .     S
C704   C743    1.402   1_455 S
C706   C537    1.189   1_565 S
O715   C719    1.273   .     A
O715   Cu727   1.935   .     S
O716   C720    1.273   .     A
O716   Cu728   1.935   .     S
O717   Cu727   1.935   .     S
O717   C720    1.273   .     A
O718   Cu728   1.935   .     S
O718   C719    1.273   .     A
C719   C747    1.406   .     S
C720   C748    1.406   .     S
O721   C725    1.279   .     A
O721   Cu727   1.968   .     S
O722   C726    1.279   .     A
O722   Cu728   1.968   .     S
O723   C726    1.279   .     A
O723   Cu727   1.968   .     S
O724   C725    1.279   .     A
O724   Cu728   1.968   .     S
C725   C736    1.457   .     S
C726   C735    1.457   .     S
Cu727  Cu728   2.631   .     S
Cu727  N730    1.977   .     S
Cu728  N729    1.977   .     S
N730   N225    1.196   1_556 S
C731   C739    1.399   .     A
C731   H749    1.082   .     S
C731   C735    1.395   .     A
C732   C736    1.395   .     A
C732   H750    1.082   .     S
C732   C740    1.399   .     A
C733   C737    1.399   .     A
C733   H751    1.082   .     S
C733   C735    1.395   .     A
C734   H752    1.082   .     S
C734   C736    1.395   .     A
C734   C738    1.399   .     A
C737   C741    1.419   .     A
C737   C743    1.412   .     A
C738   C744    1.412   .     A
C738   C742    1.419   .     A
C739   C745    1.412   .     A
C739   C741    1.419   .     A
C740   C746    1.412   .     A
C740   C742    1.419   .     A
C741   C700    1.404   1_655 S
C743   Cl753   1.774   .     S
C743   C704    1.402   1_655 S
C744   Cl754   1.774   .     S
C745   Cl755   1.774   .     S
C745   C702    1.402   1_655 S
C746   Cl756   1.774   .     S
C748   C579    1.189   1_565 S
