data_str_m3_o10_o16_pcu_sym.46
_audit_creation_date              2020-01-03
_audit_creation_method            'Materials Studio'
_symmetry_space_group_name_H-M    'P1'
_symmetry_Int_Tables_number       1
_symmetry_cell_setting            triclinic
loop_
_symmetry_equiv_pos_as_xyz
  x,y,z
_cell_length_a                    23.4457
_cell_length_b                    26.1258
_cell_length_c                    25.1087
_cell_angle_alpha                 92.6112
_cell_angle_beta                  102.9981
_cell_angle_gamma                 93.0039
loop_
_atom_site_label
_atom_site_type_symbol
_atom_site_fract_x
_atom_site_fract_y
_atom_site_fract_z
_atom_site_U_iso_or_equiv
_atom_site_adp_type
_atom_site_occupancy
C1     C     0.01372   0.26474   0.24689   0.00000  Uiso   1.00
C2     C     0.05681   0.16478   0.41396   0.00000  Uiso   1.00
C3     C     0.02016   0.31922   0.24680   0.00000  Uiso   1.00
C4     C     0.03637   0.16685   0.35451   0.00000  Uiso   1.00
C5     C     0.30632   0.01390   0.24111   0.00000  Uiso   1.00
C6     C     0.31752   0.06849   0.24841   0.00000  Uiso   1.00
C7     C     0.29573   0.15694   0.14660   0.00000  Uiso   1.00
C8     C     0.28546   0.11045   0.00147   0.00000  Uiso   1.00
C9     C     0.27251   0.13768   0.09051   0.00000  Uiso   1.00
C10    C     0.02657   0.19141   0.44834   0.00000  Uiso   1.00
C11    C     0.05364   0.20128   0.00369   0.00000  Uiso   1.00
C12    C     0.13469   0.15040   0.49298   0.00000  Uiso   1.00
C13    C     0.10735   0.18233   0.02527   0.00000  Uiso   1.00
C14    C     0.20731   0.00762   0.24568   0.00000  Uiso   1.00
C15    C     0.17990   0.29437   0.26508   0.00000  Uiso   1.00
C16    C     0.24880   0.03657   0.39618   0.00000  Uiso   1.00
C17    C     0.30900   0.03115   0.38311   0.00000  Uiso   1.00
C18    C     0.28805   0.25106   0.44272   0.00000  Uiso   1.00
C19    C     0.24700   0.24941   0.48191   0.00000  Uiso   1.00
C20    C     0.11005   0.14200   0.43657   0.00000  Uiso   1.00
C21    C     0.18968   0.13155   0.01468   0.00000  Uiso   1.00
C22    C     0.22524   0.11470   0.47974   0.00000  Uiso   1.00
C23    C     0.19941   0.10260   0.42440   0.00000  Uiso   1.00
C24    C     0.14076   0.11246   0.40450   0.00000  Uiso   1.00
C25    C     0.21172   0.13148   0.07061   0.00000  Uiso   1.00
C26    C     0.30949   0.12464   0.05623   0.00000  Uiso   1.00
H27    H     0.02315   0.12483   0.07174   0.00000  Uiso   1.00
H28    H     0.22403   0.03256   0.28324   0.00000  Uiso   1.00
H29    H     0.21511   0.27622   0.29359   0.00000  Uiso   1.00
H30    H     0.14765   0.30525   0.28888   0.00000  Uiso   1.00
H31    H     0.15872   0.26819   0.22929   0.00000  Uiso   1.00
H32    H     0.21557   0.00992   0.36881   0.00000  Uiso   1.00
H33    H     0.25104   0.02429   0.43843   0.00000  Uiso   1.00
H34    H     0.01068   0.03428   0.42131   0.00000  Uiso   1.00
H35    H     0.31065   0.32683   0.36141   0.00000  Uiso   1.00
H36    H     0.31879   0.06174   0.35680   0.00000  Uiso   1.00
H37    H     0.19322   0.09793   0.13187   0.00000  Uiso   1.00
H38    H     0.15589   0.12962   0.20519   0.00000  Uiso   1.00
H39    H     0.26376   0.26673   0.40462   0.00000  Uiso   1.00
H40    H     0.32712   0.27797   0.45959   0.00000  Uiso   1.00
H41    H     0.26603   0.22888   0.01876   0.00000  Uiso   1.00
H42    H     0.23910   0.28898   0.49517   0.00000  Uiso   1.00
H43    H     0.20433   0.22965   0.46084   0.00000  Uiso   1.00
H44    H     0.17805   0.19891   0.29822   0.00000  Uiso   1.00
H45    H     0.31474   0.09940   0.47607   0.00000  Uiso   1.00
H46    H     0.12734   0.19384   0.06751   0.00000  Uiso   1.00
H47    H     0.03268   0.22260   0.03101   0.00000  Uiso   1.00
H48    H     0.12116   0.09784   0.36322   0.00000  Uiso   1.00
H49    H     0.06430   0.00350   0.25674   0.00000  Uiso   1.00
H50    H     0.17315   0.02741   0.21740   0.00000  Uiso   1.00
N51    N     0.14493   0.15223   0.23543   0.00000  Uiso   1.00
N52    N     0.18840   0.18110   0.26458   0.00000  Uiso   1.00
O53    O     0.29769   0.24629   0.25358   0.00000  Uiso   1.00
O54    O     0.23218   0.08734   0.38775   0.00000  Uiso   1.00
O55    O     0.17361   0.12081   0.10389   0.00000  Uiso   1.00
O56    O     0.30134   0.20093   0.42834   0.00000  Uiso   1.00
O57    O     0.05742   0.23704   0.24424   0.00000  Uiso   1.00
O58    O     0.31490   0.17358   0.33380   0.00000  Uiso   1.00
O59    O     0.07463   0.16433   0.32446   0.00000  Uiso   1.00
O60    O     0.27592   0.09629   0.25577   0.00000  Uiso   1.00
O61    O     0.03565   0.08704   0.24643   0.00000  Uiso   1.00
O62    O     0.25870   0.16901   0.17554   0.00000  Uiso   1.00
O63    O     0.01843   0.15976   0.16620   0.00000  Uiso   1.00
O64    O     0.25015   0.32533   0.21755   0.00000  Uiso   1.00
Zn65   Zn    0.27119   0.17284   0.25624   0.00000  Uiso   1.00
Zn66   Zn    0.06214   0.16049   0.24377   0.00000  Uiso   1.00
C67    C     0.34705   0.26474   0.24689   0.00000  Uiso   1.00
C68    C     0.39014   0.16478   0.41396   0.00000  Uiso   1.00
C69    C     0.35349   0.31922   0.24680   0.00000  Uiso   1.00
C70    C     0.36971   0.16685   0.35451   0.00000  Uiso   1.00
C71    C     0.63965   0.01390   0.24111   0.00000  Uiso   1.00
C72    C     0.65086   0.06849   0.24841   0.00000  Uiso   1.00
C73    C     0.62906   0.15694   0.14660   0.00000  Uiso   1.00
C74    C     0.61879   0.11045   0.00147   0.00000  Uiso   1.00
C75    C     0.60584   0.13768   0.09051   0.00000  Uiso   1.00
C76    C     0.35990   0.19141   0.44834   0.00000  Uiso   1.00
C77    C     0.38698   0.20128   0.00369   0.00000  Uiso   1.00
C78    C     0.46802   0.15040   0.49298   0.00000  Uiso   1.00
C79    C     0.44068   0.18233   0.02527   0.00000  Uiso   1.00
C80    C     0.54065   0.00762   0.24568   0.00000  Uiso   1.00
C81    C     0.51323   0.29437   0.26508   0.00000  Uiso   1.00
C82    C     0.58213   0.03657   0.39618   0.00000  Uiso   1.00
C83    C     0.64234   0.03115   0.38311   0.00000  Uiso   1.00
C84    C     0.62138   0.25106   0.44272   0.00000  Uiso   1.00
C85    C     0.58033   0.24941   0.48191   0.00000  Uiso   1.00
C86    C     0.44339   0.14200   0.43657   0.00000  Uiso   1.00
C87    C     0.52301   0.13155   0.01468   0.00000  Uiso   1.00
C88    C     0.55857   0.11470   0.47974   0.00000  Uiso   1.00
C89    C     0.53274   0.10260   0.42440   0.00000  Uiso   1.00
C90    C     0.47409   0.11246   0.40450   0.00000  Uiso   1.00
C91    C     0.54506   0.13148   0.07061   0.00000  Uiso   1.00
C92    C     0.64282   0.12464   0.05623   0.00000  Uiso   1.00
H93    H     0.35648   0.12483   0.07174   0.00000  Uiso   1.00
H94    H     0.55736   0.03256   0.28324   0.00000  Uiso   1.00
H95    H     0.54844   0.27622   0.29359   0.00000  Uiso   1.00
H96    H     0.48098   0.30525   0.28888   0.00000  Uiso   1.00
H97    H     0.49205   0.26819   0.22929   0.00000  Uiso   1.00
H98    H     0.54890   0.00992   0.36881   0.00000  Uiso   1.00
H99    H     0.58437   0.02429   0.43843   0.00000  Uiso   1.00
H100   H     0.34401   0.03428   0.42131   0.00000  Uiso   1.00
H101   H     0.64398   0.32683   0.36141   0.00000  Uiso   1.00
H102   H     0.65212   0.06174   0.35680   0.00000  Uiso   1.00
H103   H     0.52656   0.09793   0.13187   0.00000  Uiso   1.00
H104   H     0.48922   0.12962   0.20519   0.00000  Uiso   1.00
H105   H     0.59709   0.26673   0.40462   0.00000  Uiso   1.00
H106   H     0.66045   0.27797   0.45959   0.00000  Uiso   1.00
H107   H     0.59936   0.22888   0.01876   0.00000  Uiso   1.00
H108   H     0.57244   0.28898   0.49517   0.00000  Uiso   1.00
H109   H     0.53766   0.22965   0.46084   0.00000  Uiso   1.00
H110   H     0.51139   0.19891   0.29822   0.00000  Uiso   1.00
H111   H     0.64807   0.09940   0.47607   0.00000  Uiso   1.00
H112   H     0.46068   0.19384   0.06751   0.00000  Uiso   1.00
H113   H     0.36601   0.22260   0.03101   0.00000  Uiso   1.00
H114   H     0.45449   0.09784   0.36322   0.00000  Uiso   1.00
H115   H     0.39763   0.00350   0.25674   0.00000  Uiso   1.00
H116   H     0.50649   0.02741   0.21740   0.00000  Uiso   1.00
N117   N     0.47827   0.15223   0.23543   0.00000  Uiso   1.00
N118   N     0.52173   0.18110   0.26458   0.00000  Uiso   1.00
O119   O     0.63102   0.24629   0.25358   0.00000  Uiso   1.00
O120   O     0.56551   0.08734   0.38775   0.00000  Uiso   1.00
O121   O     0.50694   0.12081   0.10389   0.00000  Uiso   1.00
O122   O     0.63468   0.20093   0.42834   0.00000  Uiso   1.00
O123   O     0.39075   0.23704   0.24424   0.00000  Uiso   1.00
O124   O     0.64823   0.17358   0.33380   0.00000  Uiso   1.00
O125   O     0.40796   0.16433   0.32446   0.00000  Uiso   1.00
O126   O     0.60925   0.09629   0.25577   0.00000  Uiso   1.00
O127   O     0.36898   0.08704   0.24643   0.00000  Uiso   1.00
O128   O     0.59204   0.16901   0.17554   0.00000  Uiso   1.00
O129   O     0.35177   0.15976   0.16620   0.00000  Uiso   1.00
O130   O     0.58349   0.32533   0.21755   0.00000  Uiso   1.00
Zn131  Zn    0.60453   0.17284   0.25624   0.00000  Uiso   1.00
Zn132  Zn    0.39547   0.16049   0.24377   0.00000  Uiso   1.00
C133   C     0.68039   0.26474   0.24689   0.00000  Uiso   1.00
C134   C     0.72347   0.16478   0.41396   0.00000  Uiso   1.00
C135   C     0.68683   0.31922   0.24680   0.00000  Uiso   1.00
C136   C     0.70304   0.16685   0.35451   0.00000  Uiso   1.00
C137   C     0.97299   0.01390   0.24111   0.00000  Uiso   1.00
C138   C     0.98419   0.06849   0.24841   0.00000  Uiso   1.00
C139   C     0.96239   0.15694   0.14660   0.00000  Uiso   1.00
C140   C     0.95213   0.11045   0.00147   0.00000  Uiso   1.00
C141   C     0.93917   0.13768   0.09051   0.00000  Uiso   1.00
C142   C     0.69323   0.19141   0.44834   0.00000  Uiso   1.00
C143   C     0.72031   0.20128   0.00369   0.00000  Uiso   1.00
C144   C     0.80135   0.15040   0.49298   0.00000  Uiso   1.00
C145   C     0.77402   0.18233   0.02527   0.00000  Uiso   1.00
C146   C     0.87398   0.00762   0.24568   0.00000  Uiso   1.00
C147   C     0.84656   0.29437   0.26508   0.00000  Uiso   1.00
C148   C     0.91547   0.03657   0.39618   0.00000  Uiso   1.00
C149   C     0.97567   0.03115   0.38311   0.00000  Uiso   1.00
C150   C     0.95472   0.25106   0.44272   0.00000  Uiso   1.00
C151   C     0.91366   0.24941   0.48191   0.00000  Uiso   1.00
C152   C     0.77672   0.14200   0.43657   0.00000  Uiso   1.00
C153   C     0.85635   0.13155   0.01468   0.00000  Uiso   1.00
C154   C     0.89190   0.11470   0.47974   0.00000  Uiso   1.00
C155   C     0.86607   0.10260   0.42440   0.00000  Uiso   1.00
C156   C     0.80742   0.11246   0.40450   0.00000  Uiso   1.00
C157   C     0.87839   0.13148   0.07061   0.00000  Uiso   1.00
C158   C     0.97616   0.12464   0.05623   0.00000  Uiso   1.00
H159   H     0.68981   0.12483   0.07174   0.00000  Uiso   1.00
H160   H     0.89070   0.03256   0.28324   0.00000  Uiso   1.00
H161   H     0.88177   0.27622   0.29359   0.00000  Uiso   1.00
H162   H     0.81432   0.30525   0.28888   0.00000  Uiso   1.00
H163   H     0.82539   0.26819   0.22929   0.00000  Uiso   1.00
H164   H     0.88224   0.00992   0.36881   0.00000  Uiso   1.00
H165   H     0.91770   0.02429   0.43843   0.00000  Uiso   1.00
H166   H     0.67735   0.03428   0.42131   0.00000  Uiso   1.00
H167   H     0.97731   0.32683   0.36141   0.00000  Uiso   1.00
H168   H     0.98546   0.06174   0.35680   0.00000  Uiso   1.00
H169   H     0.85989   0.09793   0.13187   0.00000  Uiso   1.00
H170   H     0.82256   0.12962   0.20519   0.00000  Uiso   1.00
H171   H     0.93043   0.26673   0.40462   0.00000  Uiso   1.00
H172   H     0.99379   0.27797   0.45959   0.00000  Uiso   1.00
H173   H     0.93270   0.22888   0.01876   0.00000  Uiso   1.00
H174   H     0.90577   0.28898   0.49517   0.00000  Uiso   1.00
H175   H     0.87099   0.22965   0.46084   0.00000  Uiso   1.00
H176   H     0.84472   0.19891   0.29822   0.00000  Uiso   1.00
H177   H     0.98141   0.09940   0.47607   0.00000  Uiso   1.00
H178   H     0.79401   0.19384   0.06751   0.00000  Uiso   1.00
H179   H     0.69935   0.22260   0.03101   0.00000  Uiso   1.00
H180   H     0.78782   0.09784   0.36322   0.00000  Uiso   1.00
H181   H     0.73096   0.00350   0.25674   0.00000  Uiso   1.00
H182   H     0.83982   0.02741   0.21740   0.00000  Uiso   1.00
N183   N     0.81160   0.15223   0.23543   0.00000  Uiso   1.00
N184   N     0.85507   0.18110   0.26458   0.00000  Uiso   1.00
O185   O     0.96435   0.24629   0.25358   0.00000  Uiso   1.00
O186   O     0.89884   0.08734   0.38775   0.00000  Uiso   1.00
O187   O     0.84028   0.12081   0.10389   0.00000  Uiso   1.00
O188   O     0.96801   0.20093   0.42834   0.00000  Uiso   1.00
O189   O     0.72408   0.23704   0.24424   0.00000  Uiso   1.00
O190   O     0.98157   0.17358   0.33380   0.00000  Uiso   1.00
O191   O     0.74130   0.16433   0.32446   0.00000  Uiso   1.00
O192   O     0.94258   0.09629   0.25577   0.00000  Uiso   1.00
O193   O     0.70231   0.08704   0.24643   0.00000  Uiso   1.00
O194   O     0.92537   0.16901   0.17554   0.00000  Uiso   1.00
O195   O     0.68510   0.15976   0.16620   0.00000  Uiso   1.00
O196   O     0.91682   0.32533   0.21755   0.00000  Uiso   1.00
Zn197  Zn    0.93786   0.17284   0.25624   0.00000  Uiso   1.00
Zn198  Zn    0.72881   0.16049   0.24377   0.00000  Uiso   1.00
C199   C     0.01372   0.59807   0.24689   0.00000  Uiso   1.00
C200   C     0.05681   0.49811   0.41396   0.00000  Uiso   1.00
C201   C     0.02016   0.65255   0.24680   0.00000  Uiso   1.00
C202   C     0.03637   0.50018   0.35451   0.00000  Uiso   1.00
C203   C     0.30632   0.34724   0.24111   0.00000  Uiso   1.00
C204   C     0.31752   0.40183   0.24841   0.00000  Uiso   1.00
C205   C     0.29573   0.49027   0.14660   0.00000  Uiso   1.00
C206   C     0.28546   0.44379   0.00147   0.00000  Uiso   1.00
C207   C     0.27251   0.47101   0.09051   0.00000  Uiso   1.00
C208   C     0.02657   0.52475   0.44834   0.00000  Uiso   1.00
C209   C     0.05364   0.53462   0.00369   0.00000  Uiso   1.00
C210   C     0.13469   0.48373   0.49298   0.00000  Uiso   1.00
C211   C     0.10735   0.51566   0.02527   0.00000  Uiso   1.00
C212   C     0.20731   0.34095   0.24568   0.00000  Uiso   1.00
C213   C     0.17990   0.62771   0.26508   0.00000  Uiso   1.00
C214   C     0.24880   0.36990   0.39618   0.00000  Uiso   1.00
C215   C     0.30900   0.36448   0.38311   0.00000  Uiso   1.00
C216   C     0.28805   0.58440   0.44272   0.00000  Uiso   1.00
C217   C     0.24700   0.58274   0.48191   0.00000  Uiso   1.00
C218   C     0.11005   0.47533   0.43657   0.00000  Uiso   1.00
C219   C     0.18968   0.46488   0.01468   0.00000  Uiso   1.00
C220   C     0.22524   0.44804   0.47974   0.00000  Uiso   1.00
C221   C     0.19941   0.43594   0.42440   0.00000  Uiso   1.00
C222   C     0.14076   0.44580   0.40450   0.00000  Uiso   1.00
C223   C     0.21172   0.46481   0.07061   0.00000  Uiso   1.00
C224   C     0.30949   0.45797   0.05623   0.00000  Uiso   1.00
H225   H     0.02315   0.45817   0.07174   0.00000  Uiso   1.00
H226   H     0.22403   0.36589   0.28324   0.00000  Uiso   1.00
H227   H     0.21511   0.60956   0.29359   0.00000  Uiso   1.00
H228   H     0.14765   0.63858   0.28888   0.00000  Uiso   1.00
H229   H     0.15872   0.60153   0.22929   0.00000  Uiso   1.00
H230   H     0.21557   0.34325   0.36881   0.00000  Uiso   1.00
H231   H     0.25104   0.35762   0.43843   0.00000  Uiso   1.00
H232   H     0.01068   0.36762   0.42131   0.00000  Uiso   1.00
H233   H     0.31065   0.66016   0.36141   0.00000  Uiso   1.00
H234   H     0.31879   0.39507   0.35680   0.00000  Uiso   1.00
H235   H     0.19322   0.43127   0.13187   0.00000  Uiso   1.00
H236   H     0.15589   0.46295   0.20519   0.00000  Uiso   1.00
H237   H     0.26376   0.60006   0.40462   0.00000  Uiso   1.00
H238   H     0.32712   0.61130   0.45959   0.00000  Uiso   1.00
H239   H     0.26603   0.56221   0.01876   0.00000  Uiso   1.00
H240   H     0.23910   0.62231   0.49517   0.00000  Uiso   1.00
H241   H     0.20433   0.56299   0.46084   0.00000  Uiso   1.00
H242   H     0.17805   0.53225   0.29822   0.00000  Uiso   1.00
H243   H     0.31474   0.43273   0.47607   0.00000  Uiso   1.00
H244   H     0.12734   0.52718   0.06751   0.00000  Uiso   1.00
H245   H     0.03268   0.55593   0.03101   0.00000  Uiso   1.00
H246   H     0.12116   0.43118   0.36322   0.00000  Uiso   1.00
H247   H     0.06430   0.33684   0.25674   0.00000  Uiso   1.00
H248   H     0.17315   0.36074   0.21740   0.00000  Uiso   1.00
N249   N     0.14493   0.48556   0.23543   0.00000  Uiso   1.00
N250   N     0.18840   0.51444   0.26458   0.00000  Uiso   1.00
O251   O     0.29769   0.57963   0.25358   0.00000  Uiso   1.00
O252   O     0.23218   0.42068   0.38775   0.00000  Uiso   1.00
O253   O     0.17361   0.45415   0.10389   0.00000  Uiso   1.00
O254   O     0.30134   0.53427   0.42834   0.00000  Uiso   1.00
O255   O     0.05742   0.57038   0.24424   0.00000  Uiso   1.00
O256   O     0.31490   0.50691   0.33380   0.00000  Uiso   1.00
O257   O     0.07463   0.49766   0.32446   0.00000  Uiso   1.00
O258   O     0.27592   0.42962   0.25577   0.00000  Uiso   1.00
O259   O     0.03565   0.42037   0.24643   0.00000  Uiso   1.00
O260   O     0.25870   0.50234   0.17554   0.00000  Uiso   1.00
O261   O     0.01843   0.49309   0.16620   0.00000  Uiso   1.00
O262   O     0.25015   0.65866   0.21755   0.00000  Uiso   1.00
Zn263  Zn    0.27119   0.50618   0.25624   0.00000  Uiso   1.00
Zn264  Zn    0.06214   0.49382   0.24377   0.00000  Uiso   1.00
C265   C     0.34705   0.59807   0.24689   0.00000  Uiso   1.00
C266   C     0.39014   0.49811   0.41396   0.00000  Uiso   1.00
C267   C     0.35349   0.65255   0.24680   0.00000  Uiso   1.00
C268   C     0.36971   0.50018   0.35451   0.00000  Uiso   1.00
C269   C     0.63965   0.34724   0.24111   0.00000  Uiso   1.00
C270   C     0.65086   0.40183   0.24841   0.00000  Uiso   1.00
C271   C     0.62906   0.49027   0.14660   0.00000  Uiso   1.00
C272   C     0.61879   0.44379   0.00147   0.00000  Uiso   1.00
C273   C     0.60584   0.47101   0.09051   0.00000  Uiso   1.00
C274   C     0.35990   0.52475   0.44834   0.00000  Uiso   1.00
C275   C     0.38698   0.53462   0.00369   0.00000  Uiso   1.00
C276   C     0.46802   0.48373   0.49298   0.00000  Uiso   1.00
C277   C     0.44068   0.51566   0.02527   0.00000  Uiso   1.00
C278   C     0.54065   0.34095   0.24568   0.00000  Uiso   1.00
C279   C     0.51323   0.62771   0.26508   0.00000  Uiso   1.00
C280   C     0.58213   0.36990   0.39618   0.00000  Uiso   1.00
C281   C     0.64234   0.36448   0.38311   0.00000  Uiso   1.00
C282   C     0.62138   0.58440   0.44272   0.00000  Uiso   1.00
C283   C     0.58033   0.58274   0.48191   0.00000  Uiso   1.00
C284   C     0.44339   0.47533   0.43657   0.00000  Uiso   1.00
C285   C     0.52301   0.46488   0.01468   0.00000  Uiso   1.00
C286   C     0.55857   0.44804   0.47974   0.00000  Uiso   1.00
C287   C     0.53274   0.43594   0.42440   0.00000  Uiso   1.00
C288   C     0.47409   0.44580   0.40450   0.00000  Uiso   1.00
C289   C     0.54506   0.46481   0.07061   0.00000  Uiso   1.00
C290   C     0.64282   0.45797   0.05623   0.00000  Uiso   1.00
H291   H     0.35648   0.45817   0.07174   0.00000  Uiso   1.00
H292   H     0.55736   0.36589   0.28324   0.00000  Uiso   1.00
H293   H     0.54844   0.60956   0.29359   0.00000  Uiso   1.00
H294   H     0.48098   0.63858   0.28888   0.00000  Uiso   1.00
H295   H     0.49205   0.60153   0.22929   0.00000  Uiso   1.00
H296   H     0.54890   0.34325   0.36881   0.00000  Uiso   1.00
H297   H     0.58437   0.35762   0.43843   0.00000  Uiso   1.00
H298   H     0.34401   0.36762   0.42131   0.00000  Uiso   1.00
H299   H     0.64398   0.66016   0.36141   0.00000  Uiso   1.00
H300   H     0.65212   0.39507   0.35680   0.00000  Uiso   1.00
H301   H     0.52656   0.43127   0.13187   0.00000  Uiso   1.00
H302   H     0.48922   0.46295   0.20519   0.00000  Uiso   1.00
H303   H     0.59709   0.60006   0.40462   0.00000  Uiso   1.00
H304   H     0.66045   0.61130   0.45959   0.00000  Uiso   1.00
H305   H     0.59936   0.56221   0.01876   0.00000  Uiso   1.00
H306   H     0.57244   0.62231   0.49517   0.00000  Uiso   1.00
H307   H     0.53766   0.56299   0.46084   0.00000  Uiso   1.00
H308   H     0.51139   0.53225   0.29822   0.00000  Uiso   1.00
H309   H     0.64807   0.43273   0.47607   0.00000  Uiso   1.00
H310   H     0.46068   0.52718   0.06751   0.00000  Uiso   1.00
H311   H     0.36601   0.55593   0.03101   0.00000  Uiso   1.00
H312   H     0.45449   0.43118   0.36322   0.00000  Uiso   1.00
H313   H     0.39763   0.33684   0.25674   0.00000  Uiso   1.00
H314   H     0.50649   0.36074   0.21740   0.00000  Uiso   1.00
N315   N     0.47827   0.48556   0.23543   0.00000  Uiso   1.00
N316   N     0.52173   0.51444   0.26458   0.00000  Uiso   1.00
O317   O     0.63102   0.57963   0.25358   0.00000  Uiso   1.00
O318   O     0.56551   0.42068   0.38775   0.00000  Uiso   1.00
O319   O     0.50694   0.45415   0.10389   0.00000  Uiso   1.00
O320   O     0.63468   0.53427   0.42834   0.00000  Uiso   1.00
O321   O     0.39075   0.57038   0.24424   0.00000  Uiso   1.00
O322   O     0.64823   0.50691   0.33380   0.00000  Uiso   1.00
O323   O     0.40796   0.49766   0.32446   0.00000  Uiso   1.00
O324   O     0.60925   0.42962   0.25577   0.00000  Uiso   1.00
O325   O     0.36898   0.42037   0.24643   0.00000  Uiso   1.00
O326   O     0.59204   0.50234   0.17554   0.00000  Uiso   1.00
O327   O     0.35177   0.49309   0.16620   0.00000  Uiso   1.00
O328   O     0.58349   0.65866   0.21755   0.00000  Uiso   1.00
Zn329  Zn    0.60453   0.50618   0.25624   0.00000  Uiso   1.00
Zn330  Zn    0.39547   0.49382   0.24377   0.00000  Uiso   1.00
C331   C     0.68039   0.59807   0.24689   0.00000  Uiso   1.00
C332   C     0.72347   0.49811   0.41396   0.00000  Uiso   1.00
C333   C     0.68683   0.65255   0.24680   0.00000  Uiso   1.00
C334   C     0.70304   0.50018   0.35451   0.00000  Uiso   1.00
C335   C     0.97299   0.34724   0.24111   0.00000  Uiso   1.00
C336   C     0.98419   0.40183   0.24841   0.00000  Uiso   1.00
C337   C     0.96239   0.49027   0.14660   0.00000  Uiso   1.00
C338   C     0.95213   0.44379   0.00147   0.00000  Uiso   1.00
C339   C     0.93917   0.47101   0.09051   0.00000  Uiso   1.00
C340   C     0.69323   0.52475   0.44834   0.00000  Uiso   1.00
C341   C     0.72031   0.53462   0.00369   0.00000  Uiso   1.00
C342   C     0.80135   0.48373   0.49298   0.00000  Uiso   1.00
C343   C     0.77402   0.51566   0.02527   0.00000  Uiso   1.00
C344   C     0.87398   0.34095   0.24568   0.00000  Uiso   1.00
C345   C     0.84656   0.62771   0.26508   0.00000  Uiso   1.00
C346   C     0.91547   0.36990   0.39618   0.00000  Uiso   1.00
C347   C     0.97567   0.36448   0.38311   0.00000  Uiso   1.00
C348   C     0.95472   0.58440   0.44272   0.00000  Uiso   1.00
C349   C     0.91366   0.58274   0.48191   0.00000  Uiso   1.00
C350   C     0.77672   0.47533   0.43657   0.00000  Uiso   1.00
C351   C     0.85635   0.46488   0.01468   0.00000  Uiso   1.00
C352   C     0.89190   0.44804   0.47974   0.00000  Uiso   1.00
C353   C     0.86607   0.43594   0.42440   0.00000  Uiso   1.00
C354   C     0.80742   0.44580   0.40450   0.00000  Uiso   1.00
C355   C     0.87839   0.46481   0.07061   0.00000  Uiso   1.00
C356   C     0.97616   0.45797   0.05623   0.00000  Uiso   1.00
H357   H     0.68981   0.45817   0.07174   0.00000  Uiso   1.00
H358   H     0.89070   0.36589   0.28324   0.00000  Uiso   1.00
H359   H     0.88177   0.60956   0.29359   0.00000  Uiso   1.00
H360   H     0.81432   0.63858   0.28888   0.00000  Uiso   1.00
H361   H     0.82539   0.60153   0.22929   0.00000  Uiso   1.00
H362   H     0.88224   0.34325   0.36881   0.00000  Uiso   1.00
H363   H     0.91770   0.35762   0.43843   0.00000  Uiso   1.00
H364   H     0.67735   0.36762   0.42131   0.00000  Uiso   1.00
H365   H     0.97731   0.66016   0.36141   0.00000  Uiso   1.00
H366   H     0.98546   0.39507   0.35680   0.00000  Uiso   1.00
H367   H     0.85989   0.43127   0.13187   0.00000  Uiso   1.00
H368   H     0.82256   0.46295   0.20519   0.00000  Uiso   1.00
H369   H     0.93043   0.60006   0.40462   0.00000  Uiso   1.00
H370   H     0.99379   0.61130   0.45959   0.00000  Uiso   1.00
H371   H     0.93270   0.56221   0.01876   0.00000  Uiso   1.00
H372   H     0.90577   0.62231   0.49517   0.00000  Uiso   1.00
H373   H     0.87099   0.56299   0.46084   0.00000  Uiso   1.00
H374   H     0.84472   0.53225   0.29822   0.00000  Uiso   1.00
H375   H     0.98141   0.43273   0.47607   0.00000  Uiso   1.00
H376   H     0.79401   0.52718   0.06751   0.00000  Uiso   1.00
H377   H     0.69935   0.55593   0.03101   0.00000  Uiso   1.00
H378   H     0.78782   0.43118   0.36322   0.00000  Uiso   1.00
H379   H     0.73096   0.33684   0.25674   0.00000  Uiso   1.00
H380   H     0.83982   0.36074   0.21740   0.00000  Uiso   1.00
N381   N     0.81160   0.48556   0.23543   0.00000  Uiso   1.00
N382   N     0.85507   0.51444   0.26458   0.00000  Uiso   1.00
O383   O     0.96435   0.57963   0.25358   0.00000  Uiso   1.00
O384   O     0.89884   0.42068   0.38775   0.00000  Uiso   1.00
O385   O     0.84028   0.45415   0.10389   0.00000  Uiso   1.00
O386   O     0.96801   0.53427   0.42834   0.00000  Uiso   1.00
O387   O     0.72408   0.57038   0.24424   0.00000  Uiso   1.00
O388   O     0.98157   0.50691   0.33380   0.00000  Uiso   1.00
O389   O     0.74130   0.49766   0.32446   0.00000  Uiso   1.00
O390   O     0.94258   0.42962   0.25577   0.00000  Uiso   1.00
O391   O     0.70231   0.42037   0.24643   0.00000  Uiso   1.00
O392   O     0.92537   0.50234   0.17554   0.00000  Uiso   1.00
O393   O     0.68510   0.49309   0.16620   0.00000  Uiso   1.00
O394   O     0.91682   0.65866   0.21755   0.00000  Uiso   1.00
Zn395  Zn    0.93786   0.50618   0.25624   0.00000  Uiso   1.00
Zn396  Zn    0.72881   0.49382   0.24377   0.00000  Uiso   1.00
C397   C     0.01372   0.93140   0.24689   0.00000  Uiso   1.00
C398   C     0.05681   0.83144   0.41396   0.00000  Uiso   1.00
C399   C     0.02016   0.98588   0.24680   0.00000  Uiso   1.00
C400   C     0.03637   0.83351   0.35451   0.00000  Uiso   1.00
C401   C     0.30632   0.68057   0.24111   0.00000  Uiso   1.00
C402   C     0.31752   0.73516   0.24841   0.00000  Uiso   1.00
C403   C     0.29573   0.82360   0.14660   0.00000  Uiso   1.00
C404   C     0.28546   0.77712   0.00147   0.00000  Uiso   1.00
C405   C     0.27251   0.80434   0.09051   0.00000  Uiso   1.00
C406   C     0.02657   0.85808   0.44834   0.00000  Uiso   1.00
C407   C     0.05364   0.86795   0.00369   0.00000  Uiso   1.00
C408   C     0.13469   0.81706   0.49298   0.00000  Uiso   1.00
C409   C     0.10735   0.84900   0.02527   0.00000  Uiso   1.00
C410   C     0.20731   0.67428   0.24568   0.00000  Uiso   1.00
C411   C     0.17990   0.96104   0.26508   0.00000  Uiso   1.00
C412   C     0.24880   0.70324   0.39618   0.00000  Uiso   1.00
C413   C     0.30900   0.69782   0.38311   0.00000  Uiso   1.00
C414   C     0.28805   0.91773   0.44272   0.00000  Uiso   1.00
C415   C     0.24700   0.91607   0.48191   0.00000  Uiso   1.00
C416   C     0.11005   0.80867   0.43657   0.00000  Uiso   1.00
C417   C     0.18968   0.79822   0.01468   0.00000  Uiso   1.00
C418   C     0.22524   0.78137   0.47974   0.00000  Uiso   1.00
C419   C     0.19941   0.76927   0.42440   0.00000  Uiso   1.00
C420   C     0.14076   0.77913   0.40450   0.00000  Uiso   1.00
C421   C     0.21172   0.79815   0.07061   0.00000  Uiso   1.00
C422   C     0.30949   0.79131   0.05623   0.00000  Uiso   1.00
H423   H     0.02315   0.79150   0.07174   0.00000  Uiso   1.00
H424   H     0.22403   0.69922   0.28324   0.00000  Uiso   1.00
H425   H     0.21511   0.94289   0.29359   0.00000  Uiso   1.00
H426   H     0.14765   0.97191   0.28888   0.00000  Uiso   1.00
H427   H     0.15872   0.93486   0.22929   0.00000  Uiso   1.00
H428   H     0.21557   0.67658   0.36881   0.00000  Uiso   1.00
H429   H     0.25104   0.69096   0.43843   0.00000  Uiso   1.00
H430   H     0.01068   0.70095   0.42131   0.00000  Uiso   1.00
H431   H     0.31065   0.99349   0.36141   0.00000  Uiso   1.00
H432   H     0.31879   0.72840   0.35680   0.00000  Uiso   1.00
H433   H     0.19322   0.76460   0.13187   0.00000  Uiso   1.00
H434   H     0.15589   0.79629   0.20519   0.00000  Uiso   1.00
H435   H     0.26376   0.93340   0.40462   0.00000  Uiso   1.00
H436   H     0.32712   0.94464   0.45959   0.00000  Uiso   1.00
H437   H     0.26603   0.89554   0.01876   0.00000  Uiso   1.00
H438   H     0.23910   0.95565   0.49517   0.00000  Uiso   1.00
H439   H     0.20433   0.89632   0.46084   0.00000  Uiso   1.00
H440   H     0.17805   0.86558   0.29822   0.00000  Uiso   1.00
H441   H     0.31474   0.76607   0.47607   0.00000  Uiso   1.00
H442   H     0.12734   0.86051   0.06751   0.00000  Uiso   1.00
H443   H     0.03268   0.88927   0.03101   0.00000  Uiso   1.00
H444   H     0.12116   0.76451   0.36322   0.00000  Uiso   1.00
H445   H     0.06430   0.67017   0.25674   0.00000  Uiso   1.00
H446   H     0.17315   0.69407   0.21740   0.00000  Uiso   1.00
N447   N     0.14493   0.81890   0.23543   0.00000  Uiso   1.00
N448   N     0.18840   0.84777   0.26458   0.00000  Uiso   1.00
O449   O     0.29769   0.91296   0.25358   0.00000  Uiso   1.00
O450   O     0.23218   0.75401   0.38775   0.00000  Uiso   1.00
O451   O     0.17361   0.78748   0.10389   0.00000  Uiso   1.00
O452   O     0.30134   0.86760   0.42834   0.00000  Uiso   1.00
O453   O     0.05742   0.90371   0.24424   0.00000  Uiso   1.00
O454   O     0.31490   0.84024   0.33380   0.00000  Uiso   1.00
O455   O     0.07463   0.83099   0.32446   0.00000  Uiso   1.00
O456   O     0.27592   0.76296   0.25577   0.00000  Uiso   1.00
O457   O     0.03565   0.75371   0.24643   0.00000  Uiso   1.00
O458   O     0.25870   0.83567   0.17554   0.00000  Uiso   1.00
O459   O     0.01843   0.82642   0.16620   0.00000  Uiso   1.00
O460   O     0.25015   0.99199   0.21755   0.00000  Uiso   1.00
Zn461  Zn    0.27119   0.83951   0.25624   0.00000  Uiso   1.00
Zn462  Zn    0.06214   0.82716   0.24377   0.00000  Uiso   1.00
C463   C     0.34705   0.93140   0.24689   0.00000  Uiso   1.00
C464   C     0.39014   0.83144   0.41396   0.00000  Uiso   1.00
C465   C     0.35349   0.98588   0.24680   0.00000  Uiso   1.00
C466   C     0.36971   0.83351   0.35451   0.00000  Uiso   1.00
C467   C     0.63965   0.68057   0.24111   0.00000  Uiso   1.00
C468   C     0.65086   0.73516   0.24841   0.00000  Uiso   1.00
C469   C     0.62906   0.82360   0.14660   0.00000  Uiso   1.00
C470   C     0.61879   0.77712   0.00147   0.00000  Uiso   1.00
C471   C     0.60584   0.80434   0.09051   0.00000  Uiso   1.00
C472   C     0.35990   0.85808   0.44834   0.00000  Uiso   1.00
C473   C     0.38698   0.86795   0.00369   0.00000  Uiso   1.00
C474   C     0.46802   0.81706   0.49298   0.00000  Uiso   1.00
C475   C     0.44068   0.84900   0.02527   0.00000  Uiso   1.00
C476   C     0.54065   0.67428   0.24568   0.00000  Uiso   1.00
C477   C     0.51323   0.96104   0.26508   0.00000  Uiso   1.00
C478   C     0.58213   0.70324   0.39618   0.00000  Uiso   1.00
C479   C     0.64234   0.69782   0.38311   0.00000  Uiso   1.00
C480   C     0.62138   0.91773   0.44272   0.00000  Uiso   1.00
C481   C     0.58033   0.91607   0.48191   0.00000  Uiso   1.00
C482   C     0.44339   0.80867   0.43657   0.00000  Uiso   1.00
C483   C     0.52301   0.79822   0.01468   0.00000  Uiso   1.00
C484   C     0.55857   0.78137   0.47974   0.00000  Uiso   1.00
C485   C     0.53274   0.76927   0.42440   0.00000  Uiso   1.00
C486   C     0.47409   0.77913   0.40450   0.00000  Uiso   1.00
C487   C     0.54506   0.79815   0.07061   0.00000  Uiso   1.00
C488   C     0.64282   0.79131   0.05623   0.00000  Uiso   1.00
H489   H     0.35648   0.79150   0.07174   0.00000  Uiso   1.00
H490   H     0.55736   0.69922   0.28324   0.00000  Uiso   1.00
H491   H     0.54844   0.94289   0.29359   0.00000  Uiso   1.00
H492   H     0.48098   0.97191   0.28888   0.00000  Uiso   1.00
H493   H     0.49205   0.93486   0.22929   0.00000  Uiso   1.00
H494   H     0.54890   0.67658   0.36881   0.00000  Uiso   1.00
H495   H     0.58437   0.69096   0.43843   0.00000  Uiso   1.00
H496   H     0.34401   0.70095   0.42131   0.00000  Uiso   1.00
H497   H     0.64398   0.99349   0.36141   0.00000  Uiso   1.00
H498   H     0.65212   0.72840   0.35680   0.00000  Uiso   1.00
H499   H     0.52656   0.76460   0.13187   0.00000  Uiso   1.00
H500   H     0.48922   0.79629   0.20519   0.00000  Uiso   1.00
H501   H     0.59709   0.93340   0.40462   0.00000  Uiso   1.00
H502   H     0.66045   0.94464   0.45959   0.00000  Uiso   1.00
H503   H     0.59936   0.89554   0.01876   0.00000  Uiso   1.00
H504   H     0.57244   0.95565   0.49517   0.00000  Uiso   1.00
H505   H     0.53766   0.89632   0.46084   0.00000  Uiso   1.00
H506   H     0.51139   0.86558   0.29822   0.00000  Uiso   1.00
H507   H     0.64807   0.76607   0.47607   0.00000  Uiso   1.00
H508   H     0.46068   0.86051   0.06751   0.00000  Uiso   1.00
H509   H     0.36601   0.88927   0.03101   0.00000  Uiso   1.00
H510   H     0.45449   0.76451   0.36322   0.00000  Uiso   1.00
H511   H     0.39763   0.67017   0.25674   0.00000  Uiso   1.00
H512   H     0.50649   0.69407   0.21740   0.00000  Uiso   1.00
N513   N     0.47827   0.81890   0.23543   0.00000  Uiso   1.00
N514   N     0.52173   0.84777   0.26458   0.00000  Uiso   1.00
O515   O     0.63102   0.91296   0.25358   0.00000  Uiso   1.00
O516   O     0.56551   0.75401   0.38775   0.00000  Uiso   1.00
O517   O     0.50694   0.78748   0.10389   0.00000  Uiso   1.00
O518   O     0.63468   0.86760   0.42834   0.00000  Uiso   1.00
O519   O     0.39075   0.90371   0.24424   0.00000  Uiso   1.00
O520   O     0.64823   0.84024   0.33380   0.00000  Uiso   1.00
O521   O     0.40796   0.83099   0.32446   0.00000  Uiso   1.00
O522   O     0.60925   0.76296   0.25577   0.00000  Uiso   1.00
O523   O     0.36898   0.75371   0.24643   0.00000  Uiso   1.00
O524   O     0.59204   0.83567   0.17554   0.00000  Uiso   1.00
O525   O     0.35177   0.82642   0.16620   0.00000  Uiso   1.00
O526   O     0.58349   0.99199   0.21755   0.00000  Uiso   1.00
Zn527  Zn    0.60453   0.83951   0.25624   0.00000  Uiso   1.00
Zn528  Zn    0.39547   0.82716   0.24377   0.00000  Uiso   1.00
C529   C     0.68039   0.93140   0.24689   0.00000  Uiso   1.00
C530   C     0.72347   0.83144   0.41396   0.00000  Uiso   1.00
C531   C     0.68683   0.98588   0.24680   0.00000  Uiso   1.00
C532   C     0.70304   0.83351   0.35451   0.00000  Uiso   1.00
C533   C     0.97299   0.68057   0.24111   0.00000  Uiso   1.00
C534   C     0.98419   0.73516   0.24841   0.00000  Uiso   1.00
C535   C     0.96239   0.82360   0.14660   0.00000  Uiso   1.00
C536   C     0.95213   0.77712   0.00147   0.00000  Uiso   1.00
C537   C     0.93917   0.80434   0.09051   0.00000  Uiso   1.00
C538   C     0.69323   0.85808   0.44834   0.00000  Uiso   1.00
C539   C     0.72031   0.86795   0.00369   0.00000  Uiso   1.00
C540   C     0.80135   0.81706   0.49298   0.00000  Uiso   1.00
C541   C     0.77402   0.84900   0.02527   0.00000  Uiso   1.00
C542   C     0.87398   0.67428   0.24568   0.00000  Uiso   1.00
C543   C     0.84656   0.96104   0.26508   0.00000  Uiso   1.00
C544   C     0.91547   0.70324   0.39618   0.00000  Uiso   1.00
C545   C     0.97567   0.69782   0.38311   0.00000  Uiso   1.00
C546   C     0.95472   0.91773   0.44272   0.00000  Uiso   1.00
C547   C     0.91366   0.91607   0.48191   0.00000  Uiso   1.00
C548   C     0.77672   0.80867   0.43657   0.00000  Uiso   1.00
C549   C     0.85635   0.79822   0.01468   0.00000  Uiso   1.00
C550   C     0.89190   0.78137   0.47974   0.00000  Uiso   1.00
C551   C     0.86607   0.76927   0.42440   0.00000  Uiso   1.00
C552   C     0.80742   0.77913   0.40450   0.00000  Uiso   1.00
C553   C     0.87839   0.79815   0.07061   0.00000  Uiso   1.00
C554   C     0.97616   0.79131   0.05623   0.00000  Uiso   1.00
H555   H     0.68981   0.79150   0.07174   0.00000  Uiso   1.00
H556   H     0.89070   0.69922   0.28324   0.00000  Uiso   1.00
H557   H     0.88177   0.94289   0.29359   0.00000  Uiso   1.00
H558   H     0.81432   0.97191   0.28888   0.00000  Uiso   1.00
H559   H     0.82539   0.93486   0.22929   0.00000  Uiso   1.00
H560   H     0.88224   0.67658   0.36881   0.00000  Uiso   1.00
H561   H     0.91770   0.69096   0.43843   0.00000  Uiso   1.00
H562   H     0.67735   0.70095   0.42131   0.00000  Uiso   1.00
H563   H     0.97731   0.99349   0.36141   0.00000  Uiso   1.00
H564   H     0.98546   0.72840   0.35680   0.00000  Uiso   1.00
H565   H     0.85989   0.76460   0.13187   0.00000  Uiso   1.00
H566   H     0.82256   0.79629   0.20519   0.00000  Uiso   1.00
H567   H     0.93043   0.93340   0.40462   0.00000  Uiso   1.00
H568   H     0.99379   0.94464   0.45959   0.00000  Uiso   1.00
H569   H     0.93270   0.89554   0.01876   0.00000  Uiso   1.00
H570   H     0.90577   0.95565   0.49517   0.00000  Uiso   1.00
H571   H     0.87099   0.89632   0.46084   0.00000  Uiso   1.00
H572   H     0.84472   0.86558   0.29822   0.00000  Uiso   1.00
H573   H     0.98141   0.76607   0.47607   0.00000  Uiso   1.00
H574   H     0.79401   0.86051   0.06751   0.00000  Uiso   1.00
H575   H     0.69935   0.88927   0.03101   0.00000  Uiso   1.00
H576   H     0.78782   0.76451   0.36322   0.00000  Uiso   1.00
H577   H     0.73096   0.67017   0.25674   0.00000  Uiso   1.00
H578   H     0.83982   0.69407   0.21740   0.00000  Uiso   1.00
N579   N     0.81160   0.81890   0.23543   0.00000  Uiso   1.00
N580   N     0.85507   0.84777   0.26458   0.00000  Uiso   1.00
O581   O     0.96435   0.91296   0.25358   0.00000  Uiso   1.00
O582   O     0.89884   0.75401   0.38775   0.00000  Uiso   1.00
O583   O     0.84028   0.78748   0.10389   0.00000  Uiso   1.00
O584   O     0.96801   0.86760   0.42834   0.00000  Uiso   1.00
O585   O     0.72408   0.90371   0.24424   0.00000  Uiso   1.00
O586   O     0.98157   0.84024   0.33380   0.00000  Uiso   1.00
O587   O     0.74130   0.83099   0.32446   0.00000  Uiso   1.00
O588   O     0.94258   0.76296   0.25577   0.00000  Uiso   1.00
O589   O     0.70231   0.75371   0.24643   0.00000  Uiso   1.00
O590   O     0.92537   0.83567   0.17554   0.00000  Uiso   1.00
O591   O     0.68510   0.82642   0.16620   0.00000  Uiso   1.00
O592   O     0.91682   0.99199   0.21755   0.00000  Uiso   1.00
Zn593  Zn    0.93786   0.83951   0.25624   0.00000  Uiso   1.00
Zn594  Zn    0.72881   0.82716   0.24377   0.00000  Uiso   1.00
C595   C     0.01372   0.26474   0.74689   0.00000  Uiso   1.00
C596   C     0.05681   0.16478   0.91396   0.00000  Uiso   1.00
C597   C     0.02016   0.31922   0.74680   0.00000  Uiso   1.00
C598   C     0.03637   0.16685   0.85451   0.00000  Uiso   1.00
C599   C     0.30632   0.01390   0.74111   0.00000  Uiso   1.00
C600   C     0.31752   0.06849   0.74841   0.00000  Uiso   1.00
C601   C     0.29573   0.15694   0.64660   0.00000  Uiso   1.00
C602   C     0.28546   0.11045   0.50147   0.00000  Uiso   1.00
C603   C     0.27251   0.13768   0.59051   0.00000  Uiso   1.00
C604   C     0.02657   0.19141   0.94834   0.00000  Uiso   1.00
C605   C     0.05364   0.20128   0.50369   0.00000  Uiso   1.00
C606   C     0.13469   0.15040   0.99298   0.00000  Uiso   1.00
C607   C     0.10735   0.18233   0.52527   0.00000  Uiso   1.00
C608   C     0.20731   0.00762   0.74568   0.00000  Uiso   1.00
C609   C     0.17990   0.29437   0.76508   0.00000  Uiso   1.00
C610   C     0.24880   0.03657   0.89618   0.00000  Uiso   1.00
C611   C     0.30900   0.03115   0.88311   0.00000  Uiso   1.00
C612   C     0.28805   0.25106   0.94272   0.00000  Uiso   1.00
C613   C     0.24700   0.24941   0.98191   0.00000  Uiso   1.00
C614   C     0.11005   0.14200   0.93657   0.00000  Uiso   1.00
C615   C     0.18968   0.13155   0.51468   0.00000  Uiso   1.00
C616   C     0.22524   0.11470   0.97974   0.00000  Uiso   1.00
C617   C     0.19941   0.10260   0.92440   0.00000  Uiso   1.00
C618   C     0.14076   0.11246   0.90450   0.00000  Uiso   1.00
C619   C     0.21172   0.13148   0.57061   0.00000  Uiso   1.00
C620   C     0.30949   0.12464   0.55623   0.00000  Uiso   1.00
H621   H     0.02315   0.12483   0.57174   0.00000  Uiso   1.00
H622   H     0.22403   0.03256   0.78324   0.00000  Uiso   1.00
H623   H     0.21511   0.27622   0.79359   0.00000  Uiso   1.00
H624   H     0.14765   0.30525   0.78888   0.00000  Uiso   1.00
H625   H     0.15872   0.26819   0.72929   0.00000  Uiso   1.00
H626   H     0.21557   0.00992   0.86881   0.00000  Uiso   1.00
H627   H     0.25104   0.02429   0.93843   0.00000  Uiso   1.00
H628   H     0.01068   0.03428   0.92131   0.00000  Uiso   1.00
H629   H     0.31065   0.32683   0.86141   0.00000  Uiso   1.00
H630   H     0.31879   0.06174   0.85680   0.00000  Uiso   1.00
H631   H     0.19322   0.09793   0.63187   0.00000  Uiso   1.00
H632   H     0.15589   0.12962   0.70519   0.00000  Uiso   1.00
H633   H     0.26376   0.26673   0.90462   0.00000  Uiso   1.00
H634   H     0.32712   0.27797   0.95959   0.00000  Uiso   1.00
H635   H     0.26603   0.22888   0.51876   0.00000  Uiso   1.00
H636   H     0.23910   0.28898   0.99517   0.00000  Uiso   1.00
H637   H     0.20433   0.22965   0.96084   0.00000  Uiso   1.00
H638   H     0.17805   0.19891   0.79822   0.00000  Uiso   1.00
H639   H     0.31474   0.09940   0.97607   0.00000  Uiso   1.00
H640   H     0.12734   0.19384   0.56751   0.00000  Uiso   1.00
H641   H     0.03268   0.22260   0.53101   0.00000  Uiso   1.00
H642   H     0.12116   0.09784   0.86322   0.00000  Uiso   1.00
H643   H     0.06430   0.00350   0.75674   0.00000  Uiso   1.00
H644   H     0.17315   0.02741   0.71740   0.00000  Uiso   1.00
N645   N     0.14493   0.15223   0.73543   0.00000  Uiso   1.00
N646   N     0.18840   0.18110   0.76458   0.00000  Uiso   1.00
O647   O     0.29769   0.24629   0.75358   0.00000  Uiso   1.00
O648   O     0.23218   0.08734   0.88775   0.00000  Uiso   1.00
O649   O     0.17361   0.12081   0.60389   0.00000  Uiso   1.00
O650   O     0.30134   0.20093   0.92834   0.00000  Uiso   1.00
O651   O     0.05742   0.23704   0.74424   0.00000  Uiso   1.00
O652   O     0.31490   0.17358   0.83380   0.00000  Uiso   1.00
O653   O     0.07463   0.16433   0.82446   0.00000  Uiso   1.00
O654   O     0.27592   0.09629   0.75577   0.00000  Uiso   1.00
O655   O     0.03565   0.08704   0.74643   0.00000  Uiso   1.00
O656   O     0.25870   0.16901   0.67554   0.00000  Uiso   1.00
O657   O     0.01843   0.15976   0.66620   0.00000  Uiso   1.00
O658   O     0.25015   0.32533   0.71755   0.00000  Uiso   1.00
Zn659  Zn    0.27119   0.17284   0.75624   0.00000  Uiso   1.00
Zn660  Zn    0.06214   0.16049   0.74377   0.00000  Uiso   1.00
C661   C     0.34705   0.26474   0.74689   0.00000  Uiso   1.00
C662   C     0.39014   0.16478   0.91396   0.00000  Uiso   1.00
C663   C     0.35349   0.31922   0.74680   0.00000  Uiso   1.00
C664   C     0.36971   0.16685   0.85451   0.00000  Uiso   1.00
C665   C     0.63965   0.01390   0.74111   0.00000  Uiso   1.00
C666   C     0.65086   0.06849   0.74841   0.00000  Uiso   1.00
C667   C     0.62906   0.15694   0.64660   0.00000  Uiso   1.00
C668   C     0.61879   0.11045   0.50147   0.00000  Uiso   1.00
C669   C     0.60584   0.13768   0.59051   0.00000  Uiso   1.00
C670   C     0.35990   0.19141   0.94834   0.00000  Uiso   1.00
C671   C     0.38698   0.20128   0.50369   0.00000  Uiso   1.00
C672   C     0.46802   0.15040   0.99298   0.00000  Uiso   1.00
C673   C     0.44068   0.18233   0.52527   0.00000  Uiso   1.00
C674   C     0.54065   0.00762   0.74568   0.00000  Uiso   1.00
C675   C     0.51323   0.29437   0.76508   0.00000  Uiso   1.00
C676   C     0.58213   0.03657   0.89618   0.00000  Uiso   1.00
C677   C     0.64234   0.03115   0.88311   0.00000  Uiso   1.00
C678   C     0.62138   0.25106   0.94272   0.00000  Uiso   1.00
C679   C     0.58033   0.24941   0.98191   0.00000  Uiso   1.00
C680   C     0.44339   0.14200   0.93657   0.00000  Uiso   1.00
C681   C     0.52301   0.13155   0.51468   0.00000  Uiso   1.00
C682   C     0.55857   0.11470   0.97974   0.00000  Uiso   1.00
C683   C     0.53274   0.10260   0.92440   0.00000  Uiso   1.00
C684   C     0.47409   0.11246   0.90450   0.00000  Uiso   1.00
C685   C     0.54506   0.13148   0.57061   0.00000  Uiso   1.00
C686   C     0.64282   0.12464   0.55623   0.00000  Uiso   1.00
H687   H     0.35648   0.12483   0.57174   0.00000  Uiso   1.00
H688   H     0.55736   0.03256   0.78324   0.00000  Uiso   1.00
H689   H     0.54844   0.27622   0.79359   0.00000  Uiso   1.00
H690   H     0.48098   0.30525   0.78888   0.00000  Uiso   1.00
H691   H     0.49205   0.26819   0.72929   0.00000  Uiso   1.00
H692   H     0.54890   0.00992   0.86881   0.00000  Uiso   1.00
H693   H     0.58437   0.02429   0.93843   0.00000  Uiso   1.00
H694   H     0.34401   0.03428   0.92131   0.00000  Uiso   1.00
H695   H     0.64398   0.32683   0.86141   0.00000  Uiso   1.00
H696   H     0.65212   0.06174   0.85680   0.00000  Uiso   1.00
H697   H     0.52656   0.09793   0.63187   0.00000  Uiso   1.00
H698   H     0.48922   0.12962   0.70519   0.00000  Uiso   1.00
H699   H     0.59709   0.26673   0.90462   0.00000  Uiso   1.00
H700   H     0.66045   0.27797   0.95959   0.00000  Uiso   1.00
H701   H     0.59936   0.22888   0.51876   0.00000  Uiso   1.00
H702   H     0.57244   0.28898   0.99517   0.00000  Uiso   1.00
H703   H     0.53766   0.22965   0.96084   0.00000  Uiso   1.00
H704   H     0.51139   0.19891   0.79822   0.00000  Uiso   1.00
H705   H     0.64807   0.09940   0.97607   0.00000  Uiso   1.00
H706   H     0.46068   0.19384   0.56751   0.00000  Uiso   1.00
H707   H     0.36601   0.22260   0.53101   0.00000  Uiso   1.00
H708   H     0.45449   0.09784   0.86322   0.00000  Uiso   1.00
H709   H     0.39763   0.00350   0.75674   0.00000  Uiso   1.00
H710   H     0.50649   0.02741   0.71740   0.00000  Uiso   1.00
N711   N     0.47827   0.15223   0.73543   0.00000  Uiso   1.00
N712   N     0.52173   0.18110   0.76458   0.00000  Uiso   1.00
O713   O     0.63102   0.24629   0.75358   0.00000  Uiso   1.00
O714   O     0.56551   0.08734   0.88775   0.00000  Uiso   1.00
O715   O     0.50694   0.12081   0.60389   0.00000  Uiso   1.00
O716   O     0.63468   0.20093   0.92834   0.00000  Uiso   1.00
O717   O     0.39075   0.23704   0.74424   0.00000  Uiso   1.00
O718   O     0.64823   0.17358   0.83380   0.00000  Uiso   1.00
O719   O     0.40796   0.16433   0.82446   0.00000  Uiso   1.00
O720   O     0.60925   0.09629   0.75577   0.00000  Uiso   1.00
O721   O     0.36898   0.08704   0.74643   0.00000  Uiso   1.00
O722   O     0.59204   0.16901   0.67554   0.00000  Uiso   1.00
O723   O     0.35177   0.15976   0.66620   0.00000  Uiso   1.00
O724   O     0.58349   0.32533   0.71755   0.00000  Uiso   1.00
Zn725  Zn    0.60453   0.17284   0.75624   0.00000  Uiso   1.00
Zn726  Zn    0.39547   0.16049   0.74377   0.00000  Uiso   1.00
C727   C     0.68039   0.26474   0.74689   0.00000  Uiso   1.00
C728   C     0.72347   0.16478   0.91396   0.00000  Uiso   1.00
C729   C     0.68683   0.31922   0.74680   0.00000  Uiso   1.00
C730   C     0.70304   0.16685   0.85451   0.00000  Uiso   1.00
C731   C     0.97299   0.01390   0.74111   0.00000  Uiso   1.00
C732   C     0.98419   0.06849   0.74841   0.00000  Uiso   1.00
C733   C     0.96239   0.15694   0.64660   0.00000  Uiso   1.00
C734   C     0.95213   0.11045   0.50147   0.00000  Uiso   1.00
C735   C     0.93917   0.13768   0.59051   0.00000  Uiso   1.00
C736   C     0.69323   0.19141   0.94834   0.00000  Uiso   1.00
C737   C     0.72031   0.20128   0.50369   0.00000  Uiso   1.00
C738   C     0.80135   0.15040   0.99298   0.00000  Uiso   1.00
C739   C     0.77402   0.18233   0.52527   0.00000  Uiso   1.00
C740   C     0.87398   0.00762   0.74568   0.00000  Uiso   1.00
C741   C     0.84656   0.29437   0.76508   0.00000  Uiso   1.00
C742   C     0.91547   0.03657   0.89618   0.00000  Uiso   1.00
C743   C     0.97567   0.03115   0.88311   0.00000  Uiso   1.00
C744   C     0.95472   0.25106   0.94272   0.00000  Uiso   1.00
C745   C     0.91366   0.24941   0.98191   0.00000  Uiso   1.00
C746   C     0.77672   0.14200   0.93657   0.00000  Uiso   1.00
C747   C     0.85635   0.13155   0.51468   0.00000  Uiso   1.00
C748   C     0.89190   0.11470   0.97974   0.00000  Uiso   1.00
C749   C     0.86607   0.10260   0.92440   0.00000  Uiso   1.00
C750   C     0.80742   0.11246   0.90450   0.00000  Uiso   1.00
C751   C     0.87839   0.13148   0.57061   0.00000  Uiso   1.00
C752   C     0.97616   0.12464   0.55623   0.00000  Uiso   1.00
H753   H     0.68981   0.12483   0.57174   0.00000  Uiso   1.00
H754   H     0.89070   0.03256   0.78324   0.00000  Uiso   1.00
H755   H     0.88177   0.27622   0.79359   0.00000  Uiso   1.00
H756   H     0.81432   0.30525   0.78888   0.00000  Uiso   1.00
H757   H     0.82539   0.26819   0.72929   0.00000  Uiso   1.00
H758   H     0.88224   0.00992   0.86881   0.00000  Uiso   1.00
H759   H     0.91770   0.02429   0.93843   0.00000  Uiso   1.00
H760   H     0.67735   0.03428   0.92131   0.00000  Uiso   1.00
H761   H     0.97731   0.32683   0.86141   0.00000  Uiso   1.00
H762   H     0.98546   0.06174   0.85680   0.00000  Uiso   1.00
H763   H     0.85989   0.09793   0.63187   0.00000  Uiso   1.00
H764   H     0.82256   0.12962   0.70519   0.00000  Uiso   1.00
H765   H     0.93043   0.26673   0.90462   0.00000  Uiso   1.00
H766   H     0.99379   0.27797   0.95959   0.00000  Uiso   1.00
H767   H     0.93270   0.22888   0.51876   0.00000  Uiso   1.00
H768   H     0.90577   0.28898   0.99517   0.00000  Uiso   1.00
H769   H     0.87099   0.22965   0.96084   0.00000  Uiso   1.00
H770   H     0.84472   0.19891   0.79822   0.00000  Uiso   1.00
H771   H     0.98141   0.09940   0.97607   0.00000  Uiso   1.00
H772   H     0.79401   0.19384   0.56751   0.00000  Uiso   1.00
H773   H     0.69935   0.22260   0.53101   0.00000  Uiso   1.00
H774   H     0.78782   0.09784   0.86322   0.00000  Uiso   1.00
H775   H     0.73096   0.00350   0.75674   0.00000  Uiso   1.00
H776   H     0.83982   0.02741   0.71740   0.00000  Uiso   1.00
N777   N     0.81160   0.15223   0.73543   0.00000  Uiso   1.00
N778   N     0.85507   0.18110   0.76458   0.00000  Uiso   1.00
O779   O     0.96435   0.24629   0.75358   0.00000  Uiso   1.00
O780   O     0.89884   0.08734   0.88775   0.00000  Uiso   1.00
O781   O     0.84028   0.12081   0.60389   0.00000  Uiso   1.00
O782   O     0.96801   0.20093   0.92834   0.00000  Uiso   1.00
O783   O     0.72408   0.23704   0.74424   0.00000  Uiso   1.00
O784   O     0.98157   0.17358   0.83380   0.00000  Uiso   1.00
O785   O     0.74130   0.16433   0.82446   0.00000  Uiso   1.00
O786   O     0.94258   0.09629   0.75577   0.00000  Uiso   1.00
O787   O     0.70231   0.08704   0.74643   0.00000  Uiso   1.00
O788   O     0.92537   0.16901   0.67554   0.00000  Uiso   1.00
O789   O     0.68510   0.15976   0.66620   0.00000  Uiso   1.00
O790   O     0.91682   0.32533   0.71755   0.00000  Uiso   1.00
Zn791  Zn    0.93786   0.17284   0.75624   0.00000  Uiso   1.00
Zn792  Zn    0.72881   0.16049   0.74377   0.00000  Uiso   1.00
C793   C     0.01372   0.59807   0.74689   0.00000  Uiso   1.00
C794   C     0.05681   0.49811   0.91396   0.00000  Uiso   1.00
C795   C     0.02016   0.65255   0.74680   0.00000  Uiso   1.00
C796   C     0.03637   0.50018   0.85451   0.00000  Uiso   1.00
C797   C     0.30632   0.34724   0.74111   0.00000  Uiso   1.00
C798   C     0.31752   0.40183   0.74841   0.00000  Uiso   1.00
C799   C     0.29573   0.49027   0.64660   0.00000  Uiso   1.00
C800   C     0.28546   0.44379   0.50147   0.00000  Uiso   1.00
C801   C     0.27251   0.47101   0.59051   0.00000  Uiso   1.00
C802   C     0.02657   0.52475   0.94834   0.00000  Uiso   1.00
C803   C     0.05364   0.53462   0.50369   0.00000  Uiso   1.00
C804   C     0.13469   0.48373   0.99298   0.00000  Uiso   1.00
C805   C     0.10735   0.51566   0.52527   0.00000  Uiso   1.00
C806   C     0.20731   0.34095   0.74568   0.00000  Uiso   1.00
C807   C     0.17990   0.62771   0.76508   0.00000  Uiso   1.00
C808   C     0.24880   0.36990   0.89618   0.00000  Uiso   1.00
C809   C     0.30900   0.36448   0.88311   0.00000  Uiso   1.00
C810   C     0.28805   0.58440   0.94272   0.00000  Uiso   1.00
C811   C     0.24700   0.58274   0.98191   0.00000  Uiso   1.00
C812   C     0.11005   0.47533   0.93657   0.00000  Uiso   1.00
C813   C     0.18968   0.46488   0.51468   0.00000  Uiso   1.00
C814   C     0.22524   0.44804   0.97974   0.00000  Uiso   1.00
C815   C     0.19941   0.43594   0.92440   0.00000  Uiso   1.00
C816   C     0.14076   0.44580   0.90450   0.00000  Uiso   1.00
C817   C     0.21172   0.46481   0.57061   0.00000  Uiso   1.00
C818   C     0.30949   0.45797   0.55623   0.00000  Uiso   1.00
H819   H     0.02315   0.45817   0.57174   0.00000  Uiso   1.00
H820   H     0.22403   0.36589   0.78324   0.00000  Uiso   1.00
H821   H     0.21511   0.60956   0.79359   0.00000  Uiso   1.00
H822   H     0.14765   0.63858   0.78888   0.00000  Uiso   1.00
H823   H     0.15872   0.60153   0.72929   0.00000  Uiso   1.00
H824   H     0.21557   0.34325   0.86881   0.00000  Uiso   1.00
H825   H     0.25104   0.35762   0.93843   0.00000  Uiso   1.00
H826   H     0.01068   0.36762   0.92131   0.00000  Uiso   1.00
H827   H     0.31065   0.66016   0.86141   0.00000  Uiso   1.00
H828   H     0.31879   0.39507   0.85680   0.00000  Uiso   1.00
H829   H     0.19322   0.43127   0.63187   0.00000  Uiso   1.00
H830   H     0.15589   0.46295   0.70519   0.00000  Uiso   1.00
H831   H     0.26376   0.60006   0.90462   0.00000  Uiso   1.00
H832   H     0.32712   0.61130   0.95959   0.00000  Uiso   1.00
H833   H     0.26603   0.56221   0.51876   0.00000  Uiso   1.00
H834   H     0.23910   0.62231   0.99517   0.00000  Uiso   1.00
H835   H     0.20433   0.56299   0.96084   0.00000  Uiso   1.00
H836   H     0.17805   0.53225   0.79822   0.00000  Uiso   1.00
H837   H     0.31474   0.43273   0.97607   0.00000  Uiso   1.00
H838   H     0.12734   0.52718   0.56751   0.00000  Uiso   1.00
H839   H     0.03268   0.55593   0.53101   0.00000  Uiso   1.00
H840   H     0.12116   0.43118   0.86322   0.00000  Uiso   1.00
H841   H     0.06430   0.33684   0.75674   0.00000  Uiso   1.00
H842   H     0.17315   0.36074   0.71740   0.00000  Uiso   1.00
N843   N     0.14493   0.48556   0.73543   0.00000  Uiso   1.00
N844   N     0.18840   0.51444   0.76458   0.00000  Uiso   1.00
O845   O     0.29769   0.57963   0.75358   0.00000  Uiso   1.00
O846   O     0.23218   0.42068   0.88775   0.00000  Uiso   1.00
O847   O     0.17361   0.45415   0.60389   0.00000  Uiso   1.00
O848   O     0.30134   0.53427   0.92834   0.00000  Uiso   1.00
O849   O     0.05742   0.57038   0.74424   0.00000  Uiso   1.00
O850   O     0.31490   0.50691   0.83380   0.00000  Uiso   1.00
O851   O     0.07463   0.49766   0.82446   0.00000  Uiso   1.00
O852   O     0.27592   0.42962   0.75577   0.00000  Uiso   1.00
O853   O     0.03565   0.42037   0.74643   0.00000  Uiso   1.00
O854   O     0.25870   0.50234   0.67554   0.00000  Uiso   1.00
O855   O     0.01843   0.49309   0.66620   0.00000  Uiso   1.00
O856   O     0.25015   0.65866   0.71755   0.00000  Uiso   1.00
Zn857  Zn    0.27119   0.50618   0.75624   0.00000  Uiso   1.00
Zn858  Zn    0.06214   0.49382   0.74377   0.00000  Uiso   1.00
C859   C     0.34705   0.59807   0.74689   0.00000  Uiso   1.00
C860   C     0.39014   0.49811   0.91396   0.00000  Uiso   1.00
C861   C     0.35349   0.65255   0.74680   0.00000  Uiso   1.00
C862   C     0.36971   0.50018   0.85451   0.00000  Uiso   1.00
C863   C     0.63965   0.34724   0.74111   0.00000  Uiso   1.00
C864   C     0.65086   0.40183   0.74841   0.00000  Uiso   1.00
C865   C     0.62906   0.49027   0.64660   0.00000  Uiso   1.00
C866   C     0.61879   0.44379   0.50147   0.00000  Uiso   1.00
C867   C     0.60584   0.47101   0.59051   0.00000  Uiso   1.00
C868   C     0.35990   0.52475   0.94834   0.00000  Uiso   1.00
C869   C     0.38698   0.53462   0.50369   0.00000  Uiso   1.00
C870   C     0.46802   0.48373   0.99298   0.00000  Uiso   1.00
C871   C     0.44068   0.51566   0.52527   0.00000  Uiso   1.00
C872   C     0.54065   0.34095   0.74568   0.00000  Uiso   1.00
C873   C     0.51323   0.62771   0.76508   0.00000  Uiso   1.00
C874   C     0.58213   0.36990   0.89618   0.00000  Uiso   1.00
C875   C     0.64234   0.36448   0.88311   0.00000  Uiso   1.00
C876   C     0.62138   0.58440   0.94272   0.00000  Uiso   1.00
C877   C     0.58033   0.58274   0.98191   0.00000  Uiso   1.00
C878   C     0.44339   0.47533   0.93657   0.00000  Uiso   1.00
C879   C     0.52301   0.46488   0.51468   0.00000  Uiso   1.00
C880   C     0.55857   0.44804   0.97974   0.00000  Uiso   1.00
C881   C     0.53274   0.43594   0.92440   0.00000  Uiso   1.00
C882   C     0.47409   0.44580   0.90450   0.00000  Uiso   1.00
C883   C     0.54506   0.46481   0.57061   0.00000  Uiso   1.00
C884   C     0.64282   0.45797   0.55623   0.00000  Uiso   1.00
H885   H     0.35648   0.45817   0.57174   0.00000  Uiso   1.00
H886   H     0.55736   0.36589   0.78324   0.00000  Uiso   1.00
H887   H     0.54844   0.60956   0.79359   0.00000  Uiso   1.00
H888   H     0.48098   0.63858   0.78888   0.00000  Uiso   1.00
H889   H     0.49205   0.60153   0.72929   0.00000  Uiso   1.00
H890   H     0.54890   0.34325   0.86881   0.00000  Uiso   1.00
H891   H     0.58437   0.35762   0.93843   0.00000  Uiso   1.00
H892   H     0.34401   0.36762   0.92131   0.00000  Uiso   1.00
H893   H     0.64398   0.66016   0.86141   0.00000  Uiso   1.00
H894   H     0.65212   0.39507   0.85680   0.00000  Uiso   1.00
H895   H     0.52656   0.43127   0.63187   0.00000  Uiso   1.00
H896   H     0.48922   0.46295   0.70519   0.00000  Uiso   1.00
H897   H     0.59709   0.60006   0.90462   0.00000  Uiso   1.00
H898   H     0.66045   0.61130   0.95959   0.00000  Uiso   1.00
H899   H     0.59936   0.56221   0.51876   0.00000  Uiso   1.00
H900   H     0.57244   0.62231   0.99517   0.00000  Uiso   1.00
H901   H     0.53766   0.56299   0.96084   0.00000  Uiso   1.00
H902   H     0.51139   0.53225   0.79822   0.00000  Uiso   1.00
H903   H     0.64807   0.43273   0.97607   0.00000  Uiso   1.00
H904   H     0.46068   0.52718   0.56751   0.00000  Uiso   1.00
H905   H     0.36601   0.55593   0.53101   0.00000  Uiso   1.00
H906   H     0.45449   0.43118   0.86322   0.00000  Uiso   1.00
H907   H     0.39763   0.33684   0.75674   0.00000  Uiso   1.00
H908   H     0.50649   0.36074   0.71740   0.00000  Uiso   1.00
N909   N     0.47827   0.48556   0.73543   0.00000  Uiso   1.00
N910   N     0.52173   0.51444   0.76458   0.00000  Uiso   1.00
O911   O     0.63102   0.57963   0.75358   0.00000  Uiso   1.00
O912   O     0.56551   0.42068   0.88775   0.00000  Uiso   1.00
O913   O     0.50694   0.45415   0.60389   0.00000  Uiso   1.00
O914   O     0.63468   0.53427   0.92834   0.00000  Uiso   1.00
O915   O     0.39075   0.57038   0.74424   0.00000  Uiso   1.00
O916   O     0.64823   0.50691   0.83380   0.00000  Uiso   1.00
O917   O     0.40796   0.49766   0.82446   0.00000  Uiso   1.00
O918   O     0.60925   0.42962   0.75577   0.00000  Uiso   1.00
O919   O     0.36898   0.42037   0.74643   0.00000  Uiso   1.00
O920   O     0.59204   0.50234   0.67554   0.00000  Uiso   1.00
O921   O     0.35177   0.49309   0.66620   0.00000  Uiso   1.00
O922   O     0.58349   0.65866   0.71755   0.00000  Uiso   1.00
Zn923  Zn    0.60453   0.50618   0.75624   0.00000  Uiso   1.00
Zn924  Zn    0.39547   0.49382   0.74377   0.00000  Uiso   1.00
C925   C     0.68039   0.59807   0.74689   0.00000  Uiso   1.00
C926   C     0.72347   0.49811   0.91396   0.00000  Uiso   1.00
C927   C     0.68683   0.65255   0.74680   0.00000  Uiso   1.00
C928   C     0.70304   0.50018   0.85451   0.00000  Uiso   1.00
C929   C     0.97299   0.34724   0.74111   0.00000  Uiso   1.00
C930   C     0.98419   0.40183   0.74841   0.00000  Uiso   1.00
C931   C     0.96239   0.49027   0.64660   0.00000  Uiso   1.00
C932   C     0.95213   0.44379   0.50147   0.00000  Uiso   1.00
C933   C     0.93917   0.47101   0.59051   0.00000  Uiso   1.00
C934   C     0.69323   0.52475   0.94834   0.00000  Uiso   1.00
C935   C     0.72031   0.53462   0.50369   0.00000  Uiso   1.00
C936   C     0.80135   0.48373   0.99298   0.00000  Uiso   1.00
C937   C     0.77402   0.51566   0.52527   0.00000  Uiso   1.00
C938   C     0.87398   0.34095   0.74568   0.00000  Uiso   1.00
C939   C     0.84656   0.62771   0.76508   0.00000  Uiso   1.00
C940   C     0.91547   0.36990   0.89618   0.00000  Uiso   1.00
C941   C     0.97567   0.36448   0.88311   0.00000  Uiso   1.00
C942   C     0.95472   0.58440   0.94272   0.00000  Uiso   1.00
C943   C     0.91366   0.58274   0.98191   0.00000  Uiso   1.00
C944   C     0.77672   0.47533   0.93657   0.00000  Uiso   1.00
C945   C     0.85635   0.46488   0.51468   0.00000  Uiso   1.00
C946   C     0.89190   0.44804   0.97974   0.00000  Uiso   1.00
C947   C     0.86607   0.43594   0.92440   0.00000  Uiso   1.00
C948   C     0.80742   0.44580   0.90450   0.00000  Uiso   1.00
C949   C     0.87839   0.46481   0.57061   0.00000  Uiso   1.00
C950   C     0.97616   0.45797   0.55623   0.00000  Uiso   1.00
H951   H     0.68981   0.45817   0.57174   0.00000  Uiso   1.00
H952   H     0.89070   0.36589   0.78324   0.00000  Uiso   1.00
H953   H     0.88177   0.60956   0.79359   0.00000  Uiso   1.00
H954   H     0.81432   0.63858   0.78888   0.00000  Uiso   1.00
H955   H     0.82539   0.60153   0.72929   0.00000  Uiso   1.00
H956   H     0.88224   0.34325   0.86881   0.00000  Uiso   1.00
H957   H     0.91770   0.35762   0.93843   0.00000  Uiso   1.00
H958   H     0.67735   0.36762   0.92131   0.00000  Uiso   1.00
H959   H     0.97731   0.66016   0.86141   0.00000  Uiso   1.00
H960   H     0.98546   0.39507   0.85680   0.00000  Uiso   1.00
H961   H     0.85989   0.43127   0.63187   0.00000  Uiso   1.00
H962   H     0.82256   0.46295   0.70519   0.00000  Uiso   1.00
H963   H     0.93043   0.60006   0.90462   0.00000  Uiso   1.00
H964   H     0.99379   0.61130   0.95959   0.00000  Uiso   1.00
H965   H     0.93270   0.56221   0.51876   0.00000  Uiso   1.00
H966   H     0.90577   0.62231   0.99517   0.00000  Uiso   1.00
H967   H     0.87099   0.56299   0.96084   0.00000  Uiso   1.00
H968   H     0.84472   0.53225   0.79822   0.00000  Uiso   1.00
H969   H     0.98141   0.43273   0.97607   0.00000  Uiso   1.00
H970   H     0.79401   0.52718   0.56751   0.00000  Uiso   1.00
H971   H     0.69935   0.55593   0.53101   0.00000  Uiso   1.00
H972   H     0.78782   0.43118   0.86322   0.00000  Uiso   1.00
H973   H     0.73096   0.33684   0.75674   0.00000  Uiso   1.00
H974   H     0.83982   0.36074   0.71740   0.00000  Uiso   1.00
N975   N     0.81160   0.48556   0.73543   0.00000  Uiso   1.00
N976   N     0.85507   0.51444   0.76458   0.00000  Uiso   1.00
O977   O     0.96435   0.57963   0.75358   0.00000  Uiso   1.00
O978   O     0.89884   0.42068   0.88775   0.00000  Uiso   1.00
O979   O     0.84028   0.45415   0.60389   0.00000  Uiso   1.00
O980   O     0.96801   0.53427   0.92834   0.00000  Uiso   1.00
O981   O     0.72408   0.57038   0.74424   0.00000  Uiso   1.00
O982   O     0.98157   0.50691   0.83380   0.00000  Uiso   1.00
O983   O     0.74130   0.49766   0.82446   0.00000  Uiso   1.00
O984   O     0.94258   0.42962   0.75577   0.00000  Uiso   1.00
O985   O     0.70231   0.42037   0.74643   0.00000  Uiso   1.00
O986   O     0.92537   0.50234   0.67554   0.00000  Uiso   1.00
O987   O     0.68510   0.49309   0.66620   0.00000  Uiso   1.00
O988   O     0.91682   0.65866   0.71755   0.00000  Uiso   1.00
Zn989  Zn    0.93786   0.50618   0.75624   0.00000  Uiso   1.00
Zn990  Zn    0.72881   0.49382   0.74377   0.00000  Uiso   1.00
C991   C     0.01372   0.93140   0.74689   0.00000  Uiso   1.00
C992   C     0.05681   0.83144   0.91396   0.00000  Uiso   1.00
C993   C     0.02016   0.98588   0.74680   0.00000  Uiso   1.00
C994   C     0.03637   0.83351   0.85451   0.00000  Uiso   1.00
C995   C     0.30632   0.68057   0.74111   0.00000  Uiso   1.00
C996   C     0.31752   0.73516   0.74841   0.00000  Uiso   1.00
C997   C     0.29573   0.82360   0.64660   0.00000  Uiso   1.00
C998   C     0.28546   0.77712   0.50147   0.00000  Uiso   1.00
C999   C     0.27251   0.80434   0.59051   0.00000  Uiso   1.00
C1000  C     0.02657   0.85808   0.94834   0.00000  Uiso   1.00
C1001  C     0.05364   0.86795   0.50369   0.00000  Uiso   1.00
C1002  C     0.13469   0.81706   0.99298   0.00000  Uiso   1.00
C1003  C     0.10735   0.84900   0.52527   0.00000  Uiso   1.00
C1004  C     0.20731   0.67428   0.74568   0.00000  Uiso   1.00
C1005  C     0.17990   0.96104   0.76508   0.00000  Uiso   1.00
C1006  C     0.24880   0.70324   0.89618   0.00000  Uiso   1.00
C1007  C     0.30900   0.69782   0.88311   0.00000  Uiso   1.00
C1008  C     0.28805   0.91773   0.94272   0.00000  Uiso   1.00
C1009  C     0.24700   0.91607   0.98191   0.00000  Uiso   1.00
C1010  C     0.11005   0.80867   0.93657   0.00000  Uiso   1.00
C1011  C     0.18968   0.79822   0.51468   0.00000  Uiso   1.00
C1012  C     0.22524   0.78137   0.97974   0.00000  Uiso   1.00
C1013  C     0.19941   0.76927   0.92440   0.00000  Uiso   1.00
C1014  C     0.14076   0.77913   0.90450   0.00000  Uiso   1.00
C1015  C     0.21172   0.79815   0.57061   0.00000  Uiso   1.00
C1016  C     0.30949   0.79131   0.55623   0.00000  Uiso   1.00
H1017  H     0.02315   0.79150   0.57174   0.00000  Uiso   1.00
H1018  H     0.22403   0.69922   0.78324   0.00000  Uiso   1.00
H1019  H     0.21511   0.94289   0.79359   0.00000  Uiso   1.00
H1020  H     0.14765   0.97191   0.78888   0.00000  Uiso   1.00
H1021  H     0.15872   0.93486   0.72929   0.00000  Uiso   1.00
H1022  H     0.21557   0.67658   0.86881   0.00000  Uiso   1.00
H1023  H     0.25104   0.69096   0.93843   0.00000  Uiso   1.00
H1024  H     0.01068   0.70095   0.92131   0.00000  Uiso   1.00
H1025  H     0.31065   0.99349   0.86141   0.00000  Uiso   1.00
H1026  H     0.31879   0.72840   0.85680   0.00000  Uiso   1.00
H1027  H     0.19322   0.76460   0.63187   0.00000  Uiso   1.00
H1028  H     0.15589   0.79629   0.70519   0.00000  Uiso   1.00
H1029  H     0.26376   0.93340   0.90462   0.00000  Uiso   1.00
H1030  H     0.32712   0.94464   0.95959   0.00000  Uiso   1.00
H1031  H     0.26603   0.89554   0.51876   0.00000  Uiso   1.00
H1032  H     0.23910   0.95565   0.99517   0.00000  Uiso   1.00
H1033  H     0.20433   0.89632   0.96084   0.00000  Uiso   1.00
H1034  H     0.17805   0.86558   0.79822   0.00000  Uiso   1.00
H1035  H     0.31474   0.76607   0.97607   0.00000  Uiso   1.00
H1036  H     0.12734   0.86051   0.56751   0.00000  Uiso   1.00
H1037  H     0.03268   0.88927   0.53101   0.00000  Uiso   1.00
H1038  H     0.12116   0.76451   0.86322   0.00000  Uiso   1.00
H1039  H     0.06430   0.67017   0.75674   0.00000  Uiso   1.00
H1040  H     0.17315   0.69407   0.71740   0.00000  Uiso   1.00
N1041  N     0.14493   0.81890   0.73543   0.00000  Uiso   1.00
N1042  N     0.18840   0.84777   0.76458   0.00000  Uiso   1.00
O1043  O     0.29769   0.91296   0.75358   0.00000  Uiso   1.00
O1044  O     0.23218   0.75401   0.88775   0.00000  Uiso   1.00
O1045  O     0.17361   0.78748   0.60389   0.00000  Uiso   1.00
O1046  O     0.30134   0.86760   0.92834   0.00000  Uiso   1.00
O1047  O     0.05742   0.90371   0.74424   0.00000  Uiso   1.00
O1048  O     0.31490   0.84024   0.83380   0.00000  Uiso   1.00
O1049  O     0.07463   0.83099   0.82446   0.00000  Uiso   1.00
O1050  O     0.27592   0.76296   0.75577   0.00000  Uiso   1.00
O1051  O     0.03565   0.75371   0.74643   0.00000  Uiso   1.00
O1052  O     0.25870   0.83567   0.67554   0.00000  Uiso   1.00
O1053  O     0.01843   0.82642   0.66620   0.00000  Uiso   1.00
O1054  O     0.25015   0.99199   0.71755   0.00000  Uiso   1.00
Zn1055 Zn    0.27119   0.83951   0.75624   0.00000  Uiso   1.00
Zn1056 Zn    0.06214   0.82716   0.74377   0.00000  Uiso   1.00
C1057  C     0.34705   0.93140   0.74689   0.00000  Uiso   1.00
C1058  C     0.39014   0.83144   0.91396   0.00000  Uiso   1.00
C1059  C     0.35349   0.98588   0.74680   0.00000  Uiso   1.00
C1060  C     0.36971   0.83351   0.85451   0.00000  Uiso   1.00
C1061  C     0.63965   0.68057   0.74111   0.00000  Uiso   1.00
C1062  C     0.65086   0.73516   0.74841   0.00000  Uiso   1.00
C1063  C     0.62906   0.82360   0.64660   0.00000  Uiso   1.00
C1064  C     0.61879   0.77712   0.50147   0.00000  Uiso   1.00
C1065  C     0.60584   0.80434   0.59051   0.00000  Uiso   1.00
C1066  C     0.35990   0.85808   0.94834   0.00000  Uiso   1.00
C1067  C     0.38698   0.86795   0.50369   0.00000  Uiso   1.00
C1068  C     0.46802   0.81706   0.99298   0.00000  Uiso   1.00
C1069  C     0.44068   0.84900   0.52527   0.00000  Uiso   1.00
C1070  C     0.54065   0.67428   0.74568   0.00000  Uiso   1.00
C1071  C     0.51323   0.96104   0.76508   0.00000  Uiso   1.00
C1072  C     0.58213   0.70324   0.89618   0.00000  Uiso   1.00
C1073  C     0.64234   0.69782   0.88311   0.00000  Uiso   1.00
C1074  C     0.62138   0.91773   0.94272   0.00000  Uiso   1.00
C1075  C     0.58033   0.91607   0.98191   0.00000  Uiso   1.00
C1076  C     0.44339   0.80867   0.93657   0.00000  Uiso   1.00
C1077  C     0.52301   0.79822   0.51468   0.00000  Uiso   1.00
C1078  C     0.55857   0.78137   0.97974   0.00000  Uiso   1.00
C1079  C     0.53274   0.76927   0.92440   0.00000  Uiso   1.00
C1080  C     0.47409   0.77913   0.90450   0.00000  Uiso   1.00
C1081  C     0.54506   0.79815   0.57061   0.00000  Uiso   1.00
C1082  C     0.64282   0.79131   0.55623   0.00000  Uiso   1.00
H1083  H     0.35648   0.79150   0.57174   0.00000  Uiso   1.00
H1084  H     0.55736   0.69922   0.78324   0.00000  Uiso   1.00
H1085  H     0.54844   0.94289   0.79359   0.00000  Uiso   1.00
H1086  H     0.48098   0.97191   0.78888   0.00000  Uiso   1.00
H1087  H     0.49205   0.93486   0.72929   0.00000  Uiso   1.00
H1088  H     0.54890   0.67658   0.86881   0.00000  Uiso   1.00
H1089  H     0.58437   0.69096   0.93843   0.00000  Uiso   1.00
H1090  H     0.34401   0.70095   0.92131   0.00000  Uiso   1.00
H1091  H     0.64398   0.99349   0.86141   0.00000  Uiso   1.00
H1092  H     0.65212   0.72840   0.85680   0.00000  Uiso   1.00
H1093  H     0.52656   0.76460   0.63187   0.00000  Uiso   1.00
H1094  H     0.48922   0.79629   0.70519   0.00000  Uiso   1.00
H1095  H     0.59709   0.93340   0.90462   0.00000  Uiso   1.00
H1096  H     0.66045   0.94464   0.95959   0.00000  Uiso   1.00
H1097  H     0.59936   0.89554   0.51876   0.00000  Uiso   1.00
H1098  H     0.57244   0.95565   0.99517   0.00000  Uiso   1.00
H1099  H     0.53766   0.89632   0.96084   0.00000  Uiso   1.00
H1100  H     0.51139   0.86558   0.79822   0.00000  Uiso   1.00
H1101  H     0.64807   0.76607   0.97607   0.00000  Uiso   1.00
H1102  H     0.46068   0.86051   0.56751   0.00000  Uiso   1.00
H1103  H     0.36601   0.88927   0.53101   0.00000  Uiso   1.00
H1104  H     0.45449   0.76451   0.86322   0.00000  Uiso   1.00
H1105  H     0.39763   0.67017   0.75674   0.00000  Uiso   1.00
H1106  H     0.50649   0.69407   0.71740   0.00000  Uiso   1.00
N1107  N     0.47827   0.81890   0.73543   0.00000  Uiso   1.00
N1108  N     0.52173   0.84777   0.76458   0.00000  Uiso   1.00
O1109  O     0.63102   0.91296   0.75358   0.00000  Uiso   1.00
O1110  O     0.56551   0.75401   0.88775   0.00000  Uiso   1.00
O1111  O     0.50694   0.78748   0.60389   0.00000  Uiso   1.00
O1112  O     0.63468   0.86760   0.92834   0.00000  Uiso   1.00
O1113  O     0.39075   0.90371   0.74424   0.00000  Uiso   1.00
O1114  O     0.64823   0.84024   0.83380   0.00000  Uiso   1.00
O1115  O     0.40796   0.83099   0.82446   0.00000  Uiso   1.00
O1116  O     0.60925   0.76296   0.75577   0.00000  Uiso   1.00
O1117  O     0.36898   0.75371   0.74643   0.00000  Uiso   1.00
O1118  O     0.59204   0.83567   0.67554   0.00000  Uiso   1.00
O1119  O     0.35177   0.82642   0.66620   0.00000  Uiso   1.00
O1120  O     0.58349   0.99199   0.71755   0.00000  Uiso   1.00
Zn1121 Zn    0.60453   0.83951   0.75624   0.00000  Uiso   1.00
Zn1122 Zn    0.39547   0.82716   0.74377   0.00000  Uiso   1.00
C1123  C     0.68039   0.93140   0.74689   0.00000  Uiso   1.00
C1124  C     0.72347   0.83144   0.91396   0.00000  Uiso   1.00
C1125  C     0.68683   0.98588   0.74680   0.00000  Uiso   1.00
C1126  C     0.70304   0.83351   0.85451   0.00000  Uiso   1.00
C1127  C     0.97299   0.68057   0.74111   0.00000  Uiso   1.00
C1128  C     0.98419   0.73516   0.74841   0.00000  Uiso   1.00
C1129  C     0.96239   0.82360   0.64660   0.00000  Uiso   1.00
C1130  C     0.95213   0.77712   0.50147   0.00000  Uiso   1.00
C1131  C     0.93917   0.80434   0.59051   0.00000  Uiso   1.00
C1132  C     0.69323   0.85808   0.94834   0.00000  Uiso   1.00
C1133  C     0.72031   0.86795   0.50369   0.00000  Uiso   1.00
C1134  C     0.80135   0.81706   0.99298   0.00000  Uiso   1.00
C1135  C     0.77402   0.84900   0.52527   0.00000  Uiso   1.00
C1136  C     0.87398   0.67428   0.74568   0.00000  Uiso   1.00
C1137  C     0.84656   0.96104   0.76508   0.00000  Uiso   1.00
C1138  C     0.91547   0.70324   0.89618   0.00000  Uiso   1.00
C1139  C     0.97567   0.69782   0.88311   0.00000  Uiso   1.00
C1140  C     0.95472   0.91773   0.94272   0.00000  Uiso   1.00
C1141  C     0.91366   0.91607   0.98191   0.00000  Uiso   1.00
C1142  C     0.77672   0.80867   0.93657   0.00000  Uiso   1.00
C1143  C     0.85635   0.79822   0.51468   0.00000  Uiso   1.00
C1144  C     0.89190   0.78137   0.97974   0.00000  Uiso   1.00
C1145  C     0.86607   0.76927   0.92440   0.00000  Uiso   1.00
C1146  C     0.80742   0.77913   0.90450   0.00000  Uiso   1.00
C1147  C     0.87839   0.79815   0.57061   0.00000  Uiso   1.00
C1148  C     0.97616   0.79131   0.55623   0.00000  Uiso   1.00
H1149  H     0.68981   0.79150   0.57174   0.00000  Uiso   1.00
H1150  H     0.89070   0.69922   0.78324   0.00000  Uiso   1.00
H1151  H     0.88177   0.94289   0.79359   0.00000  Uiso   1.00
H1152  H     0.81432   0.97191   0.78888   0.00000  Uiso   1.00
H1153  H     0.82539   0.93486   0.72929   0.00000  Uiso   1.00
H1154  H     0.88224   0.67658   0.86881   0.00000  Uiso   1.00
H1155  H     0.91770   0.69096   0.93843   0.00000  Uiso   1.00
H1156  H     0.67735   0.70095   0.92131   0.00000  Uiso   1.00
H1157  H     0.97731   0.99349   0.86141   0.00000  Uiso   1.00
H1158  H     0.98546   0.72840   0.85680   0.00000  Uiso   1.00
H1159  H     0.85989   0.76460   0.63187   0.00000  Uiso   1.00
H1160  H     0.82256   0.79629   0.70519   0.00000  Uiso   1.00
H1161  H     0.93043   0.93340   0.90462   0.00000  Uiso   1.00
H1162  H     0.99379   0.94464   0.95959   0.00000  Uiso   1.00
H1163  H     0.93270   0.89554   0.51876   0.00000  Uiso   1.00
H1164  H     0.90577   0.95565   0.99517   0.00000  Uiso   1.00
H1165  H     0.87099   0.89632   0.96084   0.00000  Uiso   1.00
H1166  H     0.84472   0.86558   0.79822   0.00000  Uiso   1.00
H1167  H     0.98141   0.76607   0.97607   0.00000  Uiso   1.00
H1168  H     0.79401   0.86051   0.56751   0.00000  Uiso   1.00
H1169  H     0.69935   0.88927   0.53101   0.00000  Uiso   1.00
H1170  H     0.78782   0.76451   0.86322   0.00000  Uiso   1.00
H1171  H     0.73096   0.67017   0.75674   0.00000  Uiso   1.00
H1172  H     0.83982   0.69407   0.71740   0.00000  Uiso   1.00
N1173  N     0.81160   0.81890   0.73543   0.00000  Uiso   1.00
N1174  N     0.85507   0.84777   0.76458   0.00000  Uiso   1.00
O1175  O     0.96435   0.91296   0.75358   0.00000  Uiso   1.00
O1176  O     0.89884   0.75401   0.88775   0.00000  Uiso   1.00
O1177  O     0.84028   0.78748   0.60389   0.00000  Uiso   1.00
O1178  O     0.96801   0.86760   0.92834   0.00000  Uiso   1.00
O1179  O     0.72408   0.90371   0.74424   0.00000  Uiso   1.00
O1180  O     0.98157   0.84024   0.83380   0.00000  Uiso   1.00
O1181  O     0.74130   0.83099   0.82446   0.00000  Uiso   1.00
O1182  O     0.94258   0.76296   0.75577   0.00000  Uiso   1.00
O1183  O     0.70231   0.75371   0.74643   0.00000  Uiso   1.00
O1184  O     0.92537   0.83567   0.67554   0.00000  Uiso   1.00
O1185  O     0.68510   0.82642   0.66620   0.00000  Uiso   1.00
O1186  O     0.91682   0.99199   0.71755   0.00000  Uiso   1.00
Zn1187 Zn    0.93786   0.83951   0.75624   0.00000  Uiso   1.00
Zn1188 Zn    0.72881   0.82716   0.74377   0.00000  Uiso   1.00
loop_
_geom_bond_atom_site_label_1
_geom_bond_atom_site_label_2
_geom_bond_distance
_geom_bond_site_symmetry_2
_ccdc_geom_bond_type
C1     O57     1.297   .     A
C1     C3      1.424   .     S
C1     O185    1.279   1_455 S
C2     C4      1.466   .     S
C2     C20     1.423   .     A
C2     C10     1.416   .     A
C3     C335    1.343   1_455 S
C3     H247    1.081   .     S
C4     O59     1.298   .     A
C4     O190    1.298   1_455 S
C5     C6      1.432   .     S
C5     C465    1.343   1_545 S
C5     O460    1.397   1_545 S
C6     O60     1.287   .     A
C6     O127    1.289   .     S
C7     O62     1.293   .     A
C7     C9      1.447   .     S
C7     O129    1.292   .     S
C8     C26     1.389   .     A
C8     C616    1.407   1_554 S
C8     H639    1.078   1_554 S
C9     C25     1.398   .     A
C9     C26     1.396   .     A
C10    C605    1.398   .     S
C10    O188    1.391   1_455 S
C11    H47     1.081   .     S
C11    C13     1.381   .     A
C11    C604    1.398   1_554 S
C12    C20     1.407   .     A
C12    C607    1.411   .     S
C12    C615    1.406   .     S
C13    H46     1.081   .     S
C13    C606    1.411   1_554 S
C14    H50     1.111   .     S
C14    H28     1.104   .     S
C14    C411    1.498   1_545 S
C14    O460    1.418   1_545 S
C15    H31     1.109   .     S
C15    H30     1.104   .     S
C15    H29     1.107   .     S
C15    C212    1.498   .     S
C16    H33     1.113   .     S
C16    H32     1.106   .     S
C16    O54     1.414   .     S
C16    C17     1.531   .     S
C17    H36     1.107   .     S
C17    H100    1.110   .     S
C17    H431    1.109   1_545 S
C18    H39     1.106   .     S
C18    O56     1.412   .     S
C18    C19     1.524   .     S
C18    H40     1.115   .     S
C19    H42     1.109   .     S
C19    H43     1.109   .     S
C19    H635    1.108   .     S
C20    C24     1.423   .     A
C21    C25     1.383   .     A
C21    C606    1.406   1_554 S
C21    C616    1.411   1_554 S
C22    C23     1.400   .     A
C22    C602    1.407   .     S
C22    C615    1.411   .     S
C23    C24     1.395   .     A
C23    O54     1.383   .     S
C24    H48     1.078   .     S
C25    O55     1.380   .     S
C26    H93     1.082   .     S
H27    C158    1.082   1_455 S
H34    C149    1.110   1_455 S
H35    C215    1.109   .     S
H37    O55     0.992   .     S
H38    N51     1.027   .     S
H41    C613    1.108   1_554 S
H44    N52     1.028   .     S
H45    C602    1.078   .     S
H49    C399    1.081   1_545 S
N51    N52     1.295   .     D
N51    Zn66    2.020   .     S
N52    Zn65    2.020   .     S
O53    Zn65    1.995   .     S
O53    C67     1.279   .     S
O56    C76     1.391   .     S
O57    Zn66    2.009   .     S
O58    Zn65    1.985   .     S
O58    C70     1.298   .     S
O59    Zn66    1.978   .     S
O60    Zn65    2.009   .     S
O61    Zn66    1.995   .     S
O61    C138    1.289   1_455 S
O62    Zn65    1.978   .     S
O63    Zn66    1.985   .     S
O63    C139    1.292   1_455 S
O64    C203    1.397   .     S
O64    C212    1.418   .     S
C67    O123    1.297   .     A
C67    C69     1.424   .     S
C68    C70     1.466   .     S
C68    C86     1.423   .     A
C68    C76     1.416   .     A
C69    C203    1.343   .     S
C69    H313    1.081   .     S
C70    O125    1.298   .     A
C71    C72     1.432   .     S
C71    C531    1.343   1_545 S
C71    O526    1.397   1_545 S
C72    O126    1.287   .     A
C72    O193    1.289   .     S
C73    O128    1.293   .     A
C73    C75     1.447   .     S
C73    O195    1.292   .     S
C74    C92     1.389   .     A
C74    C682    1.407   1_554 S
C74    H705    1.078   1_554 S
C75    C91     1.398   .     A
C75    C92     1.396   .     A
C76    C671    1.398   .     S
C77    H113    1.081   .     S
C77    C79     1.381   .     A
C77    C670    1.398   1_554 S
C78    C86     1.407   .     A
C78    C673    1.411   .     S
C78    C681    1.406   .     S
C79    H112    1.081   .     S
C79    C672    1.411   1_554 S
C80    H116    1.111   .     S
C80    H94     1.104   .     S
C80    C477    1.498   1_545 S
C80    O526    1.418   1_545 S
C81    H97     1.109   .     S
C81    H96     1.104   .     S
C81    H95     1.107   .     S
C81    C278    1.498   .     S
C82    H99     1.113   .     S
C82    H98     1.106   .     S
C82    O120    1.414   .     S
C82    C83     1.531   .     S
C83    H102    1.107   .     S
C83    H166    1.110   .     S
C83    H497    1.109   1_545 S
C84    H105    1.106   .     S
C84    O122    1.412   .     S
C84    C85     1.524   .     S
C84    H106    1.115   .     S
C85    H108    1.109   .     S
C85    H109    1.109   .     S
C85    H701    1.108   .     S
C86    C90     1.423   .     A
C87    C91     1.383   .     A
C87    C672    1.406   1_554 S
C87    C682    1.411   1_554 S
C88    C89     1.400   .     A
C88    C668    1.407   .     S
C88    C681    1.411   .     S
C89    C90     1.395   .     A
C89    O120    1.383   .     S
C90    H114    1.078   .     S
C91    O121    1.380   .     S
C92    H159    1.082   .     S
H101   C281    1.109   .     S
H103   O121    0.992   .     S
H104   N117    1.027   .     S
H107   C679    1.108   1_554 S
H110   N118    1.028   .     S
H111   C668    1.078   .     S
H115   C465    1.081   1_545 S
N117   N118    1.295   .     D
N117   Zn132   2.020   .     S
N118   Zn131   2.020   .     S
O119   Zn131   1.995   .     S
O119   C133    1.279   .     S
O122   C142    1.391   .     S
O123   Zn132   2.009   .     S
O124   Zn131   1.985   .     S
O124   C136    1.298   .     S
O125   Zn132   1.978   .     S
O126   Zn131   2.009   .     S
O127   Zn132   1.995   .     S
O128   Zn131   1.978   .     S
O129   Zn132   1.985   .     S
O130   C269    1.397   .     S
O130   C278    1.418   .     S
C133   O189    1.297   .     A
C133   C135    1.424   .     S
C134   C136    1.466   .     S
C134   C152    1.423   .     A
C134   C142    1.416   .     A
C135   C269    1.343   .     S
C135   H379    1.081   .     S
C136   O191    1.298   .     A
C137   C138    1.432   .     S
C137   C399    1.343   1_645 S
C137   O592    1.397   1_545 S
C138   O192    1.287   .     A
C138   O61     1.289   1_655 S
C139   O194    1.293   .     A
C139   C141    1.447   .     S
C139   O63     1.292   1_655 S
C140   C158    1.389   .     A
C140   C748    1.407   1_554 S
C140   H771    1.078   1_554 S
C141   C157    1.398   .     A
C141   C158    1.396   .     A
C142   C737    1.398   .     S
C143   H179    1.081   .     S
C143   C145    1.381   .     A
C143   C736    1.398   1_554 S
C144   C152    1.407   .     A
C144   C739    1.411   .     S
C144   C747    1.406   .     S
C145   H178    1.081   .     S
C145   C738    1.411   1_554 S
C146   H182    1.111   .     S
C146   H160    1.104   .     S
C146   C543    1.498   1_545 S
C146   O592    1.418   1_545 S
C147   H163    1.109   .     S
C147   H162    1.104   .     S
C147   H161    1.107   .     S
C147   C344    1.498   .     S
C148   H165    1.113   .     S
C148   H164    1.106   .     S
C148   O186    1.414   .     S
C148   C149    1.531   .     S
C149   H168    1.107   .     S
C149   H34     1.110   1_655 S
C149   H563    1.109   1_545 S
C150   H171    1.106   .     S
C150   O188    1.412   .     S
C150   C151    1.524   .     S
C150   H172    1.115   .     S
C151   H174    1.109   .     S
C151   H175    1.109   .     S
C151   H767    1.108   .     S
C152   C156    1.423   .     A
C153   C157    1.383   .     A
C153   C738    1.406   1_554 S
C153   C748    1.411   1_554 S
C154   C155    1.400   .     A
C154   C734    1.407   .     S
C154   C747    1.411   .     S
C155   C156    1.395   .     A
C155   O186    1.383   .     S
C156   H180    1.078   .     S
C157   O187    1.380   .     S
C158   H27     1.082   1_655 S
H167   C347    1.109   .     S
H169   O187    0.992   .     S
H170   N183    1.027   .     S
H173   C745    1.108   1_554 S
H176   N184    1.028   .     S
H177   C734    1.078   .     S
H181   C531    1.081   1_545 S
N183   N184    1.295   .     D
N183   Zn198   2.020   .     S
N184   Zn197   2.020   .     S
O185   Zn197   1.995   .     S
O185   C1      1.279   1_655 S
O188   C10     1.391   1_655 S
O189   Zn198   2.009   .     S
O190   Zn197   1.985   .     S
O190   C4      1.298   1_655 S
O191   Zn198   1.978   .     S
O192   Zn197   2.009   .     S
O193   Zn198   1.995   .     S
O194   Zn197   1.978   .     S
O195   Zn198   1.985   .     S
O196   C335    1.397   .     S
O196   C344    1.418   .     S
C199   O255    1.297   .     A
C199   C201    1.424   .     S
C199   O383    1.279   1_455 S
C200   C202    1.466   .     S
C200   C218    1.423   .     A
C200   C208    1.416   .     A
C201   C533    1.343   1_455 S
C201   H445    1.081   .     S
C202   O257    1.298   .     A
C202   O388    1.298   1_455 S
C203   C204    1.432   .     S
C204   O258    1.287   .     A
C204   O325    1.289   .     S
C205   O260    1.293   .     A
C205   C207    1.447   .     S
C205   O327    1.292   .     S
C206   C224    1.389   .     A
C206   C814    1.407   1_554 S
C206   H837    1.078   1_554 S
C207   C223    1.398   .     A
C207   C224    1.396   .     A
C208   C803    1.398   .     S
C208   O386    1.391   1_455 S
C209   H245    1.081   .     S
C209   C211    1.381   .     A
C209   C802    1.398   1_554 S
C210   C218    1.407   .     A
C210   C805    1.411   .     S
C210   C813    1.406   .     S
C211   H244    1.081   .     S
C211   C804    1.411   1_554 S
C212   H248    1.111   .     S
C212   H226    1.104   .     S
C213   H229    1.109   .     S
C213   H228    1.104   .     S
C213   H227    1.107   .     S
C213   C410    1.498   .     S
C214   H231    1.113   .     S
C214   H230    1.106   .     S
C214   O252    1.414   .     S
C214   C215    1.531   .     S
C215   H234    1.107   .     S
C215   H298    1.110   .     S
C216   H237    1.106   .     S
C216   O254    1.412   .     S
C216   C217    1.524   .     S
C216   H238    1.115   .     S
C217   H240    1.109   .     S
C217   H241    1.109   .     S
C217   H833    1.108   .     S
C218   C222    1.423   .     A
C219   C223    1.383   .     A
C219   C804    1.406   1_554 S
C219   C814    1.411   1_554 S
C220   C221    1.400   .     A
C220   C800    1.407   .     S
C220   C813    1.411   .     S
C221   C222    1.395   .     A
C221   O252    1.383   .     S
C222   H246    1.078   .     S
C223   O253    1.380   .     S
C224   H291    1.082   .     S
H225   C356    1.082   1_455 S
H232   C347    1.110   1_455 S
H233   C413    1.109   .     S
H235   O253    0.992   .     S
H236   N249    1.027   .     S
H239   C811    1.108   1_554 S
H242   N250    1.028   .     S
H243   C800    1.078   .     S
N249   N250    1.295   .     D
N249   Zn264   2.020   .     S
N250   Zn263   2.020   .     S
O251   Zn263   1.995   .     S
O251   C265    1.279   .     S
O254   C274    1.391   .     S
O255   Zn264   2.009   .     S
O256   Zn263   1.985   .     S
O256   C268    1.298   .     S
O257   Zn264   1.978   .     S
O258   Zn263   2.009   .     S
O259   Zn264   1.995   .     S
O259   C336    1.289   1_455 S
O260   Zn263   1.978   .     S
O261   Zn264   1.985   .     S
O261   C337    1.292   1_455 S
O262   C401    1.397   .     S
O262   C410    1.418   .     S
C265   O321    1.297   .     A
C265   C267    1.424   .     S
C266   C268    1.466   .     S
C266   C284    1.423   .     A
C266   C274    1.416   .     A
C267   C401    1.343   .     S
C267   H511    1.081   .     S
C268   O323    1.298   .     A
C269   C270    1.432   .     S
C270   O324    1.287   .     A
C270   O391    1.289   .     S
C271   O326    1.293   .     A
C271   C273    1.447   .     S
C271   O393    1.292   .     S
C272   C290    1.389   .     A
C272   C880    1.407   1_554 S
C272   H903    1.078   1_554 S
C273   C289    1.398   .     A
C273   C290    1.396   .     A
C274   C869    1.398   .     S
C275   H311    1.081   .     S
C275   C277    1.381   .     A
C275   C868    1.398   1_554 S
C276   C284    1.407   .     A
C276   C871    1.411   .     S
C276   C879    1.406   .     S
C277   H310    1.081   .     S
C277   C870    1.411   1_554 S
C278   H314    1.111   .     S
C278   H292    1.104   .     S
C279   H295    1.109   .     S
C279   H294    1.104   .     S
C279   H293    1.107   .     S
C279   C476    1.498   .     S
C280   H297    1.113   .     S
C280   H296    1.106   .     S
C280   O318    1.414   .     S
C280   C281    1.531   .     S
C281   H300    1.107   .     S
C281   H364    1.110   .     S
C282   H303    1.106   .     S
C282   O320    1.412   .     S
C282   C283    1.524   .     S
C282   H304    1.115   .     S
C283   H306    1.109   .     S
C283   H307    1.109   .     S
C283   H899    1.108   .     S
C284   C288    1.423   .     A
C285   C289    1.383   .     A
C285   C870    1.406   1_554 S
C285   C880    1.411   1_554 S
C286   C287    1.400   .     A
C286   C866    1.407   .     S
C286   C879    1.411   .     S
C287   C288    1.395   .     A
C287   O318    1.383   .     S
C288   H312    1.078   .     S
C289   O319    1.380   .     S
C290   H357    1.082   .     S
H299   C479    1.109   .     S
H301   O319    0.992   .     S
H302   N315    1.027   .     S
H305   C877    1.108   1_554 S
H308   N316    1.028   .     S
H309   C866    1.078   .     S
N315   N316    1.295   .     D
N315   Zn330   2.020   .     S
N316   Zn329   2.020   .     S
O317   Zn329   1.995   .     S
O317   C331    1.279   .     S
O320   C340    1.391   .     S
O321   Zn330   2.009   .     S
O322   Zn329   1.985   .     S
O322   C334    1.298   .     S
O323   Zn330   1.978   .     S
O324   Zn329   2.009   .     S
O325   Zn330   1.995   .     S
O326   Zn329   1.978   .     S
O327   Zn330   1.985   .     S
O328   C467    1.397   .     S
O328   C476    1.418   .     S
C331   O387    1.297   .     A
C331   C333    1.424   .     S
C332   C334    1.466   .     S
C332   C350    1.423   .     A
C332   C340    1.416   .     A
C333   C467    1.343   .     S
C333   H577    1.081   .     S
C334   O389    1.298   .     A
C335   C336    1.432   .     S
C335   C3      1.343   1_655 S
C336   O390    1.287   .     A
C336   O259    1.289   1_655 S
C337   O392    1.293   .     A
C337   C339    1.447   .     S
C337   O261    1.292   1_655 S
C338   C356    1.389   .     A
C338   C946    1.407   1_554 S
C338   H969    1.078   1_554 S
C339   C355    1.398   .     A
C339   C356    1.396   .     A
C340   C935    1.398   .     S
C341   H377    1.081   .     S
C341   C343    1.381   .     A
C341   C934    1.398   1_554 S
C342   C350    1.407   .     A
C342   C937    1.411   .     S
C342   C945    1.406   .     S
C343   H376    1.081   .     S
C343   C936    1.411   1_554 S
C344   H380    1.111   .     S
C344   H358    1.104   .     S
C345   H361    1.109   .     S
C345   H360    1.104   .     S
C345   H359    1.107   .     S
C345   C542    1.498   .     S
C346   H363    1.113   .     S
C346   H362    1.106   .     S
C346   O384    1.414   .     S
C346   C347    1.531   .     S
C347   H366    1.107   .     S
C347   H232    1.110   1_655 S
C348   H369    1.106   .     S
C348   O386    1.412   .     S
C348   C349    1.524   .     S
C348   H370    1.115   .     S
C349   H372    1.109   .     S
C349   H373    1.109   .     S
C349   H965    1.108   .     S
C350   C354    1.423   .     A
C351   C355    1.383   .     A
C351   C936    1.406   1_554 S
C351   C946    1.411   1_554 S
C352   C353    1.400   .     A
C352   C932    1.407   .     S
C352   C945    1.411   .     S
C353   C354    1.395   .     A
C353   O384    1.383   .     S
C354   H378    1.078   .     S
C355   O385    1.380   .     S
C356   H225    1.082   1_655 S
H365   C545    1.109   .     S
H367   O385    0.992   .     S
H368   N381    1.027   .     S
H371   C943    1.108   1_554 S
H374   N382    1.028   .     S
H375   C932    1.078   .     S
N381   N382    1.295   .     D
N381   Zn396   2.020   .     S
N382   Zn395   2.020   .     S
O383   Zn395   1.995   .     S
O383   C199    1.279   1_655 S
O386   C208    1.391   1_655 S
O387   Zn396   2.009   .     S
O388   Zn395   1.985   .     S
O388   C202    1.298   1_655 S
O389   Zn396   1.978   .     S
O390   Zn395   2.009   .     S
O391   Zn396   1.995   .     S
O392   Zn395   1.978   .     S
O393   Zn396   1.985   .     S
O394   C533    1.397   .     S
O394   C542    1.418   .     S
C397   O453    1.297   .     A
C397   C399    1.424   .     S
C397   O581    1.279   1_455 S
C398   C400    1.466   .     S
C398   C416    1.423   .     A
C398   C406    1.416   .     A
C399   C137    1.343   1_465 S
C399   H49     1.081   1_565 S
C400   O455    1.298   .     A
C400   O586    1.298   1_455 S
C401   C402    1.432   .     S
C402   O456    1.287   .     A
C402   O523    1.289   .     S
C403   O458    1.293   .     A
C403   C405    1.447   .     S
C403   O525    1.292   .     S
C404   C422    1.389   .     A
C404   C1012   1.407   1_554 S
C404   H1035   1.078   1_554 S
C405   C421    1.398   .     A
C405   C422    1.396   .     A
C406   C1001   1.398   .     S
C406   O584    1.391   1_455 S
C407   H443    1.081   .     S
C407   C409    1.381   .     A
C407   C1000   1.398   1_554 S
C408   C416    1.407   .     A
C408   C1003   1.411   .     S
C408   C1011   1.406   .     S
C409   H442    1.081   .     S
C409   C1002   1.411   1_554 S
C410   H446    1.111   .     S
C410   H424    1.104   .     S
C411   H427    1.109   .     S
C411   H426    1.104   .     S
C411   H425    1.107   .     S
C411   C14     1.498   1_565 S
C412   H429    1.113   .     S
C412   H428    1.106   .     S
C412   O450    1.414   .     S
C412   C413    1.531   .     S
C413   H432    1.107   .     S
C413   H496    1.110   .     S
C414   H435    1.106   .     S
C414   O452    1.412   .     S
C414   C415    1.524   .     S
C414   H436    1.115   .     S
C415   H438    1.109   .     S
C415   H439    1.109   .     S
C415   H1031   1.108   .     S
C416   C420    1.423   .     A
C417   C421    1.383   .     A
C417   C1002   1.406   1_554 S
C417   C1012   1.411   1_554 S
C418   C419    1.400   .     A
C418   C998    1.407   .     S
C418   C1011   1.411   .     S
C419   C420    1.395   .     A
C419   O450    1.383   .     S
C420   H444    1.078   .     S
C421   O451    1.380   .     S
C422   H489    1.082   .     S
H423   C554    1.082   1_455 S
H430   C545    1.110   1_455 S
H431   C17     1.109   1_565 S
H433   O451    0.992   .     S
H434   N447    1.027   .     S
H437   C1009   1.108   1_554 S
H440   N448    1.028   .     S
H441   C998    1.078   .     S
N447   N448    1.295   .     D
N447   Zn462   2.020   .     S
N448   Zn461   2.020   .     S
O449   Zn461   1.995   .     S
O449   C463    1.279   .     S
O452   C472    1.391   .     S
O453   Zn462   2.009   .     S
O454   Zn461   1.985   .     S
O454   C466    1.298   .     S
O455   Zn462   1.978   .     S
O456   Zn461   2.009   .     S
O457   Zn462   1.995   .     S
O457   C534    1.289   1_455 S
O458   Zn461   1.978   .     S
O459   Zn462   1.985   .     S
O459   C535    1.292   1_455 S
O460   C5      1.397   1_565 S
O460   C14     1.418   1_565 S
C463   O519    1.297   .     A
C463   C465    1.424   .     S
C464   C466    1.466   .     S
C464   C482    1.423   .     A
C464   C472    1.416   .     A
C465   C5      1.343   1_565 S
C465   H115    1.081   1_565 S
C466   O521    1.298   .     A
C467   C468    1.432   .     S
C468   O522    1.287   .     A
C468   O589    1.289   .     S
C469   O524    1.293   .     A
C469   C471    1.447   .     S
C469   O591    1.292   .     S
C470   C488    1.389   .     A
C470   C1078   1.407   1_554 S
C470   H1101   1.078   1_554 S
C471   C487    1.398   .     A
C471   C488    1.396   .     A
C472   C1067   1.398   .     S
C473   H509    1.081   .     S
C473   C475    1.381   .     A
C473   C1066   1.398   1_554 S
C474   C482    1.407   .     A
C474   C1069   1.411   .     S
C474   C1077   1.406   .     S
C475   H508    1.081   .     S
C475   C1068   1.411   1_554 S
C476   H512    1.111   .     S
C476   H490    1.104   .     S
C477   H493    1.109   .     S
C477   H492    1.104   .     S
C477   H491    1.107   .     S
C477   C80     1.498   1_565 S
C478   H495    1.113   .     S
C478   H494    1.106   .     S
C478   O516    1.414   .     S
C478   C479    1.531   .     S
C479   H498    1.107   .     S
C479   H562    1.110   .     S
C480   H501    1.106   .     S
C480   O518    1.412   .     S
C480   C481    1.524   .     S
C480   H502    1.115   .     S
C481   H504    1.109   .     S
C481   H505    1.109   .     S
C481   H1097   1.108   .     S
C482   C486    1.423   .     A
C483   C487    1.383   .     A
C483   C1068   1.406   1_554 S
C483   C1078   1.411   1_554 S
C484   C485    1.400   .     A
C484   C1064   1.407   .     S
C484   C1077   1.411   .     S
C485   C486    1.395   .     A
C485   O516    1.383   .     S
C486   H510    1.078   .     S
C487   O517    1.380   .     S
C488   H555    1.082   .     S
H497   C83     1.109   1_565 S
H499   O517    0.992   .     S
H500   N513    1.027   .     S
H503   C1075   1.108   1_554 S
H506   N514    1.028   .     S
H507   C1064   1.078   .     S
N513   N514    1.295   .     D
N513   Zn528   2.020   .     S
N514   Zn527   2.020   .     S
O515   Zn527   1.995   .     S
O515   C529    1.279   .     S
O518   C538    1.391   .     S
O519   Zn528   2.009   .     S
O520   Zn527   1.985   .     S
O520   C532    1.298   .     S
O521   Zn528   1.978   .     S
O522   Zn527   2.009   .     S
O523   Zn528   1.995   .     S
O524   Zn527   1.978   .     S
O525   Zn528   1.985   .     S
O526   C71     1.397   1_565 S
O526   C80     1.418   1_565 S
C529   O585    1.297   .     A
C529   C531    1.424   .     S
C530   C532    1.466   .     S
C530   C548    1.423   .     A
C530   C538    1.416   .     A
C531   C71     1.343   1_565 S
C531   H181    1.081   1_565 S
C532   O587    1.298   .     A
C533   C534    1.432   .     S
C533   C201    1.343   1_655 S
C534   O588    1.287   .     A
C534   O457    1.289   1_655 S
C535   O590    1.293   .     A
C535   C537    1.447   .     S
C535   O459    1.292   1_655 S
C536   C554    1.389   .     A
C536   C1144   1.407   1_554 S
C536   H1167   1.078   1_554 S
C537   C553    1.398   .     A
C537   C554    1.396   .     A
C538   C1133   1.398   .     S
C539   H575    1.081   .     S
C539   C541    1.381   .     A
C539   C1132   1.398   1_554 S
C540   C548    1.407   .     A
C540   C1135   1.411   .     S
C540   C1143   1.406   .     S
C541   H574    1.081   .     S
C541   C1134   1.411   1_554 S
C542   H578    1.111   .     S
C542   H556    1.104   .     S
C543   H559    1.109   .     S
C543   H558    1.104   .     S
C543   H557    1.107   .     S
C543   C146    1.498   1_565 S
C544   H561    1.113   .     S
C544   H560    1.106   .     S
C544   O582    1.414   .     S
C544   C545    1.531   .     S
C545   H564    1.107   .     S
C545   H430    1.110   1_655 S
C546   H567    1.106   .     S
C546   O584    1.412   .     S
C546   C547    1.524   .     S
C546   H568    1.115   .     S
C547   H570    1.109   .     S
C547   H571    1.109   .     S
C547   H1163   1.108   .     S
C548   C552    1.423   .     A
C549   C553    1.383   .     A
C549   C1134   1.406   1_554 S
C549   C1144   1.411   1_554 S
C550   C551    1.400   .     A
C550   C1130   1.407   .     S
C550   C1143   1.411   .     S
C551   C552    1.395   .     A
C551   O582    1.383   .     S
C552   H576    1.078   .     S
C553   O583    1.380   .     S
C554   H423    1.082   1_655 S
H563   C149    1.109   1_565 S
H565   O583    0.992   .     S
H566   N579    1.027   .     S
H569   C1141   1.108   1_554 S
H572   N580    1.028   .     S
H573   C1130   1.078   .     S
N579   N580    1.295   .     D
N579   Zn594   2.020   .     S
N580   Zn593   2.020   .     S
O581   Zn593   1.995   .     S
O581   C397    1.279   1_655 S
O584   C406    1.391   1_655 S
O585   Zn594   2.009   .     S
O586   Zn593   1.985   .     S
O586   C400    1.298   1_655 S
O587   Zn594   1.978   .     S
O588   Zn593   2.009   .     S
O589   Zn594   1.995   .     S
O590   Zn593   1.978   .     S
O591   Zn594   1.985   .     S
O592   C137    1.397   1_565 S
O592   C146    1.418   1_565 S
C595   O651    1.297   .     A
C595   C597    1.424   .     S
C595   O779    1.279   1_455 S
C596   C598    1.466   .     S
C596   C614    1.423   .     A
C596   C604    1.416   .     A
C597   C929    1.343   1_455 S
C597   H841    1.081   .     S
C598   O653    1.298   .     A
C598   O784    1.298   1_455 S
C599   C600    1.432   .     S
C599   C1059   1.343   1_545 S
C599   O1054   1.397   1_545 S
C600   O654    1.287   .     A
C600   O721    1.289   .     S
C601   O656    1.293   .     A
C601   C603    1.447   .     S
C601   O723    1.292   .     S
C602   C620    1.389   .     A
C603   C619    1.398   .     A
C603   C620    1.396   .     A
C604   C11     1.398   1_556 S
C604   O782    1.391   1_455 S
C605   H641    1.081   .     S
C605   C607    1.381   .     A
C606   C614    1.407   .     A
C606   C13     1.411   1_556 S
C606   C21     1.406   1_556 S
C607   H640    1.081   .     S
C608   H644    1.111   .     S
C608   H622    1.104   .     S
C608   C1005   1.498   1_545 S
C608   O1054   1.418   1_545 S
C609   H625    1.109   .     S
C609   H624    1.104   .     S
C609   H623    1.107   .     S
C609   C806    1.498   .     S
C610   H627    1.113   .     S
C610   H626    1.106   .     S
C610   O648    1.414   .     S
C610   C611    1.531   .     S
C611   H630    1.107   .     S
C611   H694    1.110   .     S
C611   H1025   1.109   1_545 S
C612   H633    1.106   .     S
C612   O650    1.412   .     S
C612   C613    1.524   .     S
C612   H634    1.115   .     S
C613   H636    1.109   .     S
C613   H637    1.109   .     S
C613   H41     1.108   1_556 S
C614   C618    1.423   .     A
C615   C619    1.383   .     A
C616   C617    1.400   .     A
C616   C8      1.407   1_556 S
C616   C21     1.411   1_556 S
C617   C618    1.395   .     A
C617   O648    1.383   .     S
C618   H642    1.078   .     S
C619   O649    1.380   .     S
C620   H687    1.082   .     S
H621   C752    1.082   1_455 S
H628   C743    1.110   1_455 S
H629   C809    1.109   .     S
H631   O649    0.992   .     S
H632   N645    1.027   .     S
H638   N646    1.028   .     S
H639   C8      1.078   1_556 S
H643   C993    1.081   1_545 S
N645   N646    1.295   .     D
N645   Zn660   2.020   .     S
N646   Zn659   2.020   .     S
O647   Zn659   1.995   .     S
O647   C661    1.279   .     S
O650   C670    1.391   .     S
O651   Zn660   2.009   .     S
O652   Zn659   1.985   .     S
O652   C664    1.298   .     S
O653   Zn660   1.978   .     S
O654   Zn659   2.009   .     S
O655   Zn660   1.995   .     S
O655   C732    1.289   1_455 S
O656   Zn659   1.978   .     S
O657   Zn660   1.985   .     S
O657   C733    1.292   1_455 S
O658   C797    1.397   .     S
O658   C806    1.418   .     S
C661   O717    1.297   .     A
C661   C663    1.424   .     S
C662   C664    1.466   .     S
C662   C680    1.423   .     A
C662   C670    1.416   .     A
C663   C797    1.343   .     S
C663   H907    1.081   .     S
C664   O719    1.298   .     A
C665   C666    1.432   .     S
C665   C1125   1.343   1_545 S
C665   O1120   1.397   1_545 S
C666   O720    1.287   .     A
C666   O787    1.289   .     S
C667   O722    1.293   .     A
C667   C669    1.447   .     S
C667   O789    1.292   .     S
C668   C686    1.389   .     A
C669   C685    1.398   .     A
C669   C686    1.396   .     A
C670   C77     1.398   1_556 S
C671   H707    1.081   .     S
C671   C673    1.381   .     A
C672   C680    1.407   .     A
C672   C79     1.411   1_556 S
C672   C87     1.406   1_556 S
C673   H706    1.081   .     S
C674   H710    1.111   .     S
C674   H688    1.104   .     S
C674   C1071   1.498   1_545 S
C674   O1120   1.418   1_545 S
C675   H691    1.109   .     S
C675   H690    1.104   .     S
C675   H689    1.107   .     S
C675   C872    1.498   .     S
C676   H693    1.113   .     S
C676   H692    1.106   .     S
C676   O714    1.414   .     S
C676   C677    1.531   .     S
C677   H696    1.107   .     S
C677   H760    1.110   .     S
C677   H1091   1.109   1_545 S
C678   H699    1.106   .     S
C678   O716    1.412   .     S
C678   C679    1.524   .     S
C678   H700    1.115   .     S
C679   H702    1.109   .     S
C679   H703    1.109   .     S
C679   H107    1.108   1_556 S
C680   C684    1.423   .     A
C681   C685    1.383   .     A
C682   C683    1.400   .     A
C682   C74     1.407   1_556 S
C682   C87     1.411   1_556 S
C683   C684    1.395   .     A
C683   O714    1.383   .     S
C684   H708    1.078   .     S
C685   O715    1.380   .     S
C686   H753    1.082   .     S
H695   C875    1.109   .     S
H697   O715    0.992   .     S
H698   N711    1.027   .     S
H704   N712    1.028   .     S
H705   C74     1.078   1_556 S
H709   C1059   1.081   1_545 S
N711   N712    1.295   .     D
N711   Zn726   2.020   .     S
N712   Zn725   2.020   .     S
O713   Zn725   1.995   .     S
O713   C727    1.279   .     S
O716   C736    1.391   .     S
O717   Zn726   2.009   .     S
O718   Zn725   1.985   .     S
O718   C730    1.298   .     S
O719   Zn726   1.978   .     S
O720   Zn725   2.009   .     S
O721   Zn726   1.995   .     S
O722   Zn725   1.978   .     S
O723   Zn726   1.985   .     S
O724   C863    1.397   .     S
O724   C872    1.418   .     S
C727   O783    1.297   .     A
C727   C729    1.424   .     S
C728   C730    1.466   .     S
C728   C746    1.423   .     A
C728   C736    1.416   .     A
C729   C863    1.343   .     S
C729   H973    1.081   .     S
C730   O785    1.298   .     A
C731   C732    1.432   .     S
C731   C993    1.343   1_645 S
C731   O1186   1.397   1_545 S
C732   O786    1.287   .     A
C732   O655    1.289   1_655 S
C733   O788    1.293   .     A
C733   C735    1.447   .     S
C733   O657    1.292   1_655 S
C734   C752    1.389   .     A
C735   C751    1.398   .     A
C735   C752    1.396   .     A
C736   C143    1.398   1_556 S
C737   H773    1.081   .     S
C737   C739    1.381   .     A
C738   C746    1.407   .     A
C738   C145    1.411   1_556 S
C738   C153    1.406   1_556 S
C739   H772    1.081   .     S
C740   H776    1.111   .     S
C740   H754    1.104   .     S
C740   C1137   1.498   1_545 S
C740   O1186   1.418   1_545 S
C741   H757    1.109   .     S
C741   H756    1.104   .     S
C741   H755    1.107   .     S
C741   C938    1.498   .     S
C742   H759    1.113   .     S
C742   H758    1.106   .     S
C742   O780    1.414   .     S
C742   C743    1.531   .     S
C743   H762    1.107   .     S
C743   H628    1.110   1_655 S
C743   H1157   1.109   1_545 S
C744   H765    1.106   .     S
C744   O782    1.412   .     S
C744   C745    1.524   .     S
C744   H766    1.115   .     S
C745   H768    1.109   .     S
C745   H769    1.109   .     S
C745   H173    1.108   1_556 S
C746   C750    1.423   .     A
C747   C751    1.383   .     A
C748   C749    1.400   .     A
C748   C140    1.407   1_556 S
C748   C153    1.411   1_556 S
C749   C750    1.395   .     A
C749   O780    1.383   .     S
C750   H774    1.078   .     S
C751   O781    1.380   .     S
C752   H621    1.082   1_655 S
H761   C941    1.109   .     S
H763   O781    0.992   .     S
H764   N777    1.027   .     S
H770   N778    1.028   .     S
H771   C140    1.078   1_556 S
H775   C1125   1.081   1_545 S
N777   N778    1.295   .     D
N777   Zn792   2.020   .     S
N778   Zn791   2.020   .     S
O779   Zn791   1.995   .     S
O779   C595    1.279   1_655 S
O782   C604    1.391   1_655 S
O783   Zn792   2.009   .     S
O784   Zn791   1.985   .     S
O784   C598    1.298   1_655 S
O785   Zn792   1.978   .     S
O786   Zn791   2.009   .     S
O787   Zn792   1.995   .     S
O788   Zn791   1.978   .     S
O789   Zn792   1.985   .     S
O790   C929    1.397   .     S
O790   C938    1.418   .     S
C793   O849    1.297   .     A
C793   C795    1.424   .     S
C793   O977    1.279   1_455 S
C794   C796    1.466   .     S
C794   C812    1.423   .     A
C794   C802    1.416   .     A
C795   C1127   1.343   1_455 S
C795   H1039   1.081   .     S
C796   O851    1.298   .     A
C796   O982    1.298   1_455 S
C797   C798    1.432   .     S
C798   O852    1.287   .     A
C798   O919    1.289   .     S
C799   O854    1.293   .     A
C799   C801    1.447   .     S
C799   O921    1.292   .     S
C800   C818    1.389   .     A
C801   C817    1.398   .     A
C801   C818    1.396   .     A
C802   C209    1.398   1_556 S
C802   O980    1.391   1_455 S
C803   H839    1.081   .     S
C803   C805    1.381   .     A
C804   C812    1.407   .     A
C804   C211    1.411   1_556 S
C804   C219    1.406   1_556 S
C805   H838    1.081   .     S
C806   H842    1.111   .     S
C806   H820    1.104   .     S
C807   H823    1.109   .     S
C807   H822    1.104   .     S
C807   H821    1.107   .     S
C807   C1004   1.498   .     S
C808   H825    1.113   .     S
C808   H824    1.106   .     S
C808   O846    1.414   .     S
C808   C809    1.531   .     S
C809   H828    1.107   .     S
C809   H892    1.110   .     S
C810   H831    1.106   .     S
C810   O848    1.412   .     S
C810   C811    1.524   .     S
C810   H832    1.115   .     S
C811   H834    1.109   .     S
C811   H835    1.109   .     S
C811   H239    1.108   1_556 S
C812   C816    1.423   .     A
C813   C817    1.383   .     A
C814   C815    1.400   .     A
C814   C206    1.407   1_556 S
C814   C219    1.411   1_556 S
C815   C816    1.395   .     A
C815   O846    1.383   .     S
C816   H840    1.078   .     S
C817   O847    1.380   .     S
C818   H885    1.082   .     S
H819   C950    1.082   1_455 S
H826   C941    1.110   1_455 S
H827   C1007   1.109   .     S
H829   O847    0.992   .     S
H830   N843    1.027   .     S
H836   N844    1.028   .     S
H837   C206    1.078   1_556 S
N843   N844    1.295   .     D
N843   Zn858   2.020   .     S
N844   Zn857   2.020   .     S
O845   Zn857   1.995   .     S
O845   C859    1.279   .     S
O848   C868    1.391   .     S
O849   Zn858   2.009   .     S
O850   Zn857   1.985   .     S
O850   C862    1.298   .     S
O851   Zn858   1.978   .     S
O852   Zn857   2.009   .     S
O853   Zn858   1.995   .     S
O853   C930    1.289   1_455 S
O854   Zn857   1.978   .     S
O855   Zn858   1.985   .     S
O855   C931    1.292   1_455 S
O856   C995    1.397   .     S
O856   C1004   1.418   .     S
C859   O915    1.297   .     A
C859   C861    1.424   .     S
C860   C862    1.466   .     S
C860   C878    1.423   .     A
C860   C868    1.416   .     A
C861   C995    1.343   .     S
C861   H1105   1.081   .     S
C862   O917    1.298   .     A
C863   C864    1.432   .     S
C864   O918    1.287   .     A
C864   O985    1.289   .     S
C865   O920    1.293   .     A
C865   C867    1.447   .     S
C865   O987    1.292   .     S
C866   C884    1.389   .     A
C867   C883    1.398   .     A
C867   C884    1.396   .     A
C868   C275    1.398   1_556 S
C869   H905    1.081   .     S
C869   C871    1.381   .     A
C870   C878    1.407   .     A
C870   C277    1.411   1_556 S
C870   C285    1.406   1_556 S
C871   H904    1.081   .     S
C872   H908    1.111   .     S
C872   H886    1.104   .     S
C873   H889    1.109   .     S
C873   H888    1.104   .     S
C873   H887    1.107   .     S
C873   C1070   1.498   .     S
C874   H891    1.113   .     S
C874   H890    1.106   .     S
C874   O912    1.414   .     S
C874   C875    1.531   .     S
C875   H894    1.107   .     S
C875   H958    1.110   .     S
C876   H897    1.106   .     S
C876   O914    1.412   .     S
C876   C877    1.524   .     S
C876   H898    1.115   .     S
C877   H900    1.109   .     S
C877   H901    1.109   .     S
C877   H305    1.108   1_556 S
C878   C882    1.423   .     A
C879   C883    1.383   .     A
C880   C881    1.400   .     A
C880   C272    1.407   1_556 S
C880   C285    1.411   1_556 S
C881   C882    1.395   .     A
C881   O912    1.383   .     S
C882   H906    1.078   .     S
C883   O913    1.380   .     S
C884   H951    1.082   .     S
H893   C1073   1.109   .     S
H895   O913    0.992   .     S
H896   N909    1.027   .     S
H902   N910    1.028   .     S
H903   C272    1.078   1_556 S
N909   N910    1.295   .     D
N909   Zn924   2.020   .     S
N910   Zn923   2.020   .     S
O911   Zn923   1.995   .     S
O911   C925    1.279   .     S
O914   C934    1.391   .     S
O915   Zn924   2.009   .     S
O916   Zn923   1.985   .     S
O916   C928    1.298   .     S
O917   Zn924   1.978   .     S
O918   Zn923   2.009   .     S
O919   Zn924   1.995   .     S
O920   Zn923   1.978   .     S
O921   Zn924   1.985   .     S
O922   C1061   1.397   .     S
O922   C1070   1.418   .     S
C925   O981    1.297   .     A
C925   C927    1.424   .     S
C926   C928    1.466   .     S
C926   C944    1.423   .     A
C926   C934    1.416   .     A
C927   C1061   1.343   .     S
C927   H1171   1.081   .     S
C928   O983    1.298   .     A
C929   C930    1.432   .     S
C929   C597    1.343   1_655 S
C930   O984    1.287   .     A
C930   O853    1.289   1_655 S
C931   O986    1.293   .     A
C931   C933    1.447   .     S
C931   O855    1.292   1_655 S
C932   C950    1.389   .     A
C933   C949    1.398   .     A
C933   C950    1.396   .     A
C934   C341    1.398   1_556 S
C935   H971    1.081   .     S
C935   C937    1.381   .     A
C936   C944    1.407   .     A
C936   C343    1.411   1_556 S
C936   C351    1.406   1_556 S
C937   H970    1.081   .     S
C938   H974    1.111   .     S
C938   H952    1.104   .     S
C939   H955    1.109   .     S
C939   H954    1.104   .     S
C939   H953    1.107   .     S
C939   C1136   1.498   .     S
C940   H957    1.113   .     S
C940   H956    1.106   .     S
C940   O978    1.414   .     S
C940   C941    1.531   .     S
C941   H960    1.107   .     S
C941   H826    1.110   1_655 S
C942   H963    1.106   .     S
C942   O980    1.412   .     S
C942   C943    1.524   .     S
C942   H964    1.115   .     S
C943   H966    1.109   .     S
C943   H967    1.109   .     S
C943   H371    1.108   1_556 S
C944   C948    1.423   .     A
C945   C949    1.383   .     A
C946   C947    1.400   .     A
C946   C338    1.407   1_556 S
C946   C351    1.411   1_556 S
C947   C948    1.395   .     A
C947   O978    1.383   .     S
C948   H972    1.078   .     S
C949   O979    1.380   .     S
C950   H819    1.082   1_655 S
H959   C1139   1.109   .     S
H961   O979    0.992   .     S
H962   N975    1.027   .     S
H968   N976    1.028   .     S
H969   C338    1.078   1_556 S
N975   N976    1.295   .     D
N975   Zn990   2.020   .     S
N976   Zn989   2.020   .     S
O977   Zn989   1.995   .     S
O977   C793    1.279   1_655 S
O980   C802    1.391   1_655 S
O981   Zn990   2.009   .     S
O982   Zn989   1.985   .     S
O982   C796    1.298   1_655 S
O983   Zn990   1.978   .     S
O984   Zn989   2.009   .     S
O985   Zn990   1.995   .     S
O986   Zn989   1.978   .     S
O987   Zn990   1.985   .     S
O988   C1127   1.397   .     S
O988   C1136   1.418   .     S
C991   O1047   1.297   .     A
C991   C993    1.424   .     S
C991   O1175   1.279   1_455 S
C992   C994    1.466   .     S
C992   C1010   1.423   .     A
C992   C1000   1.416   .     A
C993   C731    1.343   1_465 S
C993   H643    1.081   1_565 S
C994   O1049   1.298   .     A
C994   O1180   1.298   1_455 S
C995   C996    1.432   .     S
C996   O1050   1.287   .     A
C996   O1117   1.289   .     S
C997   O1052   1.293   .     A
C997   C999    1.447   .     S
C997   O1119   1.292   .     S
C998   C1016   1.389   .     A
C999   C1015   1.398   .     A
C999   C1016   1.396   .     A
C1000  C407    1.398   1_556 S
C1000  O1178   1.391   1_455 S
C1001  H1037   1.081   .     S
C1001  C1003   1.381   .     A
C1002  C1010   1.407   .     A
C1002  C409    1.411   1_556 S
C1002  C417    1.406   1_556 S
C1003  H1036   1.081   .     S
C1004  H1040   1.111   .     S
C1004  H1018   1.104   .     S
C1005  H1021   1.109   .     S
C1005  H1020   1.104   .     S
C1005  H1019   1.107   .     S
C1005  C608    1.498   1_565 S
C1006  H1023   1.113   .     S
C1006  H1022   1.106   .     S
C1006  O1044   1.414   .     S
C1006  C1007   1.531   .     S
C1007  H1026   1.107   .     S
C1007  H1090   1.110   .     S
C1008  H1029   1.106   .     S
C1008  O1046   1.412   .     S
C1008  C1009   1.524   .     S
C1008  H1030   1.115   .     S
C1009  H1032   1.109   .     S
C1009  H1033   1.109   .     S
C1009  H437    1.108   1_556 S
C1010  C1014   1.423   .     A
C1011  C1015   1.383   .     A
C1012  C1013   1.400   .     A
C1012  C404    1.407   1_556 S
C1012  C417    1.411   1_556 S
C1013  C1014   1.395   .     A
C1013  O1044   1.383   .     S
C1014  H1038   1.078   .     S
C1015  O1045   1.380   .     S
C1016  H1083   1.082   .     S
H1017  C1148   1.082   1_455 S
H1024  C1139   1.110   1_455 S
H1025  C611    1.109   1_565 S
H1027  O1045   0.992   .     S
H1028  N1041   1.027   .     S
H1034  N1042   1.028   .     S
H1035  C404    1.078   1_556 S
N1041  N1042   1.295   .     D
N1041  Zn1056  2.020   .     S
N1042  Zn1055  2.020   .     S
O1043  Zn1055  1.995   .     S
O1043  C1057   1.279   .     S
O1046  C1066   1.391   .     S
O1047  Zn1056  2.009   .     S
O1048  Zn1055  1.985   .     S
O1048  C1060   1.298   .     S
O1049  Zn1056  1.978   .     S
O1050  Zn1055  2.009   .     S
O1051  Zn1056  1.995   .     S
O1051  C1128   1.289   1_455 S
O1052  Zn1055  1.978   .     S
O1053  Zn1056  1.985   .     S
O1053  C1129   1.292   1_455 S
O1054  C599    1.397   1_565 S
O1054  C608    1.418   1_565 S
C1057  O1113   1.297   .     A
C1057  C1059   1.424   .     S
C1058  C1060   1.466   .     S
C1058  C1076   1.423   .     A
C1058  C1066   1.416   .     A
C1059  C599    1.343   1_565 S
C1059  H709    1.081   1_565 S
C1060  O1115   1.298   .     A
C1061  C1062   1.432   .     S
C1062  O1116   1.287   .     A
C1062  O1183   1.289   .     S
C1063  O1118   1.293   .     A
C1063  C1065   1.447   .     S
C1063  O1185   1.292   .     S
C1064  C1082   1.389   .     A
C1065  C1081   1.398   .     A
C1065  C1082   1.396   .     A
C1066  C473    1.398   1_556 S
C1067  H1103   1.081   .     S
C1067  C1069   1.381   .     A
C1068  C1076   1.407   .     A
C1068  C475    1.411   1_556 S
C1068  C483    1.406   1_556 S
C1069  H1102   1.081   .     S
C1070  H1106   1.111   .     S
C1070  H1084   1.104   .     S
C1071  H1087   1.109   .     S
C1071  H1086   1.104   .     S
C1071  H1085   1.107   .     S
C1071  C674    1.498   1_565 S
C1072  H1089   1.113   .     S
C1072  H1088   1.106   .     S
C1072  O1110   1.414   .     S
C1072  C1073   1.531   .     S
C1073  H1092   1.107   .     S
C1073  H1156   1.110   .     S
C1074  H1095   1.106   .     S
C1074  O1112   1.412   .     S
C1074  C1075   1.524   .     S
C1074  H1096   1.115   .     S
C1075  H1098   1.109   .     S
C1075  H1099   1.109   .     S
C1075  H503    1.108   1_556 S
C1076  C1080   1.423   .     A
C1077  C1081   1.383   .     A
C1078  C1079   1.400   .     A
C1078  C470    1.407   1_556 S
C1078  C483    1.411   1_556 S
C1079  C1080   1.395   .     A
C1079  O1110   1.383   .     S
C1080  H1104   1.078   .     S
C1081  O1111   1.380   .     S
C1082  H1149   1.082   .     S
H1091  C677    1.109   1_565 S
H1093  O1111   0.992   .     S
H1094  N1107   1.027   .     S
H1100  N1108   1.028   .     S
H1101  C470    1.078   1_556 S
N1107  N1108   1.295   .     D
N1107  Zn1122  2.020   .     S
N1108  Zn1121  2.020   .     S
O1109  Zn1121  1.995   .     S
O1109  C1123   1.279   .     S
O1112  C1132   1.391   .     S
O1113  Zn1122  2.009   .     S
O1114  Zn1121  1.985   .     S
O1114  C1126   1.298   .     S
O1115  Zn1122  1.978   .     S
O1116  Zn1121  2.009   .     S
O1117  Zn1122  1.995   .     S
O1118  Zn1121  1.978   .     S
O1119  Zn1122  1.985   .     S
O1120  C665    1.397   1_565 S
O1120  C674    1.418   1_565 S
C1123  O1179   1.297   .     A
C1123  C1125   1.424   .     S
C1124  C1126   1.466   .     S
C1124  C1142   1.423   .     A
C1124  C1132   1.416   .     A
C1125  C665    1.343   1_565 S
C1125  H775    1.081   1_565 S
C1126  O1181   1.298   .     A
C1127  C1128   1.432   .     S
C1127  C795    1.343   1_655 S
C1128  O1182   1.287   .     A
C1128  O1051   1.289   1_655 S
C1129  O1184   1.293   .     A
C1129  C1131   1.447   .     S
C1129  O1053   1.292   1_655 S
C1130  C1148   1.389   .     A
C1131  C1147   1.398   .     A
C1131  C1148   1.396   .     A
C1132  C539    1.398   1_556 S
C1133  H1169   1.081   .     S
C1133  C1135   1.381   .     A
C1134  C1142   1.407   .     A
C1134  C541    1.411   1_556 S
C1134  C549    1.406   1_556 S
C1135  H1168   1.081   .     S
C1136  H1172   1.111   .     S
C1136  H1150   1.104   .     S
C1137  H1153   1.109   .     S
C1137  H1152   1.104   .     S
C1137  H1151   1.107   .     S
C1137  C740    1.498   1_565 S
C1138  H1155   1.113   .     S
C1138  H1154   1.106   .     S
C1138  O1176   1.414   .     S
C1138  C1139   1.531   .     S
C1139  H1158   1.107   .     S
C1139  H1024   1.110   1_655 S
C1140  H1161   1.106   .     S
C1140  O1178   1.412   .     S
C1140  C1141   1.524   .     S
C1140  H1162   1.115   .     S
C1141  H1164   1.109   .     S
C1141  H1165   1.109   .     S
C1141  H569    1.108   1_556 S
C1142  C1146   1.423   .     A
C1143  C1147   1.383   .     A
C1144  C1145   1.400   .     A
C1144  C536    1.407   1_556 S
C1144  C549    1.411   1_556 S
C1145  C1146   1.395   .     A
C1145  O1176   1.383   .     S
C1146  H1170   1.078   .     S
C1147  O1177   1.380   .     S
C1148  H1017   1.082   1_655 S
H1157  C743    1.109   1_565 S
H1159  O1177   0.992   .     S
H1160  N1173   1.027   .     S
H1166  N1174   1.028   .     S
H1167  C536    1.078   1_556 S
N1173  N1174   1.295   .     D
N1173  Zn1188  2.020   .     S
N1174  Zn1187  2.020   .     S
O1175  Zn1187  1.995   .     S
O1175  C991    1.279   1_655 S
O1178  C1000   1.391   1_655 S
O1179  Zn1188  2.009   .     S
O1180  Zn1187  1.985   .     S
O1180  C994    1.298   1_655 S
O1181  Zn1188  1.978   .     S
O1182  Zn1187  2.009   .     S
O1183  Zn1188  1.995   .     S
O1184  Zn1187  1.978   .     S
O1185  Zn1188  1.985   .     S
O1186  C731    1.397   1_565 S
O1186  C740    1.418   1_565 S
