data_str_m2_o2_o5_pcu_sym.113
_audit_creation_date              2020-01-03
_audit_creation_method            'Materials Studio'
_symmetry_space_group_name_H-M    'P1'
_symmetry_Int_Tables_number       1
_symmetry_cell_setting            triclinic
loop_
_symmetry_equiv_pos_as_xyz
  x,y,z
_cell_length_a                    30.3045
_cell_length_b                    27.7207
_cell_length_c                    27.2461
_cell_angle_alpha                 89.9963
_cell_angle_beta                  90.1709
_cell_angle_gamma                 89.7929
loop_
_atom_site_label
_atom_site_type_symbol
_atom_site_fract_x
_atom_site_fract_y
_atom_site_fract_z
_atom_site_U_iso_or_equiv
_atom_site_adp_type
_atom_site_occupancy
O1     O     0.18573   0.29071   0.16667   0.00000  Uiso   1.00
O2     O     0.31427   0.20928   0.16666   0.00000  Uiso   1.00
O3     O     0.31427   0.29071   0.16666   0.00000  Uiso   1.00
O4     O     0.18573   0.20928   0.16667   0.00000  Uiso   1.00
C5     C     0.16484   0.25011   0.16698   0.00000  Uiso   1.00
C6     C     0.33508   0.24989   0.16685   0.00000  Uiso   1.00
O7     O     0.25000   0.29071   0.09613   0.00000  Uiso   1.00
O8     O     0.25000   0.20929   0.23720   0.00000  Uiso   1.00
O9     O     0.25000   0.29071   0.23720   0.00000  Uiso   1.00
O10    O     0.25000   0.20929   0.09613   0.00000  Uiso   1.00
C11    C     0.28380   0.05385   0.18996   0.00000  Uiso   1.00
C12    C     0.22934   0.44613   0.12895   0.00000  Uiso   1.00
C13    C     0.21610   0.05410   0.14362   0.00000  Uiso   1.00
C14    C     0.27062   0.44593   0.20450   0.00000  Uiso   1.00
C15    C     0.24999   0.25000   0.07350   0.00000  Uiso   1.00
C16    C     0.25003   0.25000   0.25983   0.00000  Uiso   1.00
Cu17   Cu    0.25000   0.29821   0.16667   0.00000  Uiso   1.00
Cu18   Cu    0.25000   0.20178   0.16667   0.00000  Uiso   1.00
H19    H     0.30889   0.12416   0.20841   0.00000  Uiso   1.00
H20    H     0.21306   0.37585   0.10071   0.00000  Uiso   1.00
H21    H     0.19082   0.12455   0.12536   0.00000  Uiso   1.00
H22    H     0.28686   0.37549   0.23268   0.00000  Uiso   1.00
N23    N     0.25000   0.12934   0.16667   0.00000  Uiso   1.00
N24    N     0.25000   0.37065   0.16667   0.00000  Uiso   1.00
C25    C     0.24997   0.02735   0.16676   0.00000  Uiso   1.00
C26    C     0.24998   0.47266   0.16674   0.00000  Uiso   1.00
C27    C     0.25001   0.25001   0.02183   0.00000  Uiso   1.00
C28    C     0.25003   0.25001   0.31149   0.00000  Uiso   1.00
C29    C     0.04634   0.29089   0.15389   0.00000  Uiso   1.00
C30    C     0.45334   0.21155   0.14839   0.00000  Uiso   1.00
C31    C     0.45223   0.28765   0.19206   0.00000  Uiso   1.00
C32    C     0.04744   0.20994   0.18719   0.00000  Uiso   1.00
C33    C     0.09244   0.29174   0.15333   0.00000  Uiso   1.00
C34    C     0.40716   0.21062   0.14765   0.00000  Uiso   1.00
C35    C     0.40627   0.28750   0.19187   0.00000  Uiso   1.00
C36    C     0.09341   0.20996   0.18719   0.00000  Uiso   1.00
C37    C     0.11634   0.25048   0.16879   0.00000  Uiso   1.00
C38    C     0.38345   0.24954   0.16839   0.00000  Uiso   1.00
C39    C     0.02393   0.25028   0.17083   0.00000  Uiso   1.00
C40    C     0.47574   0.24972   0.17066   0.00000  Uiso   1.00
C41    C     0.28293   0.10459   0.18989   0.00000  Uiso   1.00
C42    C     0.22946   0.39540   0.12982   0.00000  Uiso   1.00
C43    C     0.21694   0.10482   0.14367   0.00000  Uiso   1.00
C44    C     0.27054   0.39520   0.20355   0.00000  Uiso   1.00
H45    H     0.31126   0.03581   0.20764   0.00000  Uiso   1.00
H46    H     0.21358   0.46416   0.09834   0.00000  Uiso   1.00
H47    H     0.18862   0.03624   0.12603   0.00000  Uiso   1.00
H48    H     0.28634   0.46381   0.23515   0.00000  Uiso   1.00
H49    H     0.02795   0.32153   0.13982   0.00000  Uiso   1.00
H50    H     0.47189   0.18328   0.13026   0.00000  Uiso   1.00
H51    H     0.46957   0.31722   0.20947   0.00000  Uiso   1.00
H52    H     0.03008   0.17845   0.20053   0.00000  Uiso   1.00
O53    O     0.11397   0.33087   0.13295   0.00000  Uiso   1.00
C54    C     0.11061   0.37052   0.16522   0.00000  Uiso   1.00
H55    H     0.13116   0.40030   0.15072   0.00000  Uiso   1.00
H56    H     0.12336   0.36140   0.20249   0.00000  Uiso   1.00
H57    H     0.07612   0.38411   0.16747   0.00000  Uiso   1.00
O58    O     0.38493   0.17478   0.12217   0.00000  Uiso   1.00
C59    C     0.39398   0.12937   0.14347   0.00000  Uiso   1.00
H60    H     0.36935   0.10315   0.12957   0.00000  Uiso   1.00
H61    H     0.39108   0.13014   0.18423   0.00000  Uiso   1.00
H62    H     0.42706   0.11596   0.13243   0.00000  Uiso   1.00
O63    O     0.38388   0.32561   0.21321   0.00000  Uiso   1.00
C64    C     0.37797   0.31519   0.26341   0.00000  Uiso   1.00
H65    H     0.35819   0.28181   0.26864   0.00000  Uiso   1.00
H66    H     0.35945   0.34539   0.28048   0.00000  Uiso   1.00
H67    H     0.41021   0.31202   0.28286   0.00000  Uiso   1.00
O68    O     0.11560   0.16930   0.20341   0.00000  Uiso   1.00
C69    C     0.12164   0.17318   0.25459   0.00000  Uiso   1.00
H70    H     0.14126   0.20571   0.26434   0.00000  Uiso   1.00
H71    H     0.14038   0.14114   0.26753   0.00000  Uiso   1.00
H72    H     0.08944   0.17362   0.27415   0.00000  Uiso   1.00
O73    O     0.68573   0.29071   0.16667   0.00000  Uiso   1.00
O74    O     0.81427   0.20928   0.16666   0.00000  Uiso   1.00
O75    O     0.81427   0.29071   0.16666   0.00000  Uiso   1.00
O76    O     0.68573   0.20928   0.16667   0.00000  Uiso   1.00
C77    C     0.66484   0.25011   0.16698   0.00000  Uiso   1.00
C78    C     0.83508   0.24989   0.16685   0.00000  Uiso   1.00
O79    O     0.75000   0.29071   0.09613   0.00000  Uiso   1.00
O80    O     0.75000   0.20929   0.23720   0.00000  Uiso   1.00
O81    O     0.75000   0.29071   0.23720   0.00000  Uiso   1.00
O82    O     0.75000   0.20929   0.09613   0.00000  Uiso   1.00
C83    C     0.78380   0.05385   0.18996   0.00000  Uiso   1.00
C84    C     0.72934   0.44613   0.12895   0.00000  Uiso   1.00
C85    C     0.71610   0.05410   0.14362   0.00000  Uiso   1.00
C86    C     0.77062   0.44593   0.20450   0.00000  Uiso   1.00
C87    C     0.74999   0.25000   0.07350   0.00000  Uiso   1.00
C88    C     0.75003   0.25000   0.25983   0.00000  Uiso   1.00
Cu89   Cu    0.75000   0.29821   0.16667   0.00000  Uiso   1.00
Cu90   Cu    0.75000   0.20178   0.16667   0.00000  Uiso   1.00
H91    H     0.80889   0.12416   0.20841   0.00000  Uiso   1.00
H92    H     0.71306   0.37585   0.10071   0.00000  Uiso   1.00
H93    H     0.69082   0.12455   0.12536   0.00000  Uiso   1.00
H94    H     0.78686   0.37549   0.23268   0.00000  Uiso   1.00
N95    N     0.75000   0.12934   0.16667   0.00000  Uiso   1.00
N96    N     0.75000   0.37065   0.16667   0.00000  Uiso   1.00
C97    C     0.74997   0.02735   0.16676   0.00000  Uiso   1.00
C98    C     0.74998   0.47266   0.16674   0.00000  Uiso   1.00
C99    C     0.75001   0.25001   0.02183   0.00000  Uiso   1.00
C100   C     0.75003   0.25001   0.31149   0.00000  Uiso   1.00
C101   C     0.54634   0.29089   0.15389   0.00000  Uiso   1.00
C102   C     0.95334   0.21155   0.14839   0.00000  Uiso   1.00
C103   C     0.95223   0.28765   0.19206   0.00000  Uiso   1.00
C104   C     0.54744   0.20994   0.18719   0.00000  Uiso   1.00
C105   C     0.59244   0.29174   0.15333   0.00000  Uiso   1.00
C106   C     0.90716   0.21062   0.14765   0.00000  Uiso   1.00
C107   C     0.90627   0.28750   0.19187   0.00000  Uiso   1.00
C108   C     0.59341   0.20996   0.18719   0.00000  Uiso   1.00
C109   C     0.61634   0.25048   0.16879   0.00000  Uiso   1.00
C110   C     0.88345   0.24954   0.16839   0.00000  Uiso   1.00
C111   C     0.52393   0.25028   0.17083   0.00000  Uiso   1.00
C112   C     0.97574   0.24972   0.17066   0.00000  Uiso   1.00
C113   C     0.78293   0.10459   0.18989   0.00000  Uiso   1.00
C114   C     0.72946   0.39540   0.12982   0.00000  Uiso   1.00
C115   C     0.71694   0.10482   0.14367   0.00000  Uiso   1.00
C116   C     0.77054   0.39520   0.20355   0.00000  Uiso   1.00
H117   H     0.81126   0.03581   0.20764   0.00000  Uiso   1.00
H118   H     0.71358   0.46416   0.09834   0.00000  Uiso   1.00
H119   H     0.68862   0.03624   0.12603   0.00000  Uiso   1.00
H120   H     0.78634   0.46381   0.23515   0.00000  Uiso   1.00
H121   H     0.52795   0.32153   0.13982   0.00000  Uiso   1.00
H122   H     0.97189   0.18328   0.13026   0.00000  Uiso   1.00
H123   H     0.96957   0.31722   0.20947   0.00000  Uiso   1.00
H124   H     0.53008   0.17845   0.20053   0.00000  Uiso   1.00
O125   O     0.61397   0.33087   0.13295   0.00000  Uiso   1.00
C126   C     0.61061   0.37052   0.16522   0.00000  Uiso   1.00
H127   H     0.63116   0.40030   0.15072   0.00000  Uiso   1.00
H128   H     0.62336   0.36140   0.20249   0.00000  Uiso   1.00
H129   H     0.57612   0.38411   0.16747   0.00000  Uiso   1.00
O130   O     0.88493   0.17478   0.12217   0.00000  Uiso   1.00
C131   C     0.89398   0.12937   0.14347   0.00000  Uiso   1.00
H132   H     0.86935   0.10315   0.12957   0.00000  Uiso   1.00
H133   H     0.89108   0.13014   0.18423   0.00000  Uiso   1.00
H134   H     0.92706   0.11596   0.13243   0.00000  Uiso   1.00
O135   O     0.88388   0.32561   0.21321   0.00000  Uiso   1.00
C136   C     0.87797   0.31519   0.26341   0.00000  Uiso   1.00
H137   H     0.85819   0.28181   0.26864   0.00000  Uiso   1.00
H138   H     0.85945   0.34539   0.28048   0.00000  Uiso   1.00
H139   H     0.91021   0.31202   0.28286   0.00000  Uiso   1.00
O140   O     0.61560   0.16930   0.20341   0.00000  Uiso   1.00
C141   C     0.62164   0.17318   0.25459   0.00000  Uiso   1.00
H142   H     0.64126   0.20571   0.26434   0.00000  Uiso   1.00
H143   H     0.64038   0.14114   0.26753   0.00000  Uiso   1.00
H144   H     0.58944   0.17362   0.27415   0.00000  Uiso   1.00
O145   O     0.18573   0.79071   0.16667   0.00000  Uiso   1.00
O146   O     0.31427   0.70928   0.16666   0.00000  Uiso   1.00
O147   O     0.31427   0.79071   0.16666   0.00000  Uiso   1.00
O148   O     0.18573   0.70928   0.16667   0.00000  Uiso   1.00
C149   C     0.16484   0.75011   0.16698   0.00000  Uiso   1.00
C150   C     0.33508   0.74989   0.16685   0.00000  Uiso   1.00
O151   O     0.25000   0.79071   0.09613   0.00000  Uiso   1.00
O152   O     0.25000   0.70929   0.23720   0.00000  Uiso   1.00
O153   O     0.25000   0.79071   0.23720   0.00000  Uiso   1.00
O154   O     0.25000   0.70929   0.09613   0.00000  Uiso   1.00
C155   C     0.28380   0.55385   0.18996   0.00000  Uiso   1.00
C156   C     0.22934   0.94613   0.12895   0.00000  Uiso   1.00
C157   C     0.21610   0.55410   0.14362   0.00000  Uiso   1.00
C158   C     0.27062   0.94593   0.20450   0.00000  Uiso   1.00
C159   C     0.24999   0.75000   0.07350   0.00000  Uiso   1.00
C160   C     0.25003   0.75000   0.25983   0.00000  Uiso   1.00
Cu161  Cu    0.25000   0.79821   0.16667   0.00000  Uiso   1.00
Cu162  Cu    0.25000   0.70178   0.16667   0.00000  Uiso   1.00
H163   H     0.30889   0.62416   0.20841   0.00000  Uiso   1.00
H164   H     0.21306   0.87585   0.10071   0.00000  Uiso   1.00
H165   H     0.19082   0.62455   0.12536   0.00000  Uiso   1.00
H166   H     0.28686   0.87549   0.23268   0.00000  Uiso   1.00
N167   N     0.25000   0.62934   0.16667   0.00000  Uiso   1.00
N168   N     0.25000   0.87065   0.16667   0.00000  Uiso   1.00
C169   C     0.24997   0.52735   0.16676   0.00000  Uiso   1.00
C170   C     0.24998   0.97266   0.16674   0.00000  Uiso   1.00
C171   C     0.25001   0.75001   0.02183   0.00000  Uiso   1.00
C172   C     0.25003   0.75001   0.31149   0.00000  Uiso   1.00
C173   C     0.04634   0.79089   0.15389   0.00000  Uiso   1.00
C174   C     0.45334   0.71155   0.14839   0.00000  Uiso   1.00
C175   C     0.45223   0.78765   0.19206   0.00000  Uiso   1.00
C176   C     0.04744   0.70994   0.18719   0.00000  Uiso   1.00
C177   C     0.09244   0.79174   0.15333   0.00000  Uiso   1.00
C178   C     0.40716   0.71062   0.14765   0.00000  Uiso   1.00
C179   C     0.40627   0.78750   0.19187   0.00000  Uiso   1.00
C180   C     0.09341   0.70996   0.18719   0.00000  Uiso   1.00
C181   C     0.11634   0.75048   0.16879   0.00000  Uiso   1.00
C182   C     0.38345   0.74954   0.16839   0.00000  Uiso   1.00
C183   C     0.02393   0.75028   0.17083   0.00000  Uiso   1.00
C184   C     0.47574   0.74972   0.17066   0.00000  Uiso   1.00
C185   C     0.28293   0.60459   0.18989   0.00000  Uiso   1.00
C186   C     0.22946   0.89540   0.12982   0.00000  Uiso   1.00
C187   C     0.21694   0.60482   0.14367   0.00000  Uiso   1.00
C188   C     0.27054   0.89520   0.20355   0.00000  Uiso   1.00
H189   H     0.31126   0.53581   0.20764   0.00000  Uiso   1.00
H190   H     0.21358   0.96416   0.09834   0.00000  Uiso   1.00
H191   H     0.18862   0.53624   0.12603   0.00000  Uiso   1.00
H192   H     0.28634   0.96381   0.23515   0.00000  Uiso   1.00
H193   H     0.02795   0.82153   0.13982   0.00000  Uiso   1.00
H194   H     0.47189   0.68328   0.13026   0.00000  Uiso   1.00
H195   H     0.46957   0.81722   0.20947   0.00000  Uiso   1.00
H196   H     0.03008   0.67845   0.20053   0.00000  Uiso   1.00
O197   O     0.11397   0.83087   0.13295   0.00000  Uiso   1.00
C198   C     0.11061   0.87052   0.16522   0.00000  Uiso   1.00
H199   H     0.13116   0.90030   0.15072   0.00000  Uiso   1.00
H200   H     0.12336   0.86140   0.20249   0.00000  Uiso   1.00
H201   H     0.07612   0.88411   0.16747   0.00000  Uiso   1.00
O202   O     0.38493   0.67478   0.12217   0.00000  Uiso   1.00
C203   C     0.39398   0.62937   0.14347   0.00000  Uiso   1.00
H204   H     0.36935   0.60315   0.12957   0.00000  Uiso   1.00
H205   H     0.39108   0.63014   0.18423   0.00000  Uiso   1.00
H206   H     0.42706   0.61596   0.13243   0.00000  Uiso   1.00
O207   O     0.38388   0.82561   0.21321   0.00000  Uiso   1.00
C208   C     0.37797   0.81519   0.26341   0.00000  Uiso   1.00
H209   H     0.35819   0.78181   0.26864   0.00000  Uiso   1.00
H210   H     0.35945   0.84539   0.28048   0.00000  Uiso   1.00
H211   H     0.41021   0.81202   0.28286   0.00000  Uiso   1.00
O212   O     0.11560   0.66930   0.20341   0.00000  Uiso   1.00
C213   C     0.12164   0.67318   0.25459   0.00000  Uiso   1.00
H214   H     0.14126   0.70571   0.26434   0.00000  Uiso   1.00
H215   H     0.14038   0.64114   0.26753   0.00000  Uiso   1.00
H216   H     0.08944   0.67362   0.27415   0.00000  Uiso   1.00
O217   O     0.68573   0.79071   0.16667   0.00000  Uiso   1.00
O218   O     0.81427   0.70928   0.16666   0.00000  Uiso   1.00
O219   O     0.81427   0.79071   0.16666   0.00000  Uiso   1.00
O220   O     0.68573   0.70928   0.16667   0.00000  Uiso   1.00
C221   C     0.66484   0.75011   0.16698   0.00000  Uiso   1.00
C222   C     0.83508   0.74989   0.16685   0.00000  Uiso   1.00
O223   O     0.75000   0.79071   0.09613   0.00000  Uiso   1.00
O224   O     0.75000   0.70929   0.23720   0.00000  Uiso   1.00
O225   O     0.75000   0.79071   0.23720   0.00000  Uiso   1.00
O226   O     0.75000   0.70929   0.09613   0.00000  Uiso   1.00
C227   C     0.78380   0.55385   0.18996   0.00000  Uiso   1.00
C228   C     0.72934   0.94613   0.12895   0.00000  Uiso   1.00
C229   C     0.71610   0.55410   0.14362   0.00000  Uiso   1.00
C230   C     0.77062   0.94593   0.20450   0.00000  Uiso   1.00
C231   C     0.74999   0.75000   0.07350   0.00000  Uiso   1.00
C232   C     0.75003   0.75000   0.25983   0.00000  Uiso   1.00
Cu233  Cu    0.75000   0.79821   0.16667   0.00000  Uiso   1.00
Cu234  Cu    0.75000   0.70178   0.16667   0.00000  Uiso   1.00
H235   H     0.80889   0.62416   0.20841   0.00000  Uiso   1.00
H236   H     0.71306   0.87585   0.10071   0.00000  Uiso   1.00
H237   H     0.69082   0.62455   0.12536   0.00000  Uiso   1.00
H238   H     0.78686   0.87549   0.23268   0.00000  Uiso   1.00
N239   N     0.75000   0.62934   0.16667   0.00000  Uiso   1.00
N240   N     0.75000   0.87065   0.16667   0.00000  Uiso   1.00
C241   C     0.74997   0.52735   0.16676   0.00000  Uiso   1.00
C242   C     0.74998   0.97266   0.16674   0.00000  Uiso   1.00
C243   C     0.75001   0.75001   0.02183   0.00000  Uiso   1.00
C244   C     0.75003   0.75001   0.31149   0.00000  Uiso   1.00
C245   C     0.54634   0.79089   0.15389   0.00000  Uiso   1.00
C246   C     0.95334   0.71155   0.14839   0.00000  Uiso   1.00
C247   C     0.95223   0.78765   0.19206   0.00000  Uiso   1.00
C248   C     0.54744   0.70994   0.18719   0.00000  Uiso   1.00
C249   C     0.59244   0.79174   0.15333   0.00000  Uiso   1.00
C250   C     0.90716   0.71062   0.14765   0.00000  Uiso   1.00
C251   C     0.90627   0.78750   0.19187   0.00000  Uiso   1.00
C252   C     0.59341   0.70996   0.18719   0.00000  Uiso   1.00
C253   C     0.61634   0.75048   0.16879   0.00000  Uiso   1.00
C254   C     0.88345   0.74954   0.16839   0.00000  Uiso   1.00
C255   C     0.52393   0.75028   0.17083   0.00000  Uiso   1.00
C256   C     0.97574   0.74972   0.17066   0.00000  Uiso   1.00
C257   C     0.78293   0.60459   0.18989   0.00000  Uiso   1.00
C258   C     0.72946   0.89540   0.12982   0.00000  Uiso   1.00
C259   C     0.71694   0.60482   0.14367   0.00000  Uiso   1.00
C260   C     0.77054   0.89520   0.20355   0.00000  Uiso   1.00
H261   H     0.81126   0.53581   0.20764   0.00000  Uiso   1.00
H262   H     0.71358   0.96416   0.09834   0.00000  Uiso   1.00
H263   H     0.68862   0.53624   0.12603   0.00000  Uiso   1.00
H264   H     0.78634   0.96381   0.23515   0.00000  Uiso   1.00
H265   H     0.52795   0.82153   0.13982   0.00000  Uiso   1.00
H266   H     0.97189   0.68328   0.13026   0.00000  Uiso   1.00
H267   H     0.96957   0.81722   0.20947   0.00000  Uiso   1.00
H268   H     0.53008   0.67845   0.20053   0.00000  Uiso   1.00
O269   O     0.61397   0.83087   0.13295   0.00000  Uiso   1.00
C270   C     0.61061   0.87052   0.16522   0.00000  Uiso   1.00
H271   H     0.63116   0.90030   0.15072   0.00000  Uiso   1.00
H272   H     0.62336   0.86140   0.20249   0.00000  Uiso   1.00
H273   H     0.57612   0.88411   0.16747   0.00000  Uiso   1.00
O274   O     0.88493   0.67478   0.12217   0.00000  Uiso   1.00
C275   C     0.89398   0.62937   0.14347   0.00000  Uiso   1.00
H276   H     0.86935   0.60315   0.12957   0.00000  Uiso   1.00
H277   H     0.89108   0.63014   0.18423   0.00000  Uiso   1.00
H278   H     0.92706   0.61596   0.13243   0.00000  Uiso   1.00
O279   O     0.88388   0.82561   0.21321   0.00000  Uiso   1.00
C280   C     0.87797   0.81519   0.26341   0.00000  Uiso   1.00
H281   H     0.85819   0.78181   0.26864   0.00000  Uiso   1.00
H282   H     0.85945   0.84539   0.28048   0.00000  Uiso   1.00
H283   H     0.91021   0.81202   0.28286   0.00000  Uiso   1.00
O284   O     0.61560   0.66930   0.20341   0.00000  Uiso   1.00
C285   C     0.62164   0.67318   0.25459   0.00000  Uiso   1.00
H286   H     0.64126   0.70571   0.26434   0.00000  Uiso   1.00
H287   H     0.64038   0.64114   0.26753   0.00000  Uiso   1.00
H288   H     0.58944   0.67362   0.27415   0.00000  Uiso   1.00
O289   O     0.18573   0.29071   0.50000   0.00000  Uiso   1.00
O290   O     0.31427   0.20928   0.50000   0.00000  Uiso   1.00
O291   O     0.31427   0.29071   0.50000   0.00000  Uiso   1.00
O292   O     0.18573   0.20928   0.50000   0.00000  Uiso   1.00
C293   C     0.16484   0.25011   0.50031   0.00000  Uiso   1.00
C294   C     0.33508   0.24989   0.50018   0.00000  Uiso   1.00
O295   O     0.25000   0.29071   0.42946   0.00000  Uiso   1.00
O296   O     0.25000   0.20929   0.57054   0.00000  Uiso   1.00
O297   O     0.25000   0.29071   0.57054   0.00000  Uiso   1.00
O298   O     0.25000   0.20929   0.42946   0.00000  Uiso   1.00
C299   C     0.28380   0.05385   0.52329   0.00000  Uiso   1.00
C300   C     0.22934   0.44613   0.46228   0.00000  Uiso   1.00
C301   C     0.21610   0.05410   0.47696   0.00000  Uiso   1.00
C302   C     0.27062   0.44593   0.53783   0.00000  Uiso   1.00
C303   C     0.24999   0.25000   0.40684   0.00000  Uiso   1.00
C304   C     0.25003   0.25000   0.59316   0.00000  Uiso   1.00
Cu305  Cu    0.25000   0.29821   0.50000   0.00000  Uiso   1.00
Cu306  Cu    0.25000   0.20178   0.50000   0.00000  Uiso   1.00
H307   H     0.30889   0.12416   0.54174   0.00000  Uiso   1.00
H308   H     0.21306   0.37585   0.43404   0.00000  Uiso   1.00
H309   H     0.19082   0.12455   0.45869   0.00000  Uiso   1.00
H310   H     0.28686   0.37549   0.56601   0.00000  Uiso   1.00
N311   N     0.25000   0.12934   0.50000   0.00000  Uiso   1.00
N312   N     0.25000   0.37065   0.50000   0.00000  Uiso   1.00
C313   C     0.24997   0.02735   0.50010   0.00000  Uiso   1.00
C314   C     0.24998   0.47266   0.50007   0.00000  Uiso   1.00
C315   C     0.25001   0.25001   0.35516   0.00000  Uiso   1.00
C316   C     0.25003   0.25001   0.64483   0.00000  Uiso   1.00
C317   C     0.04634   0.29089   0.48722   0.00000  Uiso   1.00
C318   C     0.45334   0.21155   0.48172   0.00000  Uiso   1.00
C319   C     0.45223   0.28765   0.52540   0.00000  Uiso   1.00
C320   C     0.04744   0.20994   0.52053   0.00000  Uiso   1.00
C321   C     0.09244   0.29174   0.48666   0.00000  Uiso   1.00
C322   C     0.40716   0.21062   0.48098   0.00000  Uiso   1.00
C323   C     0.40627   0.28750   0.52521   0.00000  Uiso   1.00
C324   C     0.09341   0.20996   0.52052   0.00000  Uiso   1.00
C325   C     0.11634   0.25048   0.50212   0.00000  Uiso   1.00
C326   C     0.38345   0.24954   0.50173   0.00000  Uiso   1.00
C327   C     0.02393   0.25028   0.50416   0.00000  Uiso   1.00
C328   C     0.47574   0.24972   0.50399   0.00000  Uiso   1.00
C329   C     0.28293   0.10459   0.52323   0.00000  Uiso   1.00
C330   C     0.22946   0.39540   0.46315   0.00000  Uiso   1.00
C331   C     0.21694   0.10482   0.47700   0.00000  Uiso   1.00
C332   C     0.27054   0.39520   0.53688   0.00000  Uiso   1.00
H333   H     0.31126   0.03581   0.54097   0.00000  Uiso   1.00
H334   H     0.21358   0.46416   0.43168   0.00000  Uiso   1.00
H335   H     0.18862   0.03624   0.45936   0.00000  Uiso   1.00
H336   H     0.28634   0.46381   0.56848   0.00000  Uiso   1.00
H337   H     0.02795   0.32153   0.47315   0.00000  Uiso   1.00
H338   H     0.47189   0.18328   0.46359   0.00000  Uiso   1.00
H339   H     0.46957   0.31722   0.54280   0.00000  Uiso   1.00
H340   H     0.03008   0.17845   0.53386   0.00000  Uiso   1.00
O341   O     0.11397   0.33087   0.46628   0.00000  Uiso   1.00
C342   C     0.11061   0.37052   0.49855   0.00000  Uiso   1.00
H343   H     0.13116   0.40030   0.48406   0.00000  Uiso   1.00
H344   H     0.12336   0.36140   0.53582   0.00000  Uiso   1.00
H345   H     0.07612   0.38411   0.50081   0.00000  Uiso   1.00
O346   O     0.38493   0.17478   0.45551   0.00000  Uiso   1.00
C347   C     0.39398   0.12937   0.47680   0.00000  Uiso   1.00
H348   H     0.36935   0.10315   0.46291   0.00000  Uiso   1.00
H349   H     0.39108   0.13014   0.51757   0.00000  Uiso   1.00
H350   H     0.42706   0.11596   0.46577   0.00000  Uiso   1.00
O351   O     0.38388   0.32561   0.54654   0.00000  Uiso   1.00
C352   C     0.37797   0.31519   0.59674   0.00000  Uiso   1.00
H353   H     0.35819   0.28181   0.60198   0.00000  Uiso   1.00
H354   H     0.35945   0.34539   0.61381   0.00000  Uiso   1.00
H355   H     0.41021   0.31202   0.61619   0.00000  Uiso   1.00
O356   O     0.11560   0.16930   0.53675   0.00000  Uiso   1.00
C357   C     0.12164   0.17318   0.58793   0.00000  Uiso   1.00
H358   H     0.14126   0.20571   0.59768   0.00000  Uiso   1.00
H359   H     0.14038   0.14114   0.60087   0.00000  Uiso   1.00
H360   H     0.08944   0.17362   0.60748   0.00000  Uiso   1.00
O361   O     0.68573   0.29071   0.50000   0.00000  Uiso   1.00
O362   O     0.81427   0.20928   0.50000   0.00000  Uiso   1.00
O363   O     0.81427   0.29071   0.50000   0.00000  Uiso   1.00
O364   O     0.68573   0.20928   0.50000   0.00000  Uiso   1.00
C365   C     0.66484   0.25011   0.50031   0.00000  Uiso   1.00
C366   C     0.83508   0.24989   0.50018   0.00000  Uiso   1.00
O367   O     0.75000   0.29071   0.42946   0.00000  Uiso   1.00
O368   O     0.75000   0.20929   0.57054   0.00000  Uiso   1.00
O369   O     0.75000   0.29071   0.57054   0.00000  Uiso   1.00
O370   O     0.75000   0.20929   0.42946   0.00000  Uiso   1.00
C371   C     0.78380   0.05385   0.52329   0.00000  Uiso   1.00
C372   C     0.72934   0.44613   0.46228   0.00000  Uiso   1.00
C373   C     0.71610   0.05410   0.47696   0.00000  Uiso   1.00
C374   C     0.77062   0.44593   0.53783   0.00000  Uiso   1.00
C375   C     0.74999   0.25000   0.40684   0.00000  Uiso   1.00
C376   C     0.75003   0.25000   0.59316   0.00000  Uiso   1.00
Cu377  Cu    0.75000   0.29821   0.50000   0.00000  Uiso   1.00
Cu378  Cu    0.75000   0.20178   0.50000   0.00000  Uiso   1.00
H379   H     0.80889   0.12416   0.54174   0.00000  Uiso   1.00
H380   H     0.71306   0.37585   0.43404   0.00000  Uiso   1.00
H381   H     0.69082   0.12455   0.45869   0.00000  Uiso   1.00
H382   H     0.78686   0.37549   0.56601   0.00000  Uiso   1.00
N383   N     0.75000   0.12934   0.50000   0.00000  Uiso   1.00
N384   N     0.75000   0.37065   0.50000   0.00000  Uiso   1.00
C385   C     0.74997   0.02735   0.50010   0.00000  Uiso   1.00
C386   C     0.74998   0.47266   0.50007   0.00000  Uiso   1.00
C387   C     0.75001   0.25001   0.35516   0.00000  Uiso   1.00
C388   C     0.75003   0.25001   0.64483   0.00000  Uiso   1.00
C389   C     0.54634   0.29089   0.48722   0.00000  Uiso   1.00
C390   C     0.95334   0.21155   0.48172   0.00000  Uiso   1.00
C391   C     0.95223   0.28765   0.52540   0.00000  Uiso   1.00
C392   C     0.54744   0.20994   0.52053   0.00000  Uiso   1.00
C393   C     0.59244   0.29174   0.48666   0.00000  Uiso   1.00
C394   C     0.90716   0.21062   0.48098   0.00000  Uiso   1.00
C395   C     0.90627   0.28750   0.52521   0.00000  Uiso   1.00
C396   C     0.59341   0.20996   0.52052   0.00000  Uiso   1.00
C397   C     0.61634   0.25048   0.50212   0.00000  Uiso   1.00
C398   C     0.88345   0.24954   0.50173   0.00000  Uiso   1.00
C399   C     0.52393   0.25028   0.50416   0.00000  Uiso   1.00
C400   C     0.97574   0.24972   0.50399   0.00000  Uiso   1.00
C401   C     0.78293   0.10459   0.52323   0.00000  Uiso   1.00
C402   C     0.72946   0.39540   0.46315   0.00000  Uiso   1.00
C403   C     0.71694   0.10482   0.47700   0.00000  Uiso   1.00
C404   C     0.77054   0.39520   0.53688   0.00000  Uiso   1.00
H405   H     0.81126   0.03581   0.54097   0.00000  Uiso   1.00
H406   H     0.71358   0.46416   0.43168   0.00000  Uiso   1.00
H407   H     0.68862   0.03624   0.45936   0.00000  Uiso   1.00
H408   H     0.78634   0.46381   0.56848   0.00000  Uiso   1.00
H409   H     0.52795   0.32153   0.47315   0.00000  Uiso   1.00
H410   H     0.97189   0.18328   0.46359   0.00000  Uiso   1.00
H411   H     0.96957   0.31722   0.54280   0.00000  Uiso   1.00
H412   H     0.53008   0.17845   0.53386   0.00000  Uiso   1.00
O413   O     0.61397   0.33087   0.46628   0.00000  Uiso   1.00
C414   C     0.61061   0.37052   0.49855   0.00000  Uiso   1.00
H415   H     0.63116   0.40030   0.48406   0.00000  Uiso   1.00
H416   H     0.62336   0.36140   0.53582   0.00000  Uiso   1.00
H417   H     0.57612   0.38411   0.50081   0.00000  Uiso   1.00
O418   O     0.88493   0.17478   0.45551   0.00000  Uiso   1.00
C419   C     0.89398   0.12937   0.47680   0.00000  Uiso   1.00
H420   H     0.86935   0.10315   0.46291   0.00000  Uiso   1.00
H421   H     0.89108   0.13014   0.51757   0.00000  Uiso   1.00
H422   H     0.92706   0.11596   0.46577   0.00000  Uiso   1.00
O423   O     0.88388   0.32561   0.54654   0.00000  Uiso   1.00
C424   C     0.87797   0.31519   0.59674   0.00000  Uiso   1.00
H425   H     0.85819   0.28181   0.60198   0.00000  Uiso   1.00
H426   H     0.85945   0.34539   0.61381   0.00000  Uiso   1.00
H427   H     0.91021   0.31202   0.61619   0.00000  Uiso   1.00
O428   O     0.61560   0.16930   0.53675   0.00000  Uiso   1.00
C429   C     0.62164   0.17318   0.58793   0.00000  Uiso   1.00
H430   H     0.64126   0.20571   0.59768   0.00000  Uiso   1.00
H431   H     0.64038   0.14114   0.60087   0.00000  Uiso   1.00
H432   H     0.58944   0.17362   0.60748   0.00000  Uiso   1.00
O433   O     0.18573   0.79071   0.50000   0.00000  Uiso   1.00
O434   O     0.31427   0.70928   0.50000   0.00000  Uiso   1.00
O435   O     0.31427   0.79071   0.50000   0.00000  Uiso   1.00
O436   O     0.18573   0.70928   0.50000   0.00000  Uiso   1.00
C437   C     0.16484   0.75011   0.50031   0.00000  Uiso   1.00
C438   C     0.33508   0.74989   0.50018   0.00000  Uiso   1.00
O439   O     0.25000   0.79071   0.42946   0.00000  Uiso   1.00
O440   O     0.25000   0.70929   0.57054   0.00000  Uiso   1.00
O441   O     0.25000   0.79071   0.57054   0.00000  Uiso   1.00
O442   O     0.25000   0.70929   0.42946   0.00000  Uiso   1.00
C443   C     0.28380   0.55385   0.52329   0.00000  Uiso   1.00
C444   C     0.22934   0.94613   0.46228   0.00000  Uiso   1.00
C445   C     0.21610   0.55410   0.47696   0.00000  Uiso   1.00
C446   C     0.27062   0.94593   0.53783   0.00000  Uiso   1.00
C447   C     0.24999   0.75000   0.40684   0.00000  Uiso   1.00
C448   C     0.25003   0.75000   0.59316   0.00000  Uiso   1.00
Cu449  Cu    0.25000   0.79821   0.50000   0.00000  Uiso   1.00
Cu450  Cu    0.25000   0.70178   0.50000   0.00000  Uiso   1.00
H451   H     0.30889   0.62416   0.54174   0.00000  Uiso   1.00
H452   H     0.21306   0.87585   0.43404   0.00000  Uiso   1.00
H453   H     0.19082   0.62455   0.45869   0.00000  Uiso   1.00
H454   H     0.28686   0.87549   0.56601   0.00000  Uiso   1.00
N455   N     0.25000   0.62934   0.50000   0.00000  Uiso   1.00
N456   N     0.25000   0.87065   0.50000   0.00000  Uiso   1.00
C457   C     0.24997   0.52735   0.50010   0.00000  Uiso   1.00
C458   C     0.24998   0.97266   0.50007   0.00000  Uiso   1.00
C459   C     0.25001   0.75001   0.35516   0.00000  Uiso   1.00
C460   C     0.25003   0.75001   0.64483   0.00000  Uiso   1.00
C461   C     0.04634   0.79089   0.48722   0.00000  Uiso   1.00
C462   C     0.45334   0.71155   0.48172   0.00000  Uiso   1.00
C463   C     0.45223   0.78765   0.52540   0.00000  Uiso   1.00
C464   C     0.04744   0.70994   0.52053   0.00000  Uiso   1.00
C465   C     0.09244   0.79174   0.48666   0.00000  Uiso   1.00
C466   C     0.40716   0.71062   0.48098   0.00000  Uiso   1.00
C467   C     0.40627   0.78750   0.52521   0.00000  Uiso   1.00
C468   C     0.09341   0.70996   0.52052   0.00000  Uiso   1.00
C469   C     0.11634   0.75048   0.50212   0.00000  Uiso   1.00
C470   C     0.38345   0.74954   0.50173   0.00000  Uiso   1.00
C471   C     0.02393   0.75028   0.50416   0.00000  Uiso   1.00
C472   C     0.47574   0.74972   0.50399   0.00000  Uiso   1.00
C473   C     0.28293   0.60459   0.52323   0.00000  Uiso   1.00
C474   C     0.22946   0.89540   0.46315   0.00000  Uiso   1.00
C475   C     0.21694   0.60482   0.47700   0.00000  Uiso   1.00
C476   C     0.27054   0.89520   0.53688   0.00000  Uiso   1.00
H477   H     0.31126   0.53581   0.54097   0.00000  Uiso   1.00
H478   H     0.21358   0.96416   0.43168   0.00000  Uiso   1.00
H479   H     0.18862   0.53624   0.45936   0.00000  Uiso   1.00
H480   H     0.28634   0.96381   0.56848   0.00000  Uiso   1.00
H481   H     0.02795   0.82153   0.47315   0.00000  Uiso   1.00
H482   H     0.47189   0.68328   0.46359   0.00000  Uiso   1.00
H483   H     0.46957   0.81722   0.54280   0.00000  Uiso   1.00
H484   H     0.03008   0.67845   0.53386   0.00000  Uiso   1.00
O485   O     0.11397   0.83087   0.46628   0.00000  Uiso   1.00
C486   C     0.11061   0.87052   0.49855   0.00000  Uiso   1.00
H487   H     0.13116   0.90030   0.48406   0.00000  Uiso   1.00
H488   H     0.12336   0.86140   0.53582   0.00000  Uiso   1.00
H489   H     0.07612   0.88411   0.50081   0.00000  Uiso   1.00
O490   O     0.38493   0.67478   0.45551   0.00000  Uiso   1.00
C491   C     0.39398   0.62937   0.47680   0.00000  Uiso   1.00
H492   H     0.36935   0.60315   0.46291   0.00000  Uiso   1.00
H493   H     0.39108   0.63014   0.51757   0.00000  Uiso   1.00
H494   H     0.42706   0.61596   0.46577   0.00000  Uiso   1.00
O495   O     0.38388   0.82561   0.54654   0.00000  Uiso   1.00
C496   C     0.37797   0.81519   0.59674   0.00000  Uiso   1.00
H497   H     0.35819   0.78181   0.60198   0.00000  Uiso   1.00
H498   H     0.35945   0.84539   0.61381   0.00000  Uiso   1.00
H499   H     0.41021   0.81202   0.61619   0.00000  Uiso   1.00
O500   O     0.11560   0.66930   0.53675   0.00000  Uiso   1.00
C501   C     0.12164   0.67318   0.58793   0.00000  Uiso   1.00
H502   H     0.14126   0.70571   0.59768   0.00000  Uiso   1.00
H503   H     0.14038   0.64114   0.60087   0.00000  Uiso   1.00
H504   H     0.08944   0.67362   0.60748   0.00000  Uiso   1.00
O505   O     0.68573   0.79071   0.50000   0.00000  Uiso   1.00
O506   O     0.81427   0.70928   0.50000   0.00000  Uiso   1.00
O507   O     0.81427   0.79071   0.50000   0.00000  Uiso   1.00
O508   O     0.68573   0.70928   0.50000   0.00000  Uiso   1.00
C509   C     0.66484   0.75011   0.50031   0.00000  Uiso   1.00
C510   C     0.83508   0.74989   0.50018   0.00000  Uiso   1.00
O511   O     0.75000   0.79071   0.42946   0.00000  Uiso   1.00
O512   O     0.75000   0.70929   0.57054   0.00000  Uiso   1.00
O513   O     0.75000   0.79071   0.57054   0.00000  Uiso   1.00
O514   O     0.75000   0.70929   0.42946   0.00000  Uiso   1.00
C515   C     0.78380   0.55385   0.52329   0.00000  Uiso   1.00
C516   C     0.72934   0.94613   0.46228   0.00000  Uiso   1.00
C517   C     0.71610   0.55410   0.47696   0.00000  Uiso   1.00
C518   C     0.77062   0.94593   0.53783   0.00000  Uiso   1.00
C519   C     0.74999   0.75000   0.40684   0.00000  Uiso   1.00
C520   C     0.75003   0.75000   0.59316   0.00000  Uiso   1.00
Cu521  Cu    0.75000   0.79821   0.50000   0.00000  Uiso   1.00
Cu522  Cu    0.75000   0.70178   0.50000   0.00000  Uiso   1.00
H523   H     0.80889   0.62416   0.54174   0.00000  Uiso   1.00
H524   H     0.71306   0.87585   0.43404   0.00000  Uiso   1.00
H525   H     0.69082   0.62455   0.45869   0.00000  Uiso   1.00
H526   H     0.78686   0.87549   0.56601   0.00000  Uiso   1.00
N527   N     0.75000   0.62934   0.50000   0.00000  Uiso   1.00
N528   N     0.75000   0.87065   0.50000   0.00000  Uiso   1.00
C529   C     0.74997   0.52735   0.50010   0.00000  Uiso   1.00
C530   C     0.74998   0.97266   0.50007   0.00000  Uiso   1.00
C531   C     0.75001   0.75001   0.35516   0.00000  Uiso   1.00
C532   C     0.75003   0.75001   0.64483   0.00000  Uiso   1.00
C533   C     0.54634   0.79089   0.48722   0.00000  Uiso   1.00
C534   C     0.95334   0.71155   0.48172   0.00000  Uiso   1.00
C535   C     0.95223   0.78765   0.52540   0.00000  Uiso   1.00
C536   C     0.54744   0.70994   0.52053   0.00000  Uiso   1.00
C537   C     0.59244   0.79174   0.48666   0.00000  Uiso   1.00
C538   C     0.90716   0.71062   0.48098   0.00000  Uiso   1.00
C539   C     0.90627   0.78750   0.52521   0.00000  Uiso   1.00
C540   C     0.59341   0.70996   0.52052   0.00000  Uiso   1.00
C541   C     0.61634   0.75048   0.50212   0.00000  Uiso   1.00
C542   C     0.88345   0.74954   0.50173   0.00000  Uiso   1.00
C543   C     0.52393   0.75028   0.50416   0.00000  Uiso   1.00
C544   C     0.97574   0.74972   0.50399   0.00000  Uiso   1.00
C545   C     0.78293   0.60459   0.52323   0.00000  Uiso   1.00
C546   C     0.72946   0.89540   0.46315   0.00000  Uiso   1.00
C547   C     0.71694   0.60482   0.47700   0.00000  Uiso   1.00
C548   C     0.77054   0.89520   0.53688   0.00000  Uiso   1.00
H549   H     0.81126   0.53581   0.54097   0.00000  Uiso   1.00
H550   H     0.71358   0.96416   0.43168   0.00000  Uiso   1.00
H551   H     0.68862   0.53624   0.45936   0.00000  Uiso   1.00
H552   H     0.78634   0.96381   0.56848   0.00000  Uiso   1.00
H553   H     0.52795   0.82153   0.47315   0.00000  Uiso   1.00
H554   H     0.97189   0.68328   0.46359   0.00000  Uiso   1.00
H555   H     0.96957   0.81722   0.54280   0.00000  Uiso   1.00
H556   H     0.53008   0.67845   0.53386   0.00000  Uiso   1.00
O557   O     0.61397   0.83087   0.46628   0.00000  Uiso   1.00
C558   C     0.61061   0.87052   0.49855   0.00000  Uiso   1.00
H559   H     0.63116   0.90030   0.48406   0.00000  Uiso   1.00
H560   H     0.62336   0.86140   0.53582   0.00000  Uiso   1.00
H561   H     0.57612   0.88411   0.50081   0.00000  Uiso   1.00
O562   O     0.88493   0.67478   0.45551   0.00000  Uiso   1.00
C563   C     0.89398   0.62937   0.47680   0.00000  Uiso   1.00
H564   H     0.86935   0.60315   0.46291   0.00000  Uiso   1.00
H565   H     0.89108   0.63014   0.51757   0.00000  Uiso   1.00
H566   H     0.92706   0.61596   0.46577   0.00000  Uiso   1.00
O567   O     0.88388   0.82561   0.54654   0.00000  Uiso   1.00
C568   C     0.87797   0.81519   0.59674   0.00000  Uiso   1.00
H569   H     0.85819   0.78181   0.60198   0.00000  Uiso   1.00
H570   H     0.85945   0.84539   0.61381   0.00000  Uiso   1.00
H571   H     0.91021   0.81202   0.61619   0.00000  Uiso   1.00
O572   O     0.61560   0.66930   0.53675   0.00000  Uiso   1.00
C573   C     0.62164   0.67318   0.58793   0.00000  Uiso   1.00
H574   H     0.64126   0.70571   0.59768   0.00000  Uiso   1.00
H575   H     0.64038   0.64114   0.60087   0.00000  Uiso   1.00
H576   H     0.58944   0.67362   0.60748   0.00000  Uiso   1.00
O577   O     0.18573   0.29071   0.83334   0.00000  Uiso   1.00
O578   O     0.31427   0.20928   0.83333   0.00000  Uiso   1.00
O579   O     0.31427   0.29071   0.83333   0.00000  Uiso   1.00
O580   O     0.18573   0.20928   0.83334   0.00000  Uiso   1.00
C581   C     0.16484   0.25011   0.83365   0.00000  Uiso   1.00
C582   C     0.33508   0.24989   0.83351   0.00000  Uiso   1.00
O583   O     0.25000   0.29071   0.76280   0.00000  Uiso   1.00
O584   O     0.25000   0.20929   0.90387   0.00000  Uiso   1.00
O585   O     0.25000   0.29071   0.90387   0.00000  Uiso   1.00
O586   O     0.25000   0.20929   0.76280   0.00000  Uiso   1.00
C587   C     0.28380   0.05385   0.85662   0.00000  Uiso   1.00
C588   C     0.22934   0.44613   0.79562   0.00000  Uiso   1.00
C589   C     0.21610   0.05410   0.81029   0.00000  Uiso   1.00
C590   C     0.27062   0.44593   0.87116   0.00000  Uiso   1.00
C591   C     0.24999   0.25000   0.74017   0.00000  Uiso   1.00
C592   C     0.25003   0.25000   0.92649   0.00000  Uiso   1.00
Cu593  Cu    0.25000   0.29821   0.83333   0.00000  Uiso   1.00
Cu594  Cu    0.25000   0.20178   0.83333   0.00000  Uiso   1.00
H595   H     0.30889   0.12416   0.87507   0.00000  Uiso   1.00
H596   H     0.21306   0.37585   0.76737   0.00000  Uiso   1.00
H597   H     0.19082   0.12455   0.79203   0.00000  Uiso   1.00
H598   H     0.28686   0.37549   0.89935   0.00000  Uiso   1.00
N599   N     0.25000   0.12934   0.83333   0.00000  Uiso   1.00
N600   N     0.25000   0.37065   0.83333   0.00000  Uiso   1.00
C601   C     0.24997   0.02735   0.83343   0.00000  Uiso   1.00
C602   C     0.24998   0.47266   0.83340   0.00000  Uiso   1.00
C603   C     0.25001   0.25001   0.68850   0.00000  Uiso   1.00
C604   C     0.25003   0.25001   0.97816   0.00000  Uiso   1.00
C605   C     0.04634   0.29089   0.82056   0.00000  Uiso   1.00
C606   C     0.45334   0.21155   0.81505   0.00000  Uiso   1.00
C607   C     0.45223   0.28765   0.85873   0.00000  Uiso   1.00
C608   C     0.04744   0.20994   0.85386   0.00000  Uiso   1.00
C609   C     0.09244   0.29174   0.81999   0.00000  Uiso   1.00
C610   C     0.40716   0.21062   0.81431   0.00000  Uiso   1.00
C611   C     0.40627   0.28750   0.85854   0.00000  Uiso   1.00
C612   C     0.09341   0.20996   0.85385   0.00000  Uiso   1.00
C613   C     0.11634   0.25048   0.83545   0.00000  Uiso   1.00
C614   C     0.38345   0.24954   0.83506   0.00000  Uiso   1.00
C615   C     0.02393   0.25028   0.83750   0.00000  Uiso   1.00
C616   C     0.47574   0.24972   0.83733   0.00000  Uiso   1.00
C617   C     0.28293   0.10459   0.85656   0.00000  Uiso   1.00
C618   C     0.22946   0.39540   0.79648   0.00000  Uiso   1.00
C619   C     0.21694   0.10482   0.81034   0.00000  Uiso   1.00
C620   C     0.27054   0.39520   0.87022   0.00000  Uiso   1.00
H621   H     0.31126   0.03581   0.87430   0.00000  Uiso   1.00
H622   H     0.21358   0.46416   0.76501   0.00000  Uiso   1.00
H623   H     0.18862   0.03624   0.79269   0.00000  Uiso   1.00
H624   H     0.28634   0.46381   0.90181   0.00000  Uiso   1.00
H625   H     0.02795   0.32153   0.80648   0.00000  Uiso   1.00
H626   H     0.47189   0.18328   0.79693   0.00000  Uiso   1.00
H627   H     0.46957   0.31722   0.87614   0.00000  Uiso   1.00
H628   H     0.03008   0.17845   0.86720   0.00000  Uiso   1.00
O629   O     0.11397   0.33087   0.79961   0.00000  Uiso   1.00
C630   C     0.11061   0.37052   0.83188   0.00000  Uiso   1.00
H631   H     0.13116   0.40030   0.81739   0.00000  Uiso   1.00
H632   H     0.12336   0.36140   0.86915   0.00000  Uiso   1.00
H633   H     0.07612   0.38411   0.83414   0.00000  Uiso   1.00
O634   O     0.38493   0.17478   0.78884   0.00000  Uiso   1.00
C635   C     0.39398   0.12937   0.81014   0.00000  Uiso   1.00
H636   H     0.36935   0.10315   0.79624   0.00000  Uiso   1.00
H637   H     0.39108   0.13014   0.85090   0.00000  Uiso   1.00
H638   H     0.42706   0.11596   0.79910   0.00000  Uiso   1.00
O639   O     0.38388   0.32561   0.87987   0.00000  Uiso   1.00
C640   C     0.37797   0.31519   0.93008   0.00000  Uiso   1.00
H641   H     0.35819   0.28181   0.93531   0.00000  Uiso   1.00
H642   H     0.35945   0.34539   0.94715   0.00000  Uiso   1.00
H643   H     0.41021   0.31202   0.94952   0.00000  Uiso   1.00
O644   O     0.11560   0.16930   0.87008   0.00000  Uiso   1.00
C645   C     0.12164   0.17318   0.92126   0.00000  Uiso   1.00
H646   H     0.14126   0.20571   0.93101   0.00000  Uiso   1.00
H647   H     0.14038   0.14114   0.93420   0.00000  Uiso   1.00
H648   H     0.08944   0.17362   0.94082   0.00000  Uiso   1.00
O649   O     0.68573   0.29071   0.83334   0.00000  Uiso   1.00
O650   O     0.81427   0.20928   0.83333   0.00000  Uiso   1.00
O651   O     0.81427   0.29071   0.83333   0.00000  Uiso   1.00
O652   O     0.68573   0.20928   0.83334   0.00000  Uiso   1.00
C653   C     0.66484   0.25011   0.83365   0.00000  Uiso   1.00
C654   C     0.83508   0.24989   0.83351   0.00000  Uiso   1.00
O655   O     0.75000   0.29071   0.76280   0.00000  Uiso   1.00
O656   O     0.75000   0.20929   0.90387   0.00000  Uiso   1.00
O657   O     0.75000   0.29071   0.90387   0.00000  Uiso   1.00
O658   O     0.75000   0.20929   0.76280   0.00000  Uiso   1.00
C659   C     0.78380   0.05385   0.85662   0.00000  Uiso   1.00
C660   C     0.72934   0.44613   0.79562   0.00000  Uiso   1.00
C661   C     0.71610   0.05410   0.81029   0.00000  Uiso   1.00
C662   C     0.77062   0.44593   0.87116   0.00000  Uiso   1.00
C663   C     0.74999   0.25000   0.74017   0.00000  Uiso   1.00
C664   C     0.75003   0.25000   0.92649   0.00000  Uiso   1.00
Cu665  Cu    0.75000   0.29821   0.83333   0.00000  Uiso   1.00
Cu666  Cu    0.75000   0.20178   0.83333   0.00000  Uiso   1.00
H667   H     0.80889   0.12416   0.87507   0.00000  Uiso   1.00
H668   H     0.71306   0.37585   0.76737   0.00000  Uiso   1.00
H669   H     0.69082   0.12455   0.79203   0.00000  Uiso   1.00
H670   H     0.78686   0.37549   0.89935   0.00000  Uiso   1.00
N671   N     0.75000   0.12934   0.83333   0.00000  Uiso   1.00
N672   N     0.75000   0.37065   0.83333   0.00000  Uiso   1.00
C673   C     0.74997   0.02735   0.83343   0.00000  Uiso   1.00
C674   C     0.74998   0.47266   0.83340   0.00000  Uiso   1.00
C675   C     0.75001   0.25001   0.68850   0.00000  Uiso   1.00
C676   C     0.75003   0.25001   0.97816   0.00000  Uiso   1.00
C677   C     0.54634   0.29089   0.82056   0.00000  Uiso   1.00
C678   C     0.95334   0.21155   0.81505   0.00000  Uiso   1.00
C679   C     0.95223   0.28765   0.85873   0.00000  Uiso   1.00
C680   C     0.54744   0.20994   0.85386   0.00000  Uiso   1.00
C681   C     0.59244   0.29174   0.81999   0.00000  Uiso   1.00
C682   C     0.90716   0.21062   0.81431   0.00000  Uiso   1.00
C683   C     0.90627   0.28750   0.85854   0.00000  Uiso   1.00
C684   C     0.59341   0.20996   0.85385   0.00000  Uiso   1.00
C685   C     0.61634   0.25048   0.83545   0.00000  Uiso   1.00
C686   C     0.88345   0.24954   0.83506   0.00000  Uiso   1.00
C687   C     0.52393   0.25028   0.83750   0.00000  Uiso   1.00
C688   C     0.97574   0.24972   0.83733   0.00000  Uiso   1.00
C689   C     0.78293   0.10459   0.85656   0.00000  Uiso   1.00
C690   C     0.72946   0.39540   0.79648   0.00000  Uiso   1.00
C691   C     0.71694   0.10482   0.81034   0.00000  Uiso   1.00
C692   C     0.77054   0.39520   0.87022   0.00000  Uiso   1.00
H693   H     0.81126   0.03581   0.87430   0.00000  Uiso   1.00
H694   H     0.71358   0.46416   0.76501   0.00000  Uiso   1.00
H695   H     0.68862   0.03624   0.79269   0.00000  Uiso   1.00
H696   H     0.78634   0.46381   0.90181   0.00000  Uiso   1.00
H697   H     0.52795   0.32153   0.80648   0.00000  Uiso   1.00
H698   H     0.97189   0.18328   0.79693   0.00000  Uiso   1.00
H699   H     0.96957   0.31722   0.87614   0.00000  Uiso   1.00
H700   H     0.53008   0.17845   0.86720   0.00000  Uiso   1.00
O701   O     0.61397   0.33087   0.79961   0.00000  Uiso   1.00
C702   C     0.61061   0.37052   0.83188   0.00000  Uiso   1.00
H703   H     0.63116   0.40030   0.81739   0.00000  Uiso   1.00
H704   H     0.62336   0.36140   0.86915   0.00000  Uiso   1.00
H705   H     0.57612   0.38411   0.83414   0.00000  Uiso   1.00
O706   O     0.88493   0.17478   0.78884   0.00000  Uiso   1.00
C707   C     0.89398   0.12937   0.81014   0.00000  Uiso   1.00
H708   H     0.86935   0.10315   0.79624   0.00000  Uiso   1.00
H709   H     0.89108   0.13014   0.85090   0.00000  Uiso   1.00
H710   H     0.92706   0.11596   0.79910   0.00000  Uiso   1.00
O711   O     0.88388   0.32561   0.87987   0.00000  Uiso   1.00
C712   C     0.87797   0.31519   0.93008   0.00000  Uiso   1.00
H713   H     0.85819   0.28181   0.93531   0.00000  Uiso   1.00
H714   H     0.85945   0.34539   0.94715   0.00000  Uiso   1.00
H715   H     0.91021   0.31202   0.94952   0.00000  Uiso   1.00
O716   O     0.61560   0.16930   0.87008   0.00000  Uiso   1.00
C717   C     0.62164   0.17318   0.92126   0.00000  Uiso   1.00
H718   H     0.64126   0.20571   0.93101   0.00000  Uiso   1.00
H719   H     0.64038   0.14114   0.93420   0.00000  Uiso   1.00
H720   H     0.58944   0.17362   0.94082   0.00000  Uiso   1.00
O721   O     0.18573   0.79071   0.83334   0.00000  Uiso   1.00
O722   O     0.31427   0.70928   0.83333   0.00000  Uiso   1.00
O723   O     0.31427   0.79071   0.83333   0.00000  Uiso   1.00
O724   O     0.18573   0.70928   0.83334   0.00000  Uiso   1.00
C725   C     0.16484   0.75011   0.83365   0.00000  Uiso   1.00
C726   C     0.33508   0.74989   0.83351   0.00000  Uiso   1.00
O727   O     0.25000   0.79071   0.76280   0.00000  Uiso   1.00
O728   O     0.25000   0.70929   0.90387   0.00000  Uiso   1.00
O729   O     0.25000   0.79071   0.90387   0.00000  Uiso   1.00
O730   O     0.25000   0.70929   0.76280   0.00000  Uiso   1.00
C731   C     0.28380   0.55385   0.85662   0.00000  Uiso   1.00
C732   C     0.22934   0.94613   0.79562   0.00000  Uiso   1.00
C733   C     0.21610   0.55410   0.81029   0.00000  Uiso   1.00
C734   C     0.27062   0.94593   0.87116   0.00000  Uiso   1.00
C735   C     0.24999   0.75000   0.74017   0.00000  Uiso   1.00
C736   C     0.25003   0.75000   0.92649   0.00000  Uiso   1.00
Cu737  Cu    0.25000   0.79821   0.83333   0.00000  Uiso   1.00
Cu738  Cu    0.25000   0.70178   0.83333   0.00000  Uiso   1.00
H739   H     0.30889   0.62416   0.87507   0.00000  Uiso   1.00
H740   H     0.21306   0.87585   0.76737   0.00000  Uiso   1.00
H741   H     0.19082   0.62455   0.79203   0.00000  Uiso   1.00
H742   H     0.28686   0.87549   0.89935   0.00000  Uiso   1.00
N743   N     0.25000   0.62934   0.83333   0.00000  Uiso   1.00
N744   N     0.25000   0.87065   0.83333   0.00000  Uiso   1.00
C745   C     0.24997   0.52735   0.83343   0.00000  Uiso   1.00
C746   C     0.24998   0.97266   0.83340   0.00000  Uiso   1.00
C747   C     0.25001   0.75001   0.68850   0.00000  Uiso   1.00
C748   C     0.25003   0.75001   0.97816   0.00000  Uiso   1.00
C749   C     0.04634   0.79089   0.82056   0.00000  Uiso   1.00
C750   C     0.45334   0.71155   0.81505   0.00000  Uiso   1.00
C751   C     0.45223   0.78765   0.85873   0.00000  Uiso   1.00
C752   C     0.04744   0.70994   0.85386   0.00000  Uiso   1.00
C753   C     0.09244   0.79174   0.81999   0.00000  Uiso   1.00
C754   C     0.40716   0.71062   0.81431   0.00000  Uiso   1.00
C755   C     0.40627   0.78750   0.85854   0.00000  Uiso   1.00
C756   C     0.09341   0.70996   0.85385   0.00000  Uiso   1.00
C757   C     0.11634   0.75048   0.83545   0.00000  Uiso   1.00
C758   C     0.38345   0.74954   0.83506   0.00000  Uiso   1.00
C759   C     0.02393   0.75028   0.83750   0.00000  Uiso   1.00
C760   C     0.47574   0.74972   0.83733   0.00000  Uiso   1.00
C761   C     0.28293   0.60459   0.85656   0.00000  Uiso   1.00
C762   C     0.22946   0.89540   0.79648   0.00000  Uiso   1.00
C763   C     0.21694   0.60482   0.81034   0.00000  Uiso   1.00
C764   C     0.27054   0.89520   0.87022   0.00000  Uiso   1.00
H765   H     0.31126   0.53581   0.87430   0.00000  Uiso   1.00
H766   H     0.21358   0.96416   0.76501   0.00000  Uiso   1.00
H767   H     0.18862   0.53624   0.79269   0.00000  Uiso   1.00
H768   H     0.28634   0.96381   0.90181   0.00000  Uiso   1.00
H769   H     0.02795   0.82153   0.80648   0.00000  Uiso   1.00
H770   H     0.47189   0.68328   0.79693   0.00000  Uiso   1.00
H771   H     0.46957   0.81722   0.87614   0.00000  Uiso   1.00
H772   H     0.03008   0.67845   0.86720   0.00000  Uiso   1.00
O773   O     0.11397   0.83087   0.79961   0.00000  Uiso   1.00
C774   C     0.11061   0.87052   0.83188   0.00000  Uiso   1.00
H775   H     0.13116   0.90030   0.81739   0.00000  Uiso   1.00
H776   H     0.12336   0.86140   0.86915   0.00000  Uiso   1.00
H777   H     0.07612   0.88411   0.83414   0.00000  Uiso   1.00
O778   O     0.38493   0.67478   0.78884   0.00000  Uiso   1.00
C779   C     0.39398   0.62937   0.81014   0.00000  Uiso   1.00
H780   H     0.36935   0.60315   0.79624   0.00000  Uiso   1.00
H781   H     0.39108   0.63014   0.85090   0.00000  Uiso   1.00
H782   H     0.42706   0.61596   0.79910   0.00000  Uiso   1.00
O783   O     0.38388   0.82561   0.87987   0.00000  Uiso   1.00
C784   C     0.37797   0.81519   0.93008   0.00000  Uiso   1.00
H785   H     0.35819   0.78181   0.93531   0.00000  Uiso   1.00
H786   H     0.35945   0.84539   0.94715   0.00000  Uiso   1.00
H787   H     0.41021   0.81202   0.94952   0.00000  Uiso   1.00
O788   O     0.11560   0.66930   0.87008   0.00000  Uiso   1.00
C789   C     0.12164   0.67318   0.92126   0.00000  Uiso   1.00
H790   H     0.14126   0.70571   0.93101   0.00000  Uiso   1.00
H791   H     0.14038   0.64114   0.93420   0.00000  Uiso   1.00
H792   H     0.08944   0.67362   0.94082   0.00000  Uiso   1.00
O793   O     0.68573   0.79071   0.83334   0.00000  Uiso   1.00
O794   O     0.81427   0.70928   0.83333   0.00000  Uiso   1.00
O795   O     0.81427   0.79071   0.83333   0.00000  Uiso   1.00
O796   O     0.68573   0.70928   0.83334   0.00000  Uiso   1.00
C797   C     0.66484   0.75011   0.83365   0.00000  Uiso   1.00
C798   C     0.83508   0.74989   0.83351   0.00000  Uiso   1.00
O799   O     0.75000   0.79071   0.76280   0.00000  Uiso   1.00
O800   O     0.75000   0.70929   0.90387   0.00000  Uiso   1.00
O801   O     0.75000   0.79071   0.90387   0.00000  Uiso   1.00
O802   O     0.75000   0.70929   0.76280   0.00000  Uiso   1.00
C803   C     0.78380   0.55385   0.85662   0.00000  Uiso   1.00
C804   C     0.72934   0.94613   0.79562   0.00000  Uiso   1.00
C805   C     0.71610   0.55410   0.81029   0.00000  Uiso   1.00
C806   C     0.77062   0.94593   0.87116   0.00000  Uiso   1.00
C807   C     0.74999   0.75000   0.74017   0.00000  Uiso   1.00
C808   C     0.75003   0.75000   0.92649   0.00000  Uiso   1.00
Cu809  Cu    0.75000   0.79821   0.83333   0.00000  Uiso   1.00
Cu810  Cu    0.75000   0.70178   0.83333   0.00000  Uiso   1.00
H811   H     0.80889   0.62416   0.87507   0.00000  Uiso   1.00
H812   H     0.71306   0.87585   0.76737   0.00000  Uiso   1.00
H813   H     0.69082   0.62455   0.79203   0.00000  Uiso   1.00
H814   H     0.78686   0.87549   0.89935   0.00000  Uiso   1.00
N815   N     0.75000   0.62934   0.83333   0.00000  Uiso   1.00
N816   N     0.75000   0.87065   0.83333   0.00000  Uiso   1.00
C817   C     0.74997   0.52735   0.83343   0.00000  Uiso   1.00
C818   C     0.74998   0.97266   0.83340   0.00000  Uiso   1.00
C819   C     0.75001   0.75001   0.68850   0.00000  Uiso   1.00
C820   C     0.75003   0.75001   0.97816   0.00000  Uiso   1.00
C821   C     0.54634   0.79089   0.82056   0.00000  Uiso   1.00
C822   C     0.95334   0.71155   0.81505   0.00000  Uiso   1.00
C823   C     0.95223   0.78765   0.85873   0.00000  Uiso   1.00
C824   C     0.54744   0.70994   0.85386   0.00000  Uiso   1.00
C825   C     0.59244   0.79174   0.81999   0.00000  Uiso   1.00
C826   C     0.90716   0.71062   0.81431   0.00000  Uiso   1.00
C827   C     0.90627   0.78750   0.85854   0.00000  Uiso   1.00
C828   C     0.59341   0.70996   0.85385   0.00000  Uiso   1.00
C829   C     0.61634   0.75048   0.83545   0.00000  Uiso   1.00
C830   C     0.88345   0.74954   0.83506   0.00000  Uiso   1.00
C831   C     0.52393   0.75028   0.83750   0.00000  Uiso   1.00
C832   C     0.97574   0.74972   0.83733   0.00000  Uiso   1.00
C833   C     0.78293   0.60459   0.85656   0.00000  Uiso   1.00
C834   C     0.72946   0.89540   0.79648   0.00000  Uiso   1.00
C835   C     0.71694   0.60482   0.81034   0.00000  Uiso   1.00
C836   C     0.77054   0.89520   0.87022   0.00000  Uiso   1.00
H837   H     0.81126   0.53581   0.87430   0.00000  Uiso   1.00
H838   H     0.71358   0.96416   0.76501   0.00000  Uiso   1.00
H839   H     0.68862   0.53624   0.79269   0.00000  Uiso   1.00
H840   H     0.78634   0.96381   0.90181   0.00000  Uiso   1.00
H841   H     0.52795   0.82153   0.80648   0.00000  Uiso   1.00
H842   H     0.97189   0.68328   0.79693   0.00000  Uiso   1.00
H843   H     0.96957   0.81722   0.87614   0.00000  Uiso   1.00
H844   H     0.53008   0.67845   0.86720   0.00000  Uiso   1.00
O845   O     0.61397   0.83087   0.79961   0.00000  Uiso   1.00
C846   C     0.61061   0.87052   0.83188   0.00000  Uiso   1.00
H847   H     0.63116   0.90030   0.81739   0.00000  Uiso   1.00
H848   H     0.62336   0.86140   0.86915   0.00000  Uiso   1.00
H849   H     0.57612   0.88411   0.83414   0.00000  Uiso   1.00
O850   O     0.88493   0.67478   0.78884   0.00000  Uiso   1.00
C851   C     0.89398   0.62937   0.81014   0.00000  Uiso   1.00
H852   H     0.86935   0.60315   0.79624   0.00000  Uiso   1.00
H853   H     0.89108   0.63014   0.85090   0.00000  Uiso   1.00
H854   H     0.92706   0.61596   0.79910   0.00000  Uiso   1.00
O855   O     0.88388   0.82561   0.87987   0.00000  Uiso   1.00
C856   C     0.87797   0.81519   0.93008   0.00000  Uiso   1.00
H857   H     0.85819   0.78181   0.93531   0.00000  Uiso   1.00
H858   H     0.85945   0.84539   0.94715   0.00000  Uiso   1.00
H859   H     0.91021   0.81202   0.94952   0.00000  Uiso   1.00
O860   O     0.61560   0.66930   0.87008   0.00000  Uiso   1.00
C861   C     0.62164   0.67318   0.92126   0.00000  Uiso   1.00
H862   H     0.64126   0.70571   0.93101   0.00000  Uiso   1.00
H863   H     0.64038   0.64114   0.93420   0.00000  Uiso   1.00
H864   H     0.58944   0.67362   0.94082   0.00000  Uiso   1.00
loop_
_geom_bond_atom_site_label_1
_geom_bond_atom_site_label_2
_geom_bond_distance
_geom_bond_site_symmetry_2
_ccdc_geom_bond_type
O1     Cu17    1.959   .     S
O1     C5      1.293   .     A
O2     Cu18    1.959   .     S
O2     C6      1.292   .     A
O3     Cu17    1.958   .     S
O3     C6      1.294   .     A
O4     Cu18    1.958   .     S
O4     C5      1.295   .     A
C5     C37     1.471   .     S
C6     C38     1.466   .     S
O7     C15     1.286   .     A
O7     Cu17    1.933   .     S
O8     C16     1.286   .     A
O8     Cu18    1.933   .     S
O9     C16     1.286   .     A
O9     Cu17    1.933   .     S
O10    Cu18    1.933   .     S
O10    C15     1.286   .     A
C11    C41     1.407   .     A
C11    H45     1.081   .     S
C11    C25     1.411   .     A
C12    H46     1.081   .     S
C12    C42     1.407   .     A
C12    C26     1.411   .     A
C13    C25     1.411   .     A
C13    C43     1.407   .     A
C13    H47     1.081   .     S
C14    C26     1.411   .     A
C14    C44     1.407   .     A
C14    H48     1.081   .     S
C15    C27     1.408   .     S
C16    C28     1.408   .     S
Cu17   Cu18    2.673   .     S
Cu17   N24     2.008   .     S
Cu18   N23     2.008   .     S
H19    C41     1.081   .     S
H20    C42     1.081   .     S
H21    C43     1.081   .     S
H22    C44     1.081   .     S
N23    C41     1.363   .     A
N23    C43     1.364   .     A
N24    C42     1.364   .     A
N24    C44     1.364   .     A
C25    C170    1.516   1_545 S
C26    C169    1.516   .     S
C27    C604    1.190   1_554 S
C28    C315    1.190   .     S
C29    C39     1.396   .     A
C29    H49     1.084   .     S
C29    C33     1.397   .     A
C30    H50     1.083   .     S
C30    C40     1.397   .     A
C30    C34     1.400   .     A
C31    H51     1.084   .     S
C31    C35     1.393   .     A
C31    C40     1.396   .     A
C32    C36     1.393   .     A
C32    C39     1.396   .     A
C32    H52     1.084   .     S
C33    C37     1.415   .     A
C33    O53     1.385   .     S
C34    O58     1.387   .     S
C34    C38     1.413   .     A
C35    C38     1.413   .     A
C35    O63     1.383   .     S
C36    C37     1.415   .     A
C36    O68     1.382   .     S
C39    C112    1.461   1_455 S
C40    C111    1.461   .     S
O53    C54     1.411   .     S
C54    H56     1.114   .     S
C54    H55     1.109   .     S
C54    H57     1.112   .     S
O58    C59     1.412   .     S
C59    H60     1.109   .     S
C59    H61     1.115   .     S
C59    H62     1.110   .     S
O63    C64     1.410   .     S
C64    H65     1.114   .     S
C64    H66     1.109   .     S
C64    H67     1.113   .     S
O68    C69     1.410   .     S
C69    H72     1.113   .     S
C69    H71     1.109   .     S
C69    H70     1.114   .     S
O73    Cu89    1.959   .     S
O73    C77     1.293   .     A
O74    Cu90    1.959   .     S
O74    C78     1.292   .     A
O75    Cu89    1.958   .     S
O75    C78     1.294   .     A
O76    Cu90    1.958   .     S
O76    C77     1.295   .     A
C77    C109    1.471   .     S
C78    C110    1.466   .     S
O79    C87     1.286   .     A
O79    Cu89    1.933   .     S
O80    C88     1.286   .     A
O80    Cu90    1.933   .     S
O81    C88     1.286   .     A
O81    Cu89    1.933   .     S
O82    Cu90    1.933   .     S
O82    C87     1.286   .     A
C83    C113    1.407   .     A
C83    H117    1.081   .     S
C83    C97     1.411   .     A
C84    H118    1.081   .     S
C84    C114    1.407   .     A
C84    C98     1.411   .     A
C85    C97     1.411   .     A
C85    C115    1.407   .     A
C85    H119    1.081   .     S
C86    C98     1.411   .     A
C86    C116    1.407   .     A
C86    H120    1.081   .     S
C87    C99     1.408   .     S
C88    C100    1.408   .     S
Cu89   Cu90    2.673   .     S
Cu89   N96     2.008   .     S
Cu90   N95     2.008   .     S
H91    C113    1.081   .     S
H92    C114    1.081   .     S
H93    C115    1.081   .     S
H94    C116    1.081   .     S
N95    C113    1.363   .     A
N95    C115    1.364   .     A
N96    C114    1.364   .     A
N96    C116    1.364   .     A
C97    C242    1.516   1_545 S
C98    C241    1.516   .     S
C99    C676    1.190   1_554 S
C100   C387    1.190   .     S
C101   C111    1.396   .     A
C101   H121    1.084   .     S
C101   C105    1.397   .     A
C102   H122    1.083   .     S
C102   C112    1.397   .     A
C102   C106    1.400   .     A
C103   H123    1.084   .     S
C103   C107    1.393   .     A
C103   C112    1.396   .     A
C104   C108    1.393   .     A
C104   C111    1.396   .     A
C104   H124    1.084   .     S
C105   C109    1.415   .     A
C105   O125    1.385   .     S
C106   O130    1.387   .     S
C106   C110    1.413   .     A
C107   C110    1.413   .     A
C107   O135    1.383   .     S
C108   C109    1.415   .     A
C108   O140    1.382   .     S
C112   C39     1.461   1_655 S
O125   C126    1.411   .     S
C126   H128    1.114   .     S
C126   H127    1.109   .     S
C126   H129    1.112   .     S
O130   C131    1.412   .     S
C131   H132    1.109   .     S
C131   H133    1.115   .     S
C131   H134    1.110   .     S
O135   C136    1.410   .     S
C136   H137    1.114   .     S
C136   H138    1.109   .     S
C136   H139    1.113   .     S
O140   C141    1.410   .     S
C141   H144    1.113   .     S
C141   H143    1.109   .     S
C141   H142    1.114   .     S
O145   Cu161   1.959   .     S
O145   C149    1.293   .     A
O146   Cu162   1.959   .     S
O146   C150    1.292   .     A
O147   Cu161   1.958   .     S
O147   C150    1.294   .     A
O148   Cu162   1.958   .     S
O148   C149    1.295   .     A
C149   C181    1.471   .     S
C150   C182    1.466   .     S
O151   C159    1.286   .     A
O151   Cu161   1.933   .     S
O152   C160    1.286   .     A
O152   Cu162   1.933   .     S
O153   C160    1.286   .     A
O153   Cu161   1.933   .     S
O154   Cu162   1.933   .     S
O154   C159    1.286   .     A
C155   C185    1.407   .     A
C155   H189    1.081   .     S
C155   C169    1.411   .     A
C156   H190    1.081   .     S
C156   C186    1.407   .     A
C156   C170    1.411   .     A
C157   C169    1.411   .     A
C157   C187    1.407   .     A
C157   H191    1.081   .     S
C158   C170    1.411   .     A
C158   C188    1.407   .     A
C158   H192    1.081   .     S
C159   C171    1.408   .     S
C160   C172    1.408   .     S
Cu161  Cu162   2.673   .     S
Cu161  N168    2.008   .     S
Cu162  N167    2.008   .     S
H163   C185    1.081   .     S
H164   C186    1.081   .     S
H165   C187    1.081   .     S
H166   C188    1.081   .     S
N167   C185    1.363   .     A
N167   C187    1.364   .     A
N168   C186    1.364   .     A
N168   C188    1.364   .     A
C170   C25     1.516   1_565 S
C171   C748    1.190   1_554 S
C172   C459    1.190   .     S
C173   C183    1.396   .     A
C173   H193    1.084   .     S
C173   C177    1.397   .     A
C174   H194    1.083   .     S
C174   C184    1.397   .     A
C174   C178    1.400   .     A
C175   H195    1.084   .     S
C175   C179    1.393   .     A
C175   C184    1.396   .     A
C176   C180    1.393   .     A
C176   C183    1.396   .     A
C176   H196    1.084   .     S
C177   C181    1.415   .     A
C177   O197    1.385   .     S
C178   O202    1.387   .     S
C178   C182    1.413   .     A
C179   C182    1.413   .     A
C179   O207    1.383   .     S
C180   C181    1.415   .     A
C180   O212    1.382   .     S
C183   C256    1.461   1_455 S
C184   C255    1.461   .     S
O197   C198    1.411   .     S
C198   H200    1.114   .     S
C198   H199    1.109   .     S
C198   H201    1.112   .     S
O202   C203    1.412   .     S
C203   H204    1.109   .     S
C203   H205    1.115   .     S
C203   H206    1.110   .     S
O207   C208    1.410   .     S
C208   H209    1.114   .     S
C208   H210    1.109   .     S
C208   H211    1.113   .     S
O212   C213    1.410   .     S
C213   H216    1.113   .     S
C213   H215    1.109   .     S
C213   H214    1.114   .     S
O217   Cu233   1.959   .     S
O217   C221    1.293   .     A
O218   Cu234   1.959   .     S
O218   C222    1.292   .     A
O219   Cu233   1.958   .     S
O219   C222    1.294   .     A
O220   Cu234   1.958   .     S
O220   C221    1.295   .     A
C221   C253    1.471   .     S
C222   C254    1.466   .     S
O223   C231    1.286   .     A
O223   Cu233   1.933   .     S
O224   C232    1.286   .     A
O224   Cu234   1.933   .     S
O225   C232    1.286   .     A
O225   Cu233   1.933   .     S
O226   Cu234   1.933   .     S
O226   C231    1.286   .     A
C227   C257    1.407   .     A
C227   H261    1.081   .     S
C227   C241    1.411   .     A
C228   H262    1.081   .     S
C228   C258    1.407   .     A
C228   C242    1.411   .     A
C229   C241    1.411   .     A
C229   C259    1.407   .     A
C229   H263    1.081   .     S
C230   C242    1.411   .     A
C230   C260    1.407   .     A
C230   H264    1.081   .     S
C231   C243    1.408   .     S
C232   C244    1.408   .     S
Cu233  Cu234   2.673   .     S
Cu233  N240    2.008   .     S
Cu234  N239    2.008   .     S
H235   C257    1.081   .     S
H236   C258    1.081   .     S
H237   C259    1.081   .     S
H238   C260    1.081   .     S
N239   C257    1.363   .     A
N239   C259    1.364   .     A
N240   C258    1.364   .     A
N240   C260    1.364   .     A
C242   C97     1.516   1_565 S
C243   C820    1.190   1_554 S
C244   C531    1.190   .     S
C245   C255    1.396   .     A
C245   H265    1.084   .     S
C245   C249    1.397   .     A
C246   H266    1.083   .     S
C246   C256    1.397   .     A
C246   C250    1.400   .     A
C247   H267    1.084   .     S
C247   C251    1.393   .     A
C247   C256    1.396   .     A
C248   C252    1.393   .     A
C248   C255    1.396   .     A
C248   H268    1.084   .     S
C249   C253    1.415   .     A
C249   O269    1.385   .     S
C250   O274    1.387   .     S
C250   C254    1.413   .     A
C251   C254    1.413   .     A
C251   O279    1.383   .     S
C252   C253    1.415   .     A
C252   O284    1.382   .     S
C256   C183    1.461   1_655 S
O269   C270    1.411   .     S
C270   H272    1.114   .     S
C270   H271    1.109   .     S
C270   H273    1.112   .     S
O274   C275    1.412   .     S
C275   H276    1.109   .     S
C275   H277    1.115   .     S
C275   H278    1.110   .     S
O279   C280    1.410   .     S
C280   H281    1.114   .     S
C280   H282    1.109   .     S
C280   H283    1.113   .     S
O284   C285    1.410   .     S
C285   H288    1.113   .     S
C285   H287    1.109   .     S
C285   H286    1.114   .     S
O289   Cu305   1.959   .     S
O289   C293    1.293   .     A
O290   Cu306   1.959   .     S
O290   C294    1.292   .     A
O291   Cu305   1.958   .     S
O291   C294    1.294   .     A
O292   Cu306   1.958   .     S
O292   C293    1.295   .     A
C293   C325    1.471   .     S
C294   C326    1.466   .     S
O295   C303    1.286   .     A
O295   Cu305   1.933   .     S
O296   C304    1.286   .     A
O296   Cu306   1.933   .     S
O297   C304    1.286   .     A
O297   Cu305   1.933   .     S
O298   Cu306   1.933   .     S
O298   C303    1.286   .     A
C299   C329    1.407   .     A
C299   H333    1.081   .     S
C299   C313    1.411   .     A
C300   H334    1.081   .     S
C300   C330    1.407   .     A
C300   C314    1.411   .     A
C301   C313    1.411   .     A
C301   C331    1.407   .     A
C301   H335    1.081   .     S
C302   C314    1.411   .     A
C302   C332    1.407   .     A
C302   H336    1.081   .     S
C303   C315    1.408   .     S
C304   C316    1.408   .     S
Cu305  Cu306   2.673   .     S
Cu305  N312    2.008   .     S
Cu306  N311    2.008   .     S
H307   C329    1.081   .     S
H308   C330    1.081   .     S
H309   C331    1.081   .     S
H310   C332    1.081   .     S
N311   C329    1.363   .     A
N311   C331    1.364   .     A
N312   C330    1.364   .     A
N312   C332    1.364   .     A
C313   C458    1.516   1_545 S
C314   C457    1.516   .     S
C316   C603    1.190   .     S
C317   C327    1.396   .     A
C317   H337    1.084   .     S
C317   C321    1.397   .     A
C318   H338    1.083   .     S
C318   C328    1.397   .     A
C318   C322    1.400   .     A
C319   H339    1.084   .     S
C319   C323    1.393   .     A
C319   C328    1.396   .     A
C320   C324    1.393   .     A
C320   C327    1.396   .     A
C320   H340    1.084   .     S
C321   C325    1.415   .     A
C321   O341    1.385   .     S
C322   O346    1.387   .     S
C322   C326    1.413   .     A
C323   C326    1.413   .     A
C323   O351    1.383   .     S
C324   C325    1.415   .     A
C324   O356    1.382   .     S
C327   C400    1.461   1_455 S
C328   C399    1.461   .     S
O341   C342    1.411   .     S
C342   H344    1.114   .     S
C342   H343    1.109   .     S
C342   H345    1.112   .     S
O346   C347    1.412   .     S
C347   H348    1.109   .     S
C347   H349    1.115   .     S
C347   H350    1.110   .     S
O351   C352    1.410   .     S
C352   H353    1.114   .     S
C352   H354    1.109   .     S
C352   H355    1.113   .     S
O356   C357    1.410   .     S
C357   H360    1.113   .     S
C357   H359    1.109   .     S
C357   H358    1.114   .     S
O361   Cu377   1.959   .     S
O361   C365    1.293   .     A
O362   Cu378   1.959   .     S
O362   C366    1.292   .     A
O363   Cu377   1.958   .     S
O363   C366    1.294   .     A
O364   Cu378   1.958   .     S
O364   C365    1.295   .     A
C365   C397    1.471   .     S
C366   C398    1.466   .     S
O367   C375    1.286   .     A
O367   Cu377   1.933   .     S
O368   C376    1.286   .     A
O368   Cu378   1.933   .     S
O369   C376    1.286   .     A
O369   Cu377   1.933   .     S
O370   Cu378   1.933   .     S
O370   C375    1.286   .     A
C371   C401    1.407   .     A
C371   H405    1.081   .     S
C371   C385    1.411   .     A
C372   H406    1.081   .     S
C372   C402    1.407   .     A
C372   C386    1.411   .     A
C373   C385    1.411   .     A
C373   C403    1.407   .     A
C373   H407    1.081   .     S
C374   C386    1.411   .     A
C374   C404    1.407   .     A
C374   H408    1.081   .     S
C375   C387    1.408   .     S
C376   C388    1.408   .     S
Cu377  Cu378   2.673   .     S
Cu377  N384    2.008   .     S
Cu378  N383    2.008   .     S
H379   C401    1.081   .     S
H380   C402    1.081   .     S
H381   C403    1.081   .     S
H382   C404    1.081   .     S
N383   C401    1.363   .     A
N383   C403    1.364   .     A
N384   C402    1.364   .     A
N384   C404    1.364   .     A
C385   C530    1.516   1_545 S
C386   C529    1.516   .     S
C388   C675    1.190   .     S
C389   C399    1.396   .     A
C389   H409    1.084   .     S
C389   C393    1.397   .     A
C390   H410    1.083   .     S
C390   C400    1.397   .     A
C390   C394    1.400   .     A
C391   H411    1.084   .     S
C391   C395    1.393   .     A
C391   C400    1.396   .     A
C392   C396    1.393   .     A
C392   C399    1.396   .     A
C392   H412    1.084   .     S
C393   C397    1.415   .     A
C393   O413    1.385   .     S
C394   O418    1.387   .     S
C394   C398    1.413   .     A
C395   C398    1.413   .     A
C395   O423    1.383   .     S
C396   C397    1.415   .     A
C396   O428    1.382   .     S
C400   C327    1.461   1_655 S
O413   C414    1.411   .     S
C414   H416    1.114   .     S
C414   H415    1.109   .     S
C414   H417    1.112   .     S
O418   C419    1.412   .     S
C419   H420    1.109   .     S
C419   H421    1.115   .     S
C419   H422    1.110   .     S
O423   C424    1.410   .     S
C424   H425    1.114   .     S
C424   H426    1.109   .     S
C424   H427    1.113   .     S
O428   C429    1.410   .     S
C429   H432    1.113   .     S
C429   H431    1.109   .     S
C429   H430    1.114   .     S
O433   Cu449   1.959   .     S
O433   C437    1.293   .     A
O434   Cu450   1.959   .     S
O434   C438    1.292   .     A
O435   Cu449   1.958   .     S
O435   C438    1.294   .     A
O436   Cu450   1.958   .     S
O436   C437    1.295   .     A
C437   C469    1.471   .     S
C438   C470    1.466   .     S
O439   C447    1.286   .     A
O439   Cu449   1.933   .     S
O440   C448    1.286   .     A
O440   Cu450   1.933   .     S
O441   C448    1.286   .     A
O441   Cu449   1.933   .     S
O442   Cu450   1.933   .     S
O442   C447    1.286   .     A
C443   C473    1.407   .     A
C443   H477    1.081   .     S
C443   C457    1.411   .     A
C444   H478    1.081   .     S
C444   C474    1.407   .     A
C444   C458    1.411   .     A
C445   C457    1.411   .     A
C445   C475    1.407   .     A
C445   H479    1.081   .     S
C446   C458    1.411   .     A
C446   C476    1.407   .     A
C446   H480    1.081   .     S
C447   C459    1.408   .     S
C448   C460    1.408   .     S
Cu449  Cu450   2.673   .     S
Cu449  N456    2.008   .     S
Cu450  N455    2.008   .     S
H451   C473    1.081   .     S
H452   C474    1.081   .     S
H453   C475    1.081   .     S
H454   C476    1.081   .     S
N455   C473    1.363   .     A
N455   C475    1.364   .     A
N456   C474    1.364   .     A
N456   C476    1.364   .     A
C458   C313    1.516   1_565 S
C460   C747    1.190   .     S
C461   C471    1.396   .     A
C461   H481    1.084   .     S
C461   C465    1.397   .     A
C462   H482    1.083   .     S
C462   C472    1.397   .     A
C462   C466    1.400   .     A
C463   H483    1.084   .     S
C463   C467    1.393   .     A
C463   C472    1.396   .     A
C464   C468    1.393   .     A
C464   C471    1.396   .     A
C464   H484    1.084   .     S
C465   C469    1.415   .     A
C465   O485    1.385   .     S
C466   O490    1.387   .     S
C466   C470    1.413   .     A
C467   C470    1.413   .     A
C467   O495    1.383   .     S
C468   C469    1.415   .     A
C468   O500    1.382   .     S
C471   C544    1.461   1_455 S
C472   C543    1.461   .     S
O485   C486    1.411   .     S
C486   H488    1.114   .     S
C486   H487    1.109   .     S
C486   H489    1.112   .     S
O490   C491    1.412   .     S
C491   H492    1.109   .     S
C491   H493    1.115   .     S
C491   H494    1.110   .     S
O495   C496    1.410   .     S
C496   H497    1.114   .     S
C496   H498    1.109   .     S
C496   H499    1.113   .     S
O500   C501    1.410   .     S
C501   H504    1.113   .     S
C501   H503    1.109   .     S
C501   H502    1.114   .     S
O505   Cu521   1.959   .     S
O505   C509    1.293   .     A
O506   Cu522   1.959   .     S
O506   C510    1.292   .     A
O507   Cu521   1.958   .     S
O507   C510    1.294   .     A
O508   Cu522   1.958   .     S
O508   C509    1.295   .     A
C509   C541    1.471   .     S
C510   C542    1.466   .     S
O511   C519    1.286   .     A
O511   Cu521   1.933   .     S
O512   C520    1.286   .     A
O512   Cu522   1.933   .     S
O513   C520    1.286   .     A
O513   Cu521   1.933   .     S
O514   Cu522   1.933   .     S
O514   C519    1.286   .     A
C515   C545    1.407   .     A
C515   H549    1.081   .     S
C515   C529    1.411   .     A
C516   H550    1.081   .     S
C516   C546    1.407   .     A
C516   C530    1.411   .     A
C517   C529    1.411   .     A
C517   C547    1.407   .     A
C517   H551    1.081   .     S
C518   C530    1.411   .     A
C518   C548    1.407   .     A
C518   H552    1.081   .     S
C519   C531    1.408   .     S
C520   C532    1.408   .     S
Cu521  Cu522   2.673   .     S
Cu521  N528    2.008   .     S
Cu522  N527    2.008   .     S
H523   C545    1.081   .     S
H524   C546    1.081   .     S
H525   C547    1.081   .     S
H526   C548    1.081   .     S
N527   C545    1.363   .     A
N527   C547    1.364   .     A
N528   C546    1.364   .     A
N528   C548    1.364   .     A
C530   C385    1.516   1_565 S
C532   C819    1.190   .     S
C533   C543    1.396   .     A
C533   H553    1.084   .     S
C533   C537    1.397   .     A
C534   H554    1.083   .     S
C534   C544    1.397   .     A
C534   C538    1.400   .     A
C535   H555    1.084   .     S
C535   C539    1.393   .     A
C535   C544    1.396   .     A
C536   C540    1.393   .     A
C536   C543    1.396   .     A
C536   H556    1.084   .     S
C537   C541    1.415   .     A
C537   O557    1.385   .     S
C538   O562    1.387   .     S
C538   C542    1.413   .     A
C539   C542    1.413   .     A
C539   O567    1.383   .     S
C540   C541    1.415   .     A
C540   O572    1.382   .     S
C544   C471    1.461   1_655 S
O557   C558    1.411   .     S
C558   H560    1.114   .     S
C558   H559    1.109   .     S
C558   H561    1.112   .     S
O562   C563    1.412   .     S
C563   H564    1.109   .     S
C563   H565    1.115   .     S
C563   H566    1.110   .     S
O567   C568    1.410   .     S
C568   H569    1.114   .     S
C568   H570    1.109   .     S
C568   H571    1.113   .     S
O572   C573    1.410   .     S
C573   H576    1.113   .     S
C573   H575    1.109   .     S
C573   H574    1.114   .     S
O577   Cu593   1.959   .     S
O577   C581    1.293   .     A
O578   Cu594   1.959   .     S
O578   C582    1.292   .     A
O579   Cu593   1.958   .     S
O579   C582    1.294   .     A
O580   Cu594   1.958   .     S
O580   C581    1.295   .     A
C581   C613    1.471   .     S
C582   C614    1.466   .     S
O583   C591    1.286   .     A
O583   Cu593   1.933   .     S
O584   C592    1.286   .     A
O584   Cu594   1.933   .     S
O585   C592    1.286   .     A
O585   Cu593   1.933   .     S
O586   Cu594   1.933   .     S
O586   C591    1.286   .     A
C587   C617    1.407   .     A
C587   H621    1.081   .     S
C587   C601    1.411   .     A
C588   H622    1.081   .     S
C588   C618    1.407   .     A
C588   C602    1.411   .     A
C589   C601    1.411   .     A
C589   C619    1.407   .     A
C589   H623    1.081   .     S
C590   C602    1.411   .     A
C590   C620    1.407   .     A
C590   H624    1.081   .     S
C591   C603    1.408   .     S
C592   C604    1.408   .     S
Cu593  Cu594   2.673   .     S
Cu593  N600    2.008   .     S
Cu594  N599    2.008   .     S
H595   C617    1.081   .     S
H596   C618    1.081   .     S
H597   C619    1.081   .     S
H598   C620    1.081   .     S
N599   C617    1.363   .     A
N599   C619    1.364   .     A
N600   C618    1.364   .     A
N600   C620    1.364   .     A
C601   C746    1.516   1_545 S
C602   C745    1.516   .     S
C604   C27     1.190   1_556 S
C605   C615    1.396   .     A
C605   H625    1.084   .     S
C605   C609    1.397   .     A
C606   H626    1.083   .     S
C606   C616    1.397   .     A
C606   C610    1.400   .     A
C607   H627    1.084   .     S
C607   C611    1.393   .     A
C607   C616    1.396   .     A
C608   C612    1.393   .     A
C608   C615    1.396   .     A
C608   H628    1.084   .     S
C609   C613    1.415   .     A
C609   O629    1.385   .     S
C610   O634    1.387   .     S
C610   C614    1.413   .     A
C611   C614    1.413   .     A
C611   O639    1.383   .     S
C612   C613    1.415   .     A
C612   O644    1.382   .     S
C615   C688    1.461   1_455 S
C616   C687    1.461   .     S
O629   C630    1.411   .     S
C630   H632    1.114   .     S
C630   H631    1.109   .     S
C630   H633    1.112   .     S
O634   C635    1.412   .     S
C635   H636    1.109   .     S
C635   H637    1.115   .     S
C635   H638    1.110   .     S
O639   C640    1.410   .     S
C640   H641    1.114   .     S
C640   H642    1.109   .     S
C640   H643    1.113   .     S
O644   C645    1.410   .     S
C645   H648    1.113   .     S
C645   H647    1.109   .     S
C645   H646    1.114   .     S
O649   Cu665   1.959   .     S
O649   C653    1.293   .     A
O650   Cu666   1.959   .     S
O650   C654    1.292   .     A
O651   Cu665   1.958   .     S
O651   C654    1.294   .     A
O652   Cu666   1.958   .     S
O652   C653    1.295   .     A
C653   C685    1.471   .     S
C654   C686    1.466   .     S
O655   C663    1.286   .     A
O655   Cu665   1.933   .     S
O656   C664    1.286   .     A
O656   Cu666   1.933   .     S
O657   C664    1.286   .     A
O657   Cu665   1.933   .     S
O658   Cu666   1.933   .     S
O658   C663    1.286   .     A
C659   C689    1.407   .     A
C659   H693    1.081   .     S
C659   C673    1.411   .     A
C660   H694    1.081   .     S
C660   C690    1.407   .     A
C660   C674    1.411   .     A
C661   C673    1.411   .     A
C661   C691    1.407   .     A
C661   H695    1.081   .     S
C662   C674    1.411   .     A
C662   C692    1.407   .     A
C662   H696    1.081   .     S
C663   C675    1.408   .     S
C664   C676    1.408   .     S
Cu665  Cu666   2.673   .     S
Cu665  N672    2.008   .     S
Cu666  N671    2.008   .     S
H667   C689    1.081   .     S
H668   C690    1.081   .     S
H669   C691    1.081   .     S
H670   C692    1.081   .     S
N671   C689    1.363   .     A
N671   C691    1.364   .     A
N672   C690    1.364   .     A
N672   C692    1.364   .     A
C673   C818    1.516   1_545 S
C674   C817    1.516   .     S
C676   C99     1.190   1_556 S
C677   C687    1.396   .     A
C677   H697    1.084   .     S
C677   C681    1.397   .     A
C678   H698    1.083   .     S
C678   C688    1.397   .     A
C678   C682    1.400   .     A
C679   H699    1.084   .     S
C679   C683    1.393   .     A
C679   C688    1.396   .     A
C680   C684    1.393   .     A
C680   C687    1.396   .     A
C680   H700    1.084   .     S
C681   C685    1.415   .     A
C681   O701    1.385   .     S
C682   O706    1.387   .     S
C682   C686    1.413   .     A
C683   C686    1.413   .     A
C683   O711    1.383   .     S
C684   C685    1.415   .     A
C684   O716    1.382   .     S
C688   C615    1.461   1_655 S
O701   C702    1.411   .     S
C702   H704    1.114   .     S
C702   H703    1.109   .     S
C702   H705    1.112   .     S
O706   C707    1.412   .     S
C707   H708    1.109   .     S
C707   H709    1.115   .     S
C707   H710    1.110   .     S
O711   C712    1.410   .     S
C712   H713    1.114   .     S
C712   H714    1.109   .     S
C712   H715    1.113   .     S
O716   C717    1.410   .     S
C717   H720    1.113   .     S
C717   H719    1.109   .     S
C717   H718    1.114   .     S
O721   Cu737   1.959   .     S
O721   C725    1.293   .     A
O722   Cu738   1.959   .     S
O722   C726    1.292   .     A
O723   Cu737   1.958   .     S
O723   C726    1.294   .     A
O724   Cu738   1.958   .     S
O724   C725    1.295   .     A
C725   C757    1.471   .     S
C726   C758    1.466   .     S
O727   C735    1.286   .     A
O727   Cu737   1.933   .     S
O728   C736    1.286   .     A
O728   Cu738   1.933   .     S
O729   C736    1.286   .     A
O729   Cu737   1.933   .     S
O730   Cu738   1.933   .     S
O730   C735    1.286   .     A
C731   C761    1.407   .     A
C731   H765    1.081   .     S
C731   C745    1.411   .     A
C732   H766    1.081   .     S
C732   C762    1.407   .     A
C732   C746    1.411   .     A
C733   C745    1.411   .     A
C733   C763    1.407   .     A
C733   H767    1.081   .     S
C734   C746    1.411   .     A
C734   C764    1.407   .     A
C734   H768    1.081   .     S
C735   C747    1.408   .     S
C736   C748    1.408   .     S
Cu737  Cu738   2.673   .     S
Cu737  N744    2.008   .     S
Cu738  N743    2.008   .     S
H739   C761    1.081   .     S
H740   C762    1.081   .     S
H741   C763    1.081   .     S
H742   C764    1.081   .     S
N743   C761    1.363   .     A
N743   C763    1.364   .     A
N744   C762    1.364   .     A
N744   C764    1.364   .     A
C746   C601    1.516   1_565 S
C748   C171    1.190   1_556 S
C749   C759    1.396   .     A
C749   H769    1.084   .     S
C749   C753    1.397   .     A
C750   H770    1.083   .     S
C750   C760    1.397   .     A
C750   C754    1.400   .     A
C751   H771    1.084   .     S
C751   C755    1.393   .     A
C751   C760    1.396   .     A
C752   C756    1.393   .     A
C752   C759    1.396   .     A
C752   H772    1.084   .     S
C753   C757    1.415   .     A
C753   O773    1.385   .     S
C754   O778    1.387   .     S
C754   C758    1.413   .     A
C755   C758    1.413   .     A
C755   O783    1.383   .     S
C756   C757    1.415   .     A
C756   O788    1.382   .     S
C759   C832    1.461   1_455 S
C760   C831    1.461   .     S
O773   C774    1.411   .     S
C774   H776    1.114   .     S
C774   H775    1.109   .     S
C774   H777    1.112   .     S
O778   C779    1.412   .     S
C779   H780    1.109   .     S
C779   H781    1.115   .     S
C779   H782    1.110   .     S
O783   C784    1.410   .     S
C784   H785    1.114   .     S
C784   H786    1.109   .     S
C784   H787    1.113   .     S
O788   C789    1.410   .     S
C789   H792    1.113   .     S
C789   H791    1.109   .     S
C789   H790    1.114   .     S
O793   Cu809   1.959   .     S
O793   C797    1.293   .     A
O794   Cu810   1.959   .     S
O794   C798    1.292   .     A
O795   Cu809   1.958   .     S
O795   C798    1.294   .     A
O796   Cu810   1.958   .     S
O796   C797    1.295   .     A
C797   C829    1.471   .     S
C798   C830    1.466   .     S
O799   C807    1.286   .     A
O799   Cu809   1.933   .     S
O800   C808    1.286   .     A
O800   Cu810   1.933   .     S
O801   C808    1.286   .     A
O801   Cu809   1.933   .     S
O802   Cu810   1.933   .     S
O802   C807    1.286   .     A
C803   C833    1.407   .     A
C803   H837    1.081   .     S
C803   C817    1.411   .     A
C804   H838    1.081   .     S
C804   C834    1.407   .     A
C804   C818    1.411   .     A
C805   C817    1.411   .     A
C805   C835    1.407   .     A
C805   H839    1.081   .     S
C806   C818    1.411   .     A
C806   C836    1.407   .     A
C806   H840    1.081   .     S
C807   C819    1.408   .     S
C808   C820    1.408   .     S
Cu809  Cu810   2.673   .     S
Cu809  N816    2.008   .     S
Cu810  N815    2.008   .     S
H811   C833    1.081   .     S
H812   C834    1.081   .     S
H813   C835    1.081   .     S
H814   C836    1.081   .     S
N815   C833    1.363   .     A
N815   C835    1.364   .     A
N816   C834    1.364   .     A
N816   C836    1.364   .     A
C818   C673    1.516   1_565 S
C820   C243    1.190   1_556 S
C821   C831    1.396   .     A
C821   H841    1.084   .     S
C821   C825    1.397   .     A
C822   H842    1.083   .     S
C822   C832    1.397   .     A
C822   C826    1.400   .     A
C823   H843    1.084   .     S
C823   C827    1.393   .     A
C823   C832    1.396   .     A
C824   C828    1.393   .     A
C824   C831    1.396   .     A
C824   H844    1.084   .     S
C825   C829    1.415   .     A
C825   O845    1.385   .     S
C826   O850    1.387   .     S
C826   C830    1.413   .     A
C827   C830    1.413   .     A
C827   O855    1.383   .     S
C828   C829    1.415   .     A
C828   O860    1.382   .     S
C832   C759    1.461   1_655 S
O845   C846    1.411   .     S
C846   H848    1.114   .     S
C846   H847    1.109   .     S
C846   H849    1.112   .     S
O850   C851    1.412   .     S
C851   H852    1.109   .     S
C851   H853    1.115   .     S
C851   H854    1.110   .     S
O855   C856    1.410   .     S
C856   H857    1.114   .     S
C856   H858    1.109   .     S
C856   H859    1.113   .     S
O860   C861    1.410   .     S
C861   H864    1.113   .     S
C861   H863    1.109   .     S
C861   H862    1.114   .     S
