data_str_m2_o1_o17_pcu_sym.195
_audit_creation_date              2020-01-03
_audit_creation_method            'Materials Studio'
_symmetry_space_group_name_H-M    'P1'
_symmetry_Int_Tables_number       1
_symmetry_cell_setting            triclinic
loop_
_symmetry_equiv_pos_as_xyz
  x,y,z
_cell_length_a                    32.3132
_cell_length_b                    28.5458
_cell_length_c                    30.2174
_cell_angle_alpha                 90.3844
_cell_angle_beta                  89.9374
_cell_angle_gamma                 90.0851
loop_
_atom_site_label
_atom_site_type_symbol
_atom_site_fract_x
_atom_site_fract_y
_atom_site_fract_z
_atom_site_U_iso_or_equiv
_atom_site_adp_type
_atom_site_occupancy
O1     O     0.10655   0.20625   0.24999   0.00000  Uiso   1.00
O2     O     0.22679   0.12709   0.25000   0.00000  Uiso   1.00
O3     O     0.22679   0.20625   0.25000   0.00000  Uiso   1.00
O4     O     0.10655   0.12709   0.24999   0.00000  Uiso   1.00
C5     C     0.08754   0.16663   0.25021   0.00000  Uiso   1.00
C6     C     0.24580   0.16670   0.24979   0.00000  Uiso   1.00
O7     O     0.16666   0.20627   0.18513   0.00000  Uiso   1.00
O8     O     0.16668   0.12707   0.31487   0.00000  Uiso   1.00
O9     O     0.16668   0.20627   0.31487   0.00000  Uiso   1.00
O10    O     0.16666   0.12707   0.18513   0.00000  Uiso   1.00
C11    C     0.16681   0.16647   0.16431   0.00000  Uiso   1.00
C12    C     0.16652   0.16686   0.33569   0.00000  Uiso   1.00
Cu13   Cu    0.16667   0.21355   0.25000   0.00000  Uiso   1.00
Cu14   Cu    0.16667   0.11978   0.25000   0.00000  Uiso   1.00
C15    C     0.17810   0.12699   0.40664   0.00000  Uiso   1.00
C16    C     0.15523   0.20634   0.09335   0.00000  Uiso   1.00
C17    C     0.16622   0.16728   0.38408   0.00000  Uiso   1.00
C18    C     0.16712   0.16605   0.11592   0.00000  Uiso   1.00
C19    C     0.15414   0.20747   0.40760   0.00000  Uiso   1.00
C20    C     0.17919   0.12586   0.09240   0.00000  Uiso   1.00
C21    C     0.15436   0.20763   0.45397   0.00000  Uiso   1.00
C22    C     0.17897   0.12570   0.04603   0.00000  Uiso   1.00
C23    C     0.16656   0.16671   0.47674   0.00000  Uiso   1.00
C24    C     0.16677   0.16663   0.02326   0.00000  Uiso   1.00
C25    C     0.17842   0.12587   0.45294   0.00000  Uiso   1.00
C26    C     0.15491   0.20747   0.04706   0.00000  Uiso   1.00
C27    C     0.14258   0.24797   0.47781   0.00000  Uiso   1.00
C28    C     0.19076   0.08536   0.02219   0.00000  Uiso   1.00
C29    C     0.14293   0.24840   0.02417   0.00000  Uiso   1.00
C30    C     0.19040   0.08493   0.47583   0.00000  Uiso   1.00
H31    H     0.18752   0.09666   0.38753   0.00000  Uiso   1.00
H32    H     0.14582   0.23667   0.11247   0.00000  Uiso   1.00
C33    C     0.02209   0.15771   0.21010   0.00000  Uiso   1.00
C34    C     0.31124   0.17562   0.28990   0.00000  Uiso   1.00
C35    C     0.31189   0.15785   0.20962   0.00000  Uiso   1.00
C36    C     0.02144   0.17549   0.29038   0.00000  Uiso   1.00
C37    C     0.29047   0.16677   0.24961   0.00000  Uiso   1.00
C38    C     0.04287   0.16656   0.25038   0.00000  Uiso   1.00
C39    C     0.14213   0.02457   0.22135   0.00000  Uiso   1.00
C40    C     0.19120   0.30876   0.27865   0.00000  Uiso   1.00
C41    C     0.19121   0.02505   0.27865   0.00000  Uiso   1.00
C42    C     0.14213   0.30829   0.22135   0.00000  Uiso   1.00
H43    H     0.12247   0.04309   0.19841   0.00000  Uiso   1.00
H44    H     0.21086   0.29024   0.30159   0.00000  Uiso   1.00
H45    H     0.21087   0.04395   0.30159   0.00000  Uiso   1.00
H46    H     0.12246   0.28939   0.19841   0.00000  Uiso   1.00
N47    N     0.16667   0.28402   0.25000   0.00000  Uiso   1.00
N48    N     0.16667   0.04931   0.25000   0.00000  Uiso   1.00
F49    F     0.14154   0.24606   0.38519   0.00000  Uiso   1.00
F50    F     0.19179   0.08728   0.11481   0.00000  Uiso   1.00
F51    F     0.13053   0.28714   0.45599   0.00000  Uiso   1.00
F52    F     0.20280   0.04619   0.04401   0.00000  Uiso   1.00
C53    C     0.13052   0.29269   0.04865   0.00000  Uiso   1.00
H54    H     0.12287   0.32199   0.02617   0.00000  Uiso   1.00
H55    H     0.10276   0.28578   0.06931   0.00000  Uiso   1.00
H56    H     0.15637   0.30469   0.07009   0.00000  Uiso   1.00
C57    C     0.20282   0.04065   0.45135   0.00000  Uiso   1.00
H58    H     0.21046   0.01134   0.47383   0.00000  Uiso   1.00
H59    H     0.17696   0.02865   0.42991   0.00000  Uiso   1.00
H60    H     0.23057   0.04755   0.43069   0.00000  Uiso   1.00
C61    C     0.04737   0.14886   0.16827   0.00000  Uiso   1.00
H62    H     0.06681   0.11718   0.17260   0.00000  Uiso   1.00
H63    H     0.02885   0.14312   0.13798   0.00000  Uiso   1.00
H64    H     0.06782   0.17939   0.16189   0.00000  Uiso   1.00
C65    C     0.28597   0.18448   0.33173   0.00000  Uiso   1.00
H66    H     0.26652   0.21615   0.32740   0.00000  Uiso   1.00
H67    H     0.26552   0.15394   0.33811   0.00000  Uiso   1.00
H68    H     0.30448   0.19023   0.36202   0.00000  Uiso   1.00
C69    C     0.28877   0.14906   0.16654   0.00000  Uiso   1.00
H70    H     0.25471   0.15039   0.16967   0.00000  Uiso   1.00
H71    H     0.29739   0.17616   0.14199   0.00000  Uiso   1.00
H72    H     0.29658   0.11373   0.15342   0.00000  Uiso   1.00
C73    C     0.04456   0.18427   0.33346   0.00000  Uiso   1.00
H74    H     0.07863   0.18293   0.33034   0.00000  Uiso   1.00
H75    H     0.03676   0.21960   0.34658   0.00000  Uiso   1.00
H76    H     0.03594   0.15717   0.35801   0.00000  Uiso   1.00
O77    O     0.43988   0.20625   0.24999   0.00000  Uiso   1.00
O78    O     0.56012   0.12709   0.25000   0.00000  Uiso   1.00
O79    O     0.56012   0.20625   0.25000   0.00000  Uiso   1.00
O80    O     0.43988   0.12709   0.24999   0.00000  Uiso   1.00
C81    C     0.42087   0.16663   0.25021   0.00000  Uiso   1.00
C82    C     0.57913   0.16670   0.24979   0.00000  Uiso   1.00
O83    O     0.49999   0.20627   0.18513   0.00000  Uiso   1.00
O84    O     0.50001   0.12707   0.31487   0.00000  Uiso   1.00
O85    O     0.50001   0.20627   0.31487   0.00000  Uiso   1.00
O86    O     0.49999   0.12707   0.18513   0.00000  Uiso   1.00
C87    C     0.50015   0.16647   0.16431   0.00000  Uiso   1.00
C88    C     0.49985   0.16686   0.33569   0.00000  Uiso   1.00
Cu89   Cu    0.50000   0.21355   0.25000   0.00000  Uiso   1.00
Cu90   Cu    0.50000   0.11978   0.25000   0.00000  Uiso   1.00
C91    C     0.51144   0.12699   0.40664   0.00000  Uiso   1.00
C92    C     0.48856   0.20634   0.09335   0.00000  Uiso   1.00
C93    C     0.49955   0.16728   0.38408   0.00000  Uiso   1.00
C94    C     0.50045   0.16605   0.11592   0.00000  Uiso   1.00
C95    C     0.48748   0.20747   0.40760   0.00000  Uiso   1.00
C96    C     0.51252   0.12586   0.09240   0.00000  Uiso   1.00
C97    C     0.48769   0.20763   0.45397   0.00000  Uiso   1.00
C98    C     0.51231   0.12570   0.04603   0.00000  Uiso   1.00
C99    C     0.49989   0.16671   0.47674   0.00000  Uiso   1.00
C100   C     0.50011   0.16663   0.02326   0.00000  Uiso   1.00
C101   C     0.51176   0.12587   0.45294   0.00000  Uiso   1.00
C102   C     0.48824   0.20747   0.04706   0.00000  Uiso   1.00
C103   C     0.47591   0.24797   0.47781   0.00000  Uiso   1.00
C104   C     0.52409   0.08536   0.02219   0.00000  Uiso   1.00
C105   C     0.47626   0.24840   0.02417   0.00000  Uiso   1.00
C106   C     0.52374   0.08493   0.47583   0.00000  Uiso   1.00
H107   H     0.52085   0.09666   0.38753   0.00000  Uiso   1.00
H108   H     0.47915   0.23667   0.11247   0.00000  Uiso   1.00
C109   C     0.35543   0.15771   0.21010   0.00000  Uiso   1.00
C110   C     0.64457   0.17562   0.28990   0.00000  Uiso   1.00
C111   C     0.64523   0.15785   0.20962   0.00000  Uiso   1.00
C112   C     0.35477   0.17549   0.29038   0.00000  Uiso   1.00
C113   C     0.62380   0.16677   0.24961   0.00000  Uiso   1.00
C114   C     0.37620   0.16656   0.25038   0.00000  Uiso   1.00
C115   C     0.47546   0.02457   0.22135   0.00000  Uiso   1.00
C116   C     0.52454   0.30876   0.27865   0.00000  Uiso   1.00
C117   C     0.52454   0.02505   0.27865   0.00000  Uiso   1.00
C118   C     0.47546   0.30829   0.22135   0.00000  Uiso   1.00
H119   H     0.45580   0.04309   0.19841   0.00000  Uiso   1.00
H120   H     0.54420   0.29024   0.30159   0.00000  Uiso   1.00
H121   H     0.54421   0.04395   0.30159   0.00000  Uiso   1.00
H122   H     0.45579   0.28939   0.19841   0.00000  Uiso   1.00
N123   N     0.50000   0.28402   0.25000   0.00000  Uiso   1.00
N124   N     0.50000   0.04931   0.25000   0.00000  Uiso   1.00
F125   F     0.47487   0.24606   0.38519   0.00000  Uiso   1.00
F126   F     0.52513   0.08728   0.11481   0.00000  Uiso   1.00
F127   F     0.46387   0.28714   0.45599   0.00000  Uiso   1.00
F128   F     0.53613   0.04619   0.04401   0.00000  Uiso   1.00
C129   C     0.46385   0.29269   0.04865   0.00000  Uiso   1.00
H130   H     0.45621   0.32199   0.02617   0.00000  Uiso   1.00
H131   H     0.43609   0.28578   0.06931   0.00000  Uiso   1.00
H132   H     0.48970   0.30469   0.07009   0.00000  Uiso   1.00
C133   C     0.53615   0.04065   0.45135   0.00000  Uiso   1.00
H134   H     0.54379   0.01134   0.47383   0.00000  Uiso   1.00
H135   H     0.51030   0.02865   0.42991   0.00000  Uiso   1.00
H136   H     0.56391   0.04755   0.43069   0.00000  Uiso   1.00
C137   C     0.38070   0.14886   0.16827   0.00000  Uiso   1.00
H138   H     0.40014   0.11718   0.17260   0.00000  Uiso   1.00
H139   H     0.36218   0.14312   0.13798   0.00000  Uiso   1.00
H140   H     0.40115   0.17939   0.16189   0.00000  Uiso   1.00
C141   C     0.61930   0.18448   0.33173   0.00000  Uiso   1.00
H142   H     0.59985   0.21615   0.32740   0.00000  Uiso   1.00
H143   H     0.59885   0.15394   0.33811   0.00000  Uiso   1.00
H144   H     0.63782   0.19023   0.36202   0.00000  Uiso   1.00
C145   C     0.62210   0.14906   0.16654   0.00000  Uiso   1.00
H146   H     0.58804   0.15039   0.16967   0.00000  Uiso   1.00
H147   H     0.63072   0.17616   0.14199   0.00000  Uiso   1.00
H148   H     0.62991   0.11373   0.15342   0.00000  Uiso   1.00
C149   C     0.37790   0.18427   0.33346   0.00000  Uiso   1.00
H150   H     0.41196   0.18293   0.33034   0.00000  Uiso   1.00
H151   H     0.37010   0.21960   0.34658   0.00000  Uiso   1.00
H152   H     0.36927   0.15717   0.35801   0.00000  Uiso   1.00
O153   O     0.77321   0.20625   0.24999   0.00000  Uiso   1.00
O154   O     0.89345   0.12709   0.25000   0.00000  Uiso   1.00
O155   O     0.89345   0.20625   0.25000   0.00000  Uiso   1.00
O156   O     0.77321   0.12709   0.24999   0.00000  Uiso   1.00
C157   C     0.75420   0.16663   0.25021   0.00000  Uiso   1.00
C158   C     0.91246   0.16670   0.24979   0.00000  Uiso   1.00
O159   O     0.83332   0.20627   0.18513   0.00000  Uiso   1.00
O160   O     0.83334   0.12707   0.31487   0.00000  Uiso   1.00
O161   O     0.83334   0.20627   0.31487   0.00000  Uiso   1.00
O162   O     0.83332   0.12707   0.18513   0.00000  Uiso   1.00
C163   C     0.83348   0.16647   0.16431   0.00000  Uiso   1.00
C164   C     0.83319   0.16686   0.33569   0.00000  Uiso   1.00
Cu165  Cu    0.83333   0.21355   0.25000   0.00000  Uiso   1.00
Cu166  Cu    0.83333   0.11978   0.25000   0.00000  Uiso   1.00
C167   C     0.84477   0.12699   0.40664   0.00000  Uiso   1.00
C168   C     0.82190   0.20634   0.09335   0.00000  Uiso   1.00
C169   C     0.83288   0.16728   0.38408   0.00000  Uiso   1.00
C170   C     0.83379   0.16605   0.11592   0.00000  Uiso   1.00
C171   C     0.82081   0.20747   0.40760   0.00000  Uiso   1.00
C172   C     0.84586   0.12586   0.09240   0.00000  Uiso   1.00
C173   C     0.82103   0.20763   0.45397   0.00000  Uiso   1.00
C174   C     0.84564   0.12570   0.04603   0.00000  Uiso   1.00
C175   C     0.83323   0.16671   0.47674   0.00000  Uiso   1.00
C176   C     0.83344   0.16663   0.02326   0.00000  Uiso   1.00
C177   C     0.84509   0.12587   0.45294   0.00000  Uiso   1.00
C178   C     0.82158   0.20747   0.04706   0.00000  Uiso   1.00
C179   C     0.80924   0.24797   0.47781   0.00000  Uiso   1.00
C180   C     0.85742   0.08536   0.02219   0.00000  Uiso   1.00
C181   C     0.80960   0.24840   0.02417   0.00000  Uiso   1.00
C182   C     0.85707   0.08493   0.47583   0.00000  Uiso   1.00
H183   H     0.85418   0.09666   0.38753   0.00000  Uiso   1.00
H184   H     0.81248   0.23667   0.11247   0.00000  Uiso   1.00
C185   C     0.68876   0.15771   0.21010   0.00000  Uiso   1.00
C186   C     0.97791   0.17562   0.28990   0.00000  Uiso   1.00
C187   C     0.97856   0.15785   0.20962   0.00000  Uiso   1.00
C188   C     0.68811   0.17549   0.29038   0.00000  Uiso   1.00
C189   C     0.95713   0.16677   0.24961   0.00000  Uiso   1.00
C190   C     0.70953   0.16656   0.25038   0.00000  Uiso   1.00
C191   C     0.80880   0.02457   0.22135   0.00000  Uiso   1.00
C192   C     0.85787   0.30876   0.27865   0.00000  Uiso   1.00
C193   C     0.85787   0.02505   0.27865   0.00000  Uiso   1.00
C194   C     0.80879   0.30829   0.22135   0.00000  Uiso   1.00
H195   H     0.78914   0.04309   0.19841   0.00000  Uiso   1.00
H196   H     0.87753   0.29024   0.30159   0.00000  Uiso   1.00
H197   H     0.87754   0.04395   0.30159   0.00000  Uiso   1.00
H198   H     0.78913   0.28939   0.19841   0.00000  Uiso   1.00
N199   N     0.83333   0.28402   0.25000   0.00000  Uiso   1.00
N200   N     0.83333   0.04931   0.25000   0.00000  Uiso   1.00
F201   F     0.80821   0.24606   0.38519   0.00000  Uiso   1.00
F202   F     0.85846   0.08728   0.11481   0.00000  Uiso   1.00
F203   F     0.79720   0.28714   0.45599   0.00000  Uiso   1.00
F204   F     0.86947   0.04619   0.04401   0.00000  Uiso   1.00
C205   C     0.79718   0.29269   0.04865   0.00000  Uiso   1.00
H206   H     0.78954   0.32199   0.02617   0.00000  Uiso   1.00
H207   H     0.76943   0.28578   0.06931   0.00000  Uiso   1.00
H208   H     0.82304   0.30469   0.07009   0.00000  Uiso   1.00
C209   C     0.86948   0.04065   0.45135   0.00000  Uiso   1.00
H210   H     0.87713   0.01134   0.47383   0.00000  Uiso   1.00
H211   H     0.84363   0.02865   0.42991   0.00000  Uiso   1.00
H212   H     0.89724   0.04755   0.43069   0.00000  Uiso   1.00
C213   C     0.71403   0.14886   0.16827   0.00000  Uiso   1.00
H214   H     0.73348   0.11718   0.17260   0.00000  Uiso   1.00
H215   H     0.69552   0.14312   0.13798   0.00000  Uiso   1.00
H216   H     0.73449   0.17939   0.16189   0.00000  Uiso   1.00
C217   C     0.95263   0.18448   0.33173   0.00000  Uiso   1.00
H218   H     0.93319   0.21615   0.32740   0.00000  Uiso   1.00
H219   H     0.93218   0.15394   0.33811   0.00000  Uiso   1.00
H220   H     0.97115   0.19023   0.36202   0.00000  Uiso   1.00
C221   C     0.95544   0.14906   0.16654   0.00000  Uiso   1.00
H222   H     0.92137   0.15039   0.16967   0.00000  Uiso   1.00
H223   H     0.96406   0.17616   0.14199   0.00000  Uiso   1.00
H224   H     0.96324   0.11373   0.15342   0.00000  Uiso   1.00
C225   C     0.71123   0.18427   0.33346   0.00000  Uiso   1.00
H226   H     0.74529   0.18293   0.33034   0.00000  Uiso   1.00
H227   H     0.70343   0.21960   0.34658   0.00000  Uiso   1.00
H228   H     0.70261   0.15717   0.35801   0.00000  Uiso   1.00
O229   O     0.10655   0.53958   0.24999   0.00000  Uiso   1.00
O230   O     0.22679   0.46042   0.25000   0.00000  Uiso   1.00
O231   O     0.22679   0.53958   0.25000   0.00000  Uiso   1.00
O232   O     0.10655   0.46042   0.24999   0.00000  Uiso   1.00
C233   C     0.08754   0.49997   0.25021   0.00000  Uiso   1.00
C234   C     0.24580   0.50003   0.24979   0.00000  Uiso   1.00
O235   O     0.16666   0.53960   0.18513   0.00000  Uiso   1.00
O236   O     0.16668   0.46040   0.31487   0.00000  Uiso   1.00
O237   O     0.16668   0.53960   0.31487   0.00000  Uiso   1.00
O238   O     0.16666   0.46040   0.18513   0.00000  Uiso   1.00
C239   C     0.16681   0.49980   0.16431   0.00000  Uiso   1.00
C240   C     0.16652   0.50020   0.33569   0.00000  Uiso   1.00
Cu241  Cu    0.16667   0.54689   0.25000   0.00000  Uiso   1.00
Cu242  Cu    0.16667   0.45311   0.25000   0.00000  Uiso   1.00
C243   C     0.17810   0.46033   0.40664   0.00000  Uiso   1.00
C244   C     0.15523   0.53967   0.09335   0.00000  Uiso   1.00
C245   C     0.16622   0.50061   0.38408   0.00000  Uiso   1.00
C246   C     0.16712   0.49939   0.11592   0.00000  Uiso   1.00
C247   C     0.15414   0.54080   0.40760   0.00000  Uiso   1.00
C248   C     0.17919   0.45920   0.09240   0.00000  Uiso   1.00
C249   C     0.15436   0.54096   0.45397   0.00000  Uiso   1.00
C250   C     0.17897   0.45904   0.04603   0.00000  Uiso   1.00
C251   C     0.16656   0.50004   0.47674   0.00000  Uiso   1.00
C252   C     0.16677   0.49996   0.02326   0.00000  Uiso   1.00
C253   C     0.17842   0.45920   0.45294   0.00000  Uiso   1.00
C254   C     0.15491   0.54080   0.04706   0.00000  Uiso   1.00
C255   C     0.14258   0.58130   0.47781   0.00000  Uiso   1.00
C256   C     0.19076   0.41870   0.02219   0.00000  Uiso   1.00
C257   C     0.14293   0.58174   0.02417   0.00000  Uiso   1.00
C258   C     0.19040   0.41826   0.47583   0.00000  Uiso   1.00
H259   H     0.18752   0.43000   0.38753   0.00000  Uiso   1.00
H260   H     0.14582   0.57000   0.11247   0.00000  Uiso   1.00
C261   C     0.02209   0.49105   0.21010   0.00000  Uiso   1.00
C262   C     0.31124   0.50896   0.28990   0.00000  Uiso   1.00
C263   C     0.31189   0.49118   0.20962   0.00000  Uiso   1.00
C264   C     0.02144   0.50882   0.29038   0.00000  Uiso   1.00
C265   C     0.29047   0.50011   0.24961   0.00000  Uiso   1.00
C266   C     0.04287   0.49989   0.25038   0.00000  Uiso   1.00
C267   C     0.14213   0.35791   0.22135   0.00000  Uiso   1.00
C268   C     0.19120   0.64209   0.27865   0.00000  Uiso   1.00
C269   C     0.19121   0.35838   0.27865   0.00000  Uiso   1.00
C270   C     0.14213   0.64162   0.22135   0.00000  Uiso   1.00
H271   H     0.12247   0.37643   0.19841   0.00000  Uiso   1.00
H272   H     0.21086   0.62357   0.30159   0.00000  Uiso   1.00
H273   H     0.21087   0.37728   0.30159   0.00000  Uiso   1.00
H274   H     0.12246   0.62272   0.19841   0.00000  Uiso   1.00
N275   N     0.16667   0.61736   0.25000   0.00000  Uiso   1.00
N276   N     0.16667   0.38264   0.25000   0.00000  Uiso   1.00
F277   F     0.14154   0.57939   0.38519   0.00000  Uiso   1.00
F278   F     0.19179   0.42061   0.11481   0.00000  Uiso   1.00
F279   F     0.13053   0.62048   0.45599   0.00000  Uiso   1.00
F280   F     0.20280   0.37952   0.04401   0.00000  Uiso   1.00
C281   C     0.13052   0.62602   0.04865   0.00000  Uiso   1.00
H282   H     0.12287   0.65532   0.02617   0.00000  Uiso   1.00
H283   H     0.10276   0.61912   0.06931   0.00000  Uiso   1.00
H284   H     0.15637   0.63802   0.07009   0.00000  Uiso   1.00
C285   C     0.20282   0.37398   0.45135   0.00000  Uiso   1.00
H286   H     0.21046   0.34468   0.47383   0.00000  Uiso   1.00
H287   H     0.17696   0.36198   0.42991   0.00000  Uiso   1.00
H288   H     0.23057   0.38088   0.43069   0.00000  Uiso   1.00
C289   C     0.04737   0.48219   0.16827   0.00000  Uiso   1.00
H290   H     0.06681   0.45052   0.17260   0.00000  Uiso   1.00
H291   H     0.02885   0.47645   0.13798   0.00000  Uiso   1.00
H292   H     0.06782   0.51273   0.16189   0.00000  Uiso   1.00
C293   C     0.28597   0.51782   0.33173   0.00000  Uiso   1.00
H294   H     0.26652   0.54949   0.32740   0.00000  Uiso   1.00
H295   H     0.26552   0.48728   0.33811   0.00000  Uiso   1.00
H296   H     0.30448   0.52356   0.36202   0.00000  Uiso   1.00
C297   C     0.28877   0.48240   0.16654   0.00000  Uiso   1.00
H298   H     0.25471   0.48373   0.16967   0.00000  Uiso   1.00
H299   H     0.29739   0.50950   0.14199   0.00000  Uiso   1.00
H300   H     0.29658   0.44707   0.15342   0.00000  Uiso   1.00
C301   C     0.04456   0.51760   0.33346   0.00000  Uiso   1.00
H302   H     0.07863   0.51626   0.33034   0.00000  Uiso   1.00
H303   H     0.03676   0.55293   0.34658   0.00000  Uiso   1.00
H304   H     0.03594   0.49050   0.35801   0.00000  Uiso   1.00
O305   O     0.43988   0.53958   0.24999   0.00000  Uiso   1.00
O306   O     0.56012   0.46042   0.25000   0.00000  Uiso   1.00
O307   O     0.56012   0.53958   0.25000   0.00000  Uiso   1.00
O308   O     0.43988   0.46042   0.24999   0.00000  Uiso   1.00
C309   C     0.42087   0.49997   0.25021   0.00000  Uiso   1.00
C310   C     0.57913   0.50003   0.24979   0.00000  Uiso   1.00
O311   O     0.49999   0.53960   0.18513   0.00000  Uiso   1.00
O312   O     0.50001   0.46040   0.31487   0.00000  Uiso   1.00
O313   O     0.50001   0.53960   0.31487   0.00000  Uiso   1.00
O314   O     0.49999   0.46040   0.18513   0.00000  Uiso   1.00
C315   C     0.50015   0.49980   0.16431   0.00000  Uiso   1.00
C316   C     0.49985   0.50020   0.33569   0.00000  Uiso   1.00
Cu317  Cu    0.50000   0.54689   0.25000   0.00000  Uiso   1.00
Cu318  Cu    0.50000   0.45311   0.25000   0.00000  Uiso   1.00
C319   C     0.51144   0.46033   0.40664   0.00000  Uiso   1.00
C320   C     0.48856   0.53967   0.09335   0.00000  Uiso   1.00
C321   C     0.49955   0.50061   0.38408   0.00000  Uiso   1.00
C322   C     0.50045   0.49939   0.11592   0.00000  Uiso   1.00
C323   C     0.48748   0.54080   0.40760   0.00000  Uiso   1.00
C324   C     0.51252   0.45920   0.09240   0.00000  Uiso   1.00
C325   C     0.48769   0.54096   0.45397   0.00000  Uiso   1.00
C326   C     0.51231   0.45904   0.04603   0.00000  Uiso   1.00
C327   C     0.49989   0.50004   0.47674   0.00000  Uiso   1.00
C328   C     0.50011   0.49996   0.02326   0.00000  Uiso   1.00
C329   C     0.51176   0.45920   0.45294   0.00000  Uiso   1.00
C330   C     0.48824   0.54080   0.04706   0.00000  Uiso   1.00
C331   C     0.47591   0.58130   0.47781   0.00000  Uiso   1.00
C332   C     0.52409   0.41870   0.02219   0.00000  Uiso   1.00
C333   C     0.47626   0.58174   0.02417   0.00000  Uiso   1.00
C334   C     0.52374   0.41826   0.47583   0.00000  Uiso   1.00
H335   H     0.52085   0.43000   0.38753   0.00000  Uiso   1.00
H336   H     0.47915   0.57000   0.11247   0.00000  Uiso   1.00
C337   C     0.35543   0.49105   0.21010   0.00000  Uiso   1.00
C338   C     0.64457   0.50896   0.28990   0.00000  Uiso   1.00
C339   C     0.64523   0.49118   0.20962   0.00000  Uiso   1.00
C340   C     0.35477   0.50882   0.29038   0.00000  Uiso   1.00
C341   C     0.62380   0.50011   0.24961   0.00000  Uiso   1.00
C342   C     0.37620   0.49989   0.25038   0.00000  Uiso   1.00
C343   C     0.47546   0.35791   0.22135   0.00000  Uiso   1.00
C344   C     0.52454   0.64209   0.27865   0.00000  Uiso   1.00
C345   C     0.52454   0.35838   0.27865   0.00000  Uiso   1.00
C346   C     0.47546   0.64162   0.22135   0.00000  Uiso   1.00
H347   H     0.45580   0.37643   0.19841   0.00000  Uiso   1.00
H348   H     0.54420   0.62357   0.30159   0.00000  Uiso   1.00
H349   H     0.54421   0.37728   0.30159   0.00000  Uiso   1.00
H350   H     0.45579   0.62272   0.19841   0.00000  Uiso   1.00
N351   N     0.50000   0.61736   0.25000   0.00000  Uiso   1.00
N352   N     0.50000   0.38264   0.25000   0.00000  Uiso   1.00
F353   F     0.47487   0.57939   0.38519   0.00000  Uiso   1.00
F354   F     0.52513   0.42061   0.11481   0.00000  Uiso   1.00
F355   F     0.46387   0.62048   0.45599   0.00000  Uiso   1.00
F356   F     0.53613   0.37952   0.04401   0.00000  Uiso   1.00
C357   C     0.46385   0.62602   0.04865   0.00000  Uiso   1.00
H358   H     0.45621   0.65532   0.02617   0.00000  Uiso   1.00
H359   H     0.43609   0.61912   0.06931   0.00000  Uiso   1.00
H360   H     0.48970   0.63802   0.07009   0.00000  Uiso   1.00
C361   C     0.53615   0.37398   0.45135   0.00000  Uiso   1.00
H362   H     0.54379   0.34468   0.47383   0.00000  Uiso   1.00
H363   H     0.51030   0.36198   0.42991   0.00000  Uiso   1.00
H364   H     0.56391   0.38088   0.43069   0.00000  Uiso   1.00
C365   C     0.38070   0.48219   0.16827   0.00000  Uiso   1.00
H366   H     0.40014   0.45052   0.17260   0.00000  Uiso   1.00
H367   H     0.36218   0.47645   0.13798   0.00000  Uiso   1.00
H368   H     0.40115   0.51273   0.16189   0.00000  Uiso   1.00
C369   C     0.61930   0.51782   0.33173   0.00000  Uiso   1.00
H370   H     0.59985   0.54949   0.32740   0.00000  Uiso   1.00
H371   H     0.59885   0.48728   0.33811   0.00000  Uiso   1.00
H372   H     0.63782   0.52356   0.36202   0.00000  Uiso   1.00
C373   C     0.62210   0.48240   0.16654   0.00000  Uiso   1.00
H374   H     0.58804   0.48373   0.16967   0.00000  Uiso   1.00
H375   H     0.63072   0.50950   0.14199   0.00000  Uiso   1.00
H376   H     0.62991   0.44707   0.15342   0.00000  Uiso   1.00
C377   C     0.37790   0.51760   0.33346   0.00000  Uiso   1.00
H378   H     0.41196   0.51626   0.33034   0.00000  Uiso   1.00
H379   H     0.37010   0.55293   0.34658   0.00000  Uiso   1.00
H380   H     0.36927   0.49050   0.35801   0.00000  Uiso   1.00
O381   O     0.77321   0.53958   0.24999   0.00000  Uiso   1.00
O382   O     0.89345   0.46042   0.25000   0.00000  Uiso   1.00
O383   O     0.89345   0.53958   0.25000   0.00000  Uiso   1.00
O384   O     0.77321   0.46042   0.24999   0.00000  Uiso   1.00
C385   C     0.75420   0.49997   0.25021   0.00000  Uiso   1.00
C386   C     0.91246   0.50003   0.24979   0.00000  Uiso   1.00
O387   O     0.83332   0.53960   0.18513   0.00000  Uiso   1.00
O388   O     0.83334   0.46040   0.31487   0.00000  Uiso   1.00
O389   O     0.83334   0.53960   0.31487   0.00000  Uiso   1.00
O390   O     0.83332   0.46040   0.18513   0.00000  Uiso   1.00
C391   C     0.83348   0.49980   0.16431   0.00000  Uiso   1.00
C392   C     0.83319   0.50020   0.33569   0.00000  Uiso   1.00
Cu393  Cu    0.83333   0.54689   0.25000   0.00000  Uiso   1.00
Cu394  Cu    0.83333   0.45311   0.25000   0.00000  Uiso   1.00
C395   C     0.84477   0.46033   0.40664   0.00000  Uiso   1.00
C396   C     0.82190   0.53967   0.09335   0.00000  Uiso   1.00
C397   C     0.83288   0.50061   0.38408   0.00000  Uiso   1.00
C398   C     0.83379   0.49939   0.11592   0.00000  Uiso   1.00
C399   C     0.82081   0.54080   0.40760   0.00000  Uiso   1.00
C400   C     0.84586   0.45920   0.09240   0.00000  Uiso   1.00
C401   C     0.82103   0.54096   0.45397   0.00000  Uiso   1.00
C402   C     0.84564   0.45904   0.04603   0.00000  Uiso   1.00
C403   C     0.83323   0.50004   0.47674   0.00000  Uiso   1.00
C404   C     0.83344   0.49996   0.02326   0.00000  Uiso   1.00
C405   C     0.84509   0.45920   0.45294   0.00000  Uiso   1.00
C406   C     0.82158   0.54080   0.04706   0.00000  Uiso   1.00
C407   C     0.80924   0.58130   0.47781   0.00000  Uiso   1.00
C408   C     0.85742   0.41870   0.02219   0.00000  Uiso   1.00
C409   C     0.80960   0.58174   0.02417   0.00000  Uiso   1.00
C410   C     0.85707   0.41826   0.47583   0.00000  Uiso   1.00
H411   H     0.85418   0.43000   0.38753   0.00000  Uiso   1.00
H412   H     0.81248   0.57000   0.11247   0.00000  Uiso   1.00
C413   C     0.68876   0.49105   0.21010   0.00000  Uiso   1.00
C414   C     0.97791   0.50896   0.28990   0.00000  Uiso   1.00
C415   C     0.97856   0.49118   0.20962   0.00000  Uiso   1.00
C416   C     0.68811   0.50882   0.29038   0.00000  Uiso   1.00
C417   C     0.95713   0.50011   0.24961   0.00000  Uiso   1.00
C418   C     0.70953   0.49989   0.25038   0.00000  Uiso   1.00
C419   C     0.80880   0.35791   0.22135   0.00000  Uiso   1.00
C420   C     0.85787   0.64209   0.27865   0.00000  Uiso   1.00
C421   C     0.85787   0.35838   0.27865   0.00000  Uiso   1.00
C422   C     0.80879   0.64162   0.22135   0.00000  Uiso   1.00
H423   H     0.78914   0.37643   0.19841   0.00000  Uiso   1.00
H424   H     0.87753   0.62357   0.30159   0.00000  Uiso   1.00
H425   H     0.87754   0.37728   0.30159   0.00000  Uiso   1.00
H426   H     0.78913   0.62272   0.19841   0.00000  Uiso   1.00
N427   N     0.83333   0.61736   0.25000   0.00000  Uiso   1.00
N428   N     0.83333   0.38264   0.25000   0.00000  Uiso   1.00
F429   F     0.80821   0.57939   0.38519   0.00000  Uiso   1.00
F430   F     0.85846   0.42061   0.11481   0.00000  Uiso   1.00
F431   F     0.79720   0.62048   0.45599   0.00000  Uiso   1.00
F432   F     0.86947   0.37952   0.04401   0.00000  Uiso   1.00
C433   C     0.79718   0.62602   0.04865   0.00000  Uiso   1.00
H434   H     0.78954   0.65532   0.02617   0.00000  Uiso   1.00
H435   H     0.76943   0.61912   0.06931   0.00000  Uiso   1.00
H436   H     0.82304   0.63802   0.07009   0.00000  Uiso   1.00
C437   C     0.86948   0.37398   0.45135   0.00000  Uiso   1.00
H438   H     0.87713   0.34468   0.47383   0.00000  Uiso   1.00
H439   H     0.84363   0.36198   0.42991   0.00000  Uiso   1.00
H440   H     0.89724   0.38088   0.43069   0.00000  Uiso   1.00
C441   C     0.71403   0.48219   0.16827   0.00000  Uiso   1.00
H442   H     0.73348   0.45052   0.17260   0.00000  Uiso   1.00
H443   H     0.69552   0.47645   0.13798   0.00000  Uiso   1.00
H444   H     0.73449   0.51273   0.16189   0.00000  Uiso   1.00
C445   C     0.95263   0.51782   0.33173   0.00000  Uiso   1.00
H446   H     0.93319   0.54949   0.32740   0.00000  Uiso   1.00
H447   H     0.93218   0.48728   0.33811   0.00000  Uiso   1.00
H448   H     0.97115   0.52356   0.36202   0.00000  Uiso   1.00
C449   C     0.95544   0.48240   0.16654   0.00000  Uiso   1.00
H450   H     0.92137   0.48373   0.16967   0.00000  Uiso   1.00
H451   H     0.96406   0.50950   0.14199   0.00000  Uiso   1.00
H452   H     0.96324   0.44707   0.15342   0.00000  Uiso   1.00
C453   C     0.71123   0.51760   0.33346   0.00000  Uiso   1.00
H454   H     0.74529   0.51626   0.33034   0.00000  Uiso   1.00
H455   H     0.70343   0.55293   0.34658   0.00000  Uiso   1.00
H456   H     0.70261   0.49050   0.35801   0.00000  Uiso   1.00
O457   O     0.10655   0.87291   0.24999   0.00000  Uiso   1.00
O458   O     0.22679   0.79375   0.25000   0.00000  Uiso   1.00
O459   O     0.22679   0.87291   0.25000   0.00000  Uiso   1.00
O460   O     0.10655   0.79375   0.24999   0.00000  Uiso   1.00
C461   C     0.08754   0.83330   0.25021   0.00000  Uiso   1.00
C462   C     0.24580   0.83337   0.24979   0.00000  Uiso   1.00
O463   O     0.16666   0.87293   0.18513   0.00000  Uiso   1.00
O464   O     0.16668   0.79373   0.31487   0.00000  Uiso   1.00
O465   O     0.16668   0.87293   0.31487   0.00000  Uiso   1.00
O466   O     0.16666   0.79373   0.18513   0.00000  Uiso   1.00
C467   C     0.16681   0.83314   0.16431   0.00000  Uiso   1.00
C468   C     0.16652   0.83353   0.33569   0.00000  Uiso   1.00
Cu469  Cu    0.16667   0.88022   0.25000   0.00000  Uiso   1.00
Cu470  Cu    0.16667   0.78645   0.25000   0.00000  Uiso   1.00
C471   C     0.17810   0.79366   0.40664   0.00000  Uiso   1.00
C472   C     0.15523   0.87301   0.09335   0.00000  Uiso   1.00
C473   C     0.16622   0.83395   0.38408   0.00000  Uiso   1.00
C474   C     0.16712   0.83272   0.11592   0.00000  Uiso   1.00
C475   C     0.15414   0.87414   0.40760   0.00000  Uiso   1.00
C476   C     0.17919   0.79253   0.09240   0.00000  Uiso   1.00
C477   C     0.15436   0.87430   0.45397   0.00000  Uiso   1.00
C478   C     0.17897   0.79237   0.04603   0.00000  Uiso   1.00
C479   C     0.16656   0.83337   0.47674   0.00000  Uiso   1.00
C480   C     0.16677   0.83329   0.02326   0.00000  Uiso   1.00
C481   C     0.17842   0.79253   0.45294   0.00000  Uiso   1.00
C482   C     0.15491   0.87413   0.04706   0.00000  Uiso   1.00
C483   C     0.14258   0.91464   0.47781   0.00000  Uiso   1.00
C484   C     0.19076   0.75203   0.02219   0.00000  Uiso   1.00
C485   C     0.14293   0.91507   0.02417   0.00000  Uiso   1.00
C486   C     0.19040   0.75160   0.47583   0.00000  Uiso   1.00
H487   H     0.18752   0.76333   0.38753   0.00000  Uiso   1.00
H488   H     0.14582   0.90334   0.11247   0.00000  Uiso   1.00
C489   C     0.02209   0.82438   0.21010   0.00000  Uiso   1.00
C490   C     0.31124   0.84229   0.28990   0.00000  Uiso   1.00
C491   C     0.31189   0.82451   0.20962   0.00000  Uiso   1.00
C492   C     0.02144   0.84215   0.29038   0.00000  Uiso   1.00
C493   C     0.29047   0.83344   0.24961   0.00000  Uiso   1.00
C494   C     0.04287   0.83323   0.25038   0.00000  Uiso   1.00
C495   C     0.14213   0.69124   0.22135   0.00000  Uiso   1.00
C496   C     0.19120   0.97543   0.27865   0.00000  Uiso   1.00
C497   C     0.19121   0.69172   0.27865   0.00000  Uiso   1.00
C498   C     0.14213   0.97495   0.22135   0.00000  Uiso   1.00
H499   H     0.12247   0.70976   0.19841   0.00000  Uiso   1.00
H500   H     0.21086   0.95691   0.30159   0.00000  Uiso   1.00
H501   H     0.21087   0.71061   0.30159   0.00000  Uiso   1.00
H502   H     0.12246   0.95605   0.19841   0.00000  Uiso   1.00
N503   N     0.16667   0.95069   0.25000   0.00000  Uiso   1.00
N504   N     0.16667   0.71598   0.25000   0.00000  Uiso   1.00
F505   F     0.14154   0.91272   0.38519   0.00000  Uiso   1.00
F506   F     0.19179   0.75394   0.11481   0.00000  Uiso   1.00
F507   F     0.13053   0.95381   0.45599   0.00000  Uiso   1.00
F508   F     0.20280   0.71286   0.04401   0.00000  Uiso   1.00
C509   C     0.13052   0.95935   0.04865   0.00000  Uiso   1.00
H510   H     0.12287   0.98866   0.02617   0.00000  Uiso   1.00
H511   H     0.10276   0.95245   0.06931   0.00000  Uiso   1.00
H512   H     0.15637   0.97135   0.07009   0.00000  Uiso   1.00
C513   C     0.20282   0.70731   0.45135   0.00000  Uiso   1.00
H514   H     0.21046   0.67801   0.47383   0.00000  Uiso   1.00
H515   H     0.17696   0.69532   0.42991   0.00000  Uiso   1.00
H516   H     0.23057   0.71422   0.43069   0.00000  Uiso   1.00
C517   C     0.04737   0.81552   0.16827   0.00000  Uiso   1.00
H518   H     0.06681   0.78385   0.17260   0.00000  Uiso   1.00
H519   H     0.02885   0.80978   0.13798   0.00000  Uiso   1.00
H520   H     0.06782   0.84606   0.16189   0.00000  Uiso   1.00
C521   C     0.28597   0.85115   0.33173   0.00000  Uiso   1.00
H522   H     0.26652   0.88282   0.32740   0.00000  Uiso   1.00
H523   H     0.26552   0.82061   0.33811   0.00000  Uiso   1.00
H524   H     0.30448   0.85689   0.36202   0.00000  Uiso   1.00
C525   C     0.28877   0.81573   0.16654   0.00000  Uiso   1.00
H526   H     0.25471   0.81706   0.16967   0.00000  Uiso   1.00
H527   H     0.29739   0.84283   0.14199   0.00000  Uiso   1.00
H528   H     0.29658   0.78040   0.15342   0.00000  Uiso   1.00
C529   C     0.04456   0.85093   0.33346   0.00000  Uiso   1.00
H530   H     0.07863   0.84960   0.33034   0.00000  Uiso   1.00
H531   H     0.03676   0.88626   0.34658   0.00000  Uiso   1.00
H532   H     0.03594   0.82383   0.35801   0.00000  Uiso   1.00
O533   O     0.43988   0.87291   0.24999   0.00000  Uiso   1.00
O534   O     0.56012   0.79375   0.25000   0.00000  Uiso   1.00
O535   O     0.56012   0.87291   0.25000   0.00000  Uiso   1.00
O536   O     0.43988   0.79375   0.24999   0.00000  Uiso   1.00
C537   C     0.42087   0.83330   0.25021   0.00000  Uiso   1.00
C538   C     0.57913   0.83337   0.24979   0.00000  Uiso   1.00
O539   O     0.49999   0.87293   0.18513   0.00000  Uiso   1.00
O540   O     0.50001   0.79373   0.31487   0.00000  Uiso   1.00
O541   O     0.50001   0.87293   0.31487   0.00000  Uiso   1.00
O542   O     0.49999   0.79373   0.18513   0.00000  Uiso   1.00
C543   C     0.50015   0.83314   0.16431   0.00000  Uiso   1.00
C544   C     0.49985   0.83353   0.33569   0.00000  Uiso   1.00
Cu545  Cu    0.50000   0.88022   0.25000   0.00000  Uiso   1.00
Cu546  Cu    0.50000   0.78645   0.25000   0.00000  Uiso   1.00
C547   C     0.51144   0.79366   0.40664   0.00000  Uiso   1.00
C548   C     0.48856   0.87301   0.09335   0.00000  Uiso   1.00
C549   C     0.49955   0.83395   0.38408   0.00000  Uiso   1.00
C550   C     0.50045   0.83272   0.11592   0.00000  Uiso   1.00
C551   C     0.48748   0.87414   0.40760   0.00000  Uiso   1.00
C552   C     0.51252   0.79253   0.09240   0.00000  Uiso   1.00
C553   C     0.48769   0.87430   0.45397   0.00000  Uiso   1.00
C554   C     0.51231   0.79237   0.04603   0.00000  Uiso   1.00
C555   C     0.49989   0.83337   0.47674   0.00000  Uiso   1.00
C556   C     0.50011   0.83329   0.02326   0.00000  Uiso   1.00
C557   C     0.51176   0.79253   0.45294   0.00000  Uiso   1.00
C558   C     0.48824   0.87413   0.04706   0.00000  Uiso   1.00
C559   C     0.47591   0.91464   0.47781   0.00000  Uiso   1.00
C560   C     0.52409   0.75203   0.02219   0.00000  Uiso   1.00
C561   C     0.47626   0.91507   0.02417   0.00000  Uiso   1.00
C562   C     0.52374   0.75160   0.47583   0.00000  Uiso   1.00
H563   H     0.52085   0.76333   0.38753   0.00000  Uiso   1.00
H564   H     0.47915   0.90334   0.11247   0.00000  Uiso   1.00
C565   C     0.35543   0.82438   0.21010   0.00000  Uiso   1.00
C566   C     0.64457   0.84229   0.28990   0.00000  Uiso   1.00
C567   C     0.64523   0.82451   0.20962   0.00000  Uiso   1.00
C568   C     0.35477   0.84215   0.29038   0.00000  Uiso   1.00
C569   C     0.62380   0.83344   0.24961   0.00000  Uiso   1.00
C570   C     0.37620   0.83323   0.25038   0.00000  Uiso   1.00
C571   C     0.47546   0.69124   0.22135   0.00000  Uiso   1.00
C572   C     0.52454   0.97543   0.27865   0.00000  Uiso   1.00
C573   C     0.52454   0.69172   0.27865   0.00000  Uiso   1.00
C574   C     0.47546   0.97495   0.22135   0.00000  Uiso   1.00
H575   H     0.45580   0.70976   0.19841   0.00000  Uiso   1.00
H576   H     0.54420   0.95691   0.30159   0.00000  Uiso   1.00
H577   H     0.54421   0.71061   0.30159   0.00000  Uiso   1.00
H578   H     0.45579   0.95605   0.19841   0.00000  Uiso   1.00
N579   N     0.50000   0.95069   0.25000   0.00000  Uiso   1.00
N580   N     0.50000   0.71598   0.25000   0.00000  Uiso   1.00
F581   F     0.47487   0.91272   0.38519   0.00000  Uiso   1.00
F582   F     0.52513   0.75394   0.11481   0.00000  Uiso   1.00
F583   F     0.46387   0.95381   0.45599   0.00000  Uiso   1.00
F584   F     0.53613   0.71286   0.04401   0.00000  Uiso   1.00
C585   C     0.46385   0.95935   0.04865   0.00000  Uiso   1.00
H586   H     0.45621   0.98866   0.02617   0.00000  Uiso   1.00
H587   H     0.43609   0.95245   0.06931   0.00000  Uiso   1.00
H588   H     0.48970   0.97135   0.07009   0.00000  Uiso   1.00
C589   C     0.53615   0.70731   0.45135   0.00000  Uiso   1.00
H590   H     0.54379   0.67801   0.47383   0.00000  Uiso   1.00
H591   H     0.51030   0.69532   0.42991   0.00000  Uiso   1.00
H592   H     0.56391   0.71422   0.43069   0.00000  Uiso   1.00
C593   C     0.38070   0.81552   0.16827   0.00000  Uiso   1.00
H594   H     0.40014   0.78385   0.17260   0.00000  Uiso   1.00
H595   H     0.36218   0.80978   0.13798   0.00000  Uiso   1.00
H596   H     0.40115   0.84606   0.16189   0.00000  Uiso   1.00
C597   C     0.61930   0.85115   0.33173   0.00000  Uiso   1.00
H598   H     0.59985   0.88282   0.32740   0.00000  Uiso   1.00
H599   H     0.59885   0.82061   0.33811   0.00000  Uiso   1.00
H600   H     0.63782   0.85689   0.36202   0.00000  Uiso   1.00
C601   C     0.62210   0.81573   0.16654   0.00000  Uiso   1.00
H602   H     0.58804   0.81706   0.16967   0.00000  Uiso   1.00
H603   H     0.63072   0.84283   0.14199   0.00000  Uiso   1.00
H604   H     0.62991   0.78040   0.15342   0.00000  Uiso   1.00
C605   C     0.37790   0.85093   0.33346   0.00000  Uiso   1.00
H606   H     0.41196   0.84960   0.33034   0.00000  Uiso   1.00
H607   H     0.37010   0.88626   0.34658   0.00000  Uiso   1.00
H608   H     0.36927   0.82383   0.35801   0.00000  Uiso   1.00
O609   O     0.77321   0.87291   0.24999   0.00000  Uiso   1.00
O610   O     0.89345   0.79375   0.25000   0.00000  Uiso   1.00
O611   O     0.89345   0.87291   0.25000   0.00000  Uiso   1.00
O612   O     0.77321   0.79375   0.24999   0.00000  Uiso   1.00
C613   C     0.75420   0.83330   0.25021   0.00000  Uiso   1.00
C614   C     0.91246   0.83337   0.24979   0.00000  Uiso   1.00
O615   O     0.83332   0.87293   0.18513   0.00000  Uiso   1.00
O616   O     0.83334   0.79373   0.31487   0.00000  Uiso   1.00
O617   O     0.83334   0.87293   0.31487   0.00000  Uiso   1.00
O618   O     0.83332   0.79373   0.18513   0.00000  Uiso   1.00
C619   C     0.83348   0.83314   0.16431   0.00000  Uiso   1.00
C620   C     0.83319   0.83353   0.33569   0.00000  Uiso   1.00
Cu621  Cu    0.83333   0.88022   0.25000   0.00000  Uiso   1.00
Cu622  Cu    0.83333   0.78645   0.25000   0.00000  Uiso   1.00
C623   C     0.84477   0.79366   0.40664   0.00000  Uiso   1.00
C624   C     0.82190   0.87301   0.09335   0.00000  Uiso   1.00
C625   C     0.83288   0.83395   0.38408   0.00000  Uiso   1.00
C626   C     0.83379   0.83272   0.11592   0.00000  Uiso   1.00
C627   C     0.82081   0.87414   0.40760   0.00000  Uiso   1.00
C628   C     0.84586   0.79253   0.09240   0.00000  Uiso   1.00
C629   C     0.82103   0.87430   0.45397   0.00000  Uiso   1.00
C630   C     0.84564   0.79237   0.04603   0.00000  Uiso   1.00
C631   C     0.83323   0.83337   0.47674   0.00000  Uiso   1.00
C632   C     0.83344   0.83329   0.02326   0.00000  Uiso   1.00
C633   C     0.84509   0.79253   0.45294   0.00000  Uiso   1.00
C634   C     0.82158   0.87413   0.04706   0.00000  Uiso   1.00
C635   C     0.80924   0.91464   0.47781   0.00000  Uiso   1.00
C636   C     0.85742   0.75203   0.02219   0.00000  Uiso   1.00
C637   C     0.80960   0.91507   0.02417   0.00000  Uiso   1.00
C638   C     0.85707   0.75160   0.47583   0.00000  Uiso   1.00
H639   H     0.85418   0.76333   0.38753   0.00000  Uiso   1.00
H640   H     0.81248   0.90334   0.11247   0.00000  Uiso   1.00
C641   C     0.68876   0.82438   0.21010   0.00000  Uiso   1.00
C642   C     0.97791   0.84229   0.28990   0.00000  Uiso   1.00
C643   C     0.97856   0.82451   0.20962   0.00000  Uiso   1.00
C644   C     0.68811   0.84215   0.29038   0.00000  Uiso   1.00
C645   C     0.95713   0.83344   0.24961   0.00000  Uiso   1.00
C646   C     0.70953   0.83323   0.25038   0.00000  Uiso   1.00
C647   C     0.80880   0.69124   0.22135   0.00000  Uiso   1.00
C648   C     0.85787   0.97543   0.27865   0.00000  Uiso   1.00
C649   C     0.85787   0.69172   0.27865   0.00000  Uiso   1.00
C650   C     0.80879   0.97495   0.22135   0.00000  Uiso   1.00
H651   H     0.78914   0.70976   0.19841   0.00000  Uiso   1.00
H652   H     0.87753   0.95691   0.30159   0.00000  Uiso   1.00
H653   H     0.87754   0.71061   0.30159   0.00000  Uiso   1.00
H654   H     0.78913   0.95605   0.19841   0.00000  Uiso   1.00
N655   N     0.83333   0.95069   0.25000   0.00000  Uiso   1.00
N656   N     0.83333   0.71598   0.25000   0.00000  Uiso   1.00
F657   F     0.80821   0.91272   0.38519   0.00000  Uiso   1.00
F658   F     0.85846   0.75394   0.11481   0.00000  Uiso   1.00
F659   F     0.79720   0.95381   0.45599   0.00000  Uiso   1.00
F660   F     0.86947   0.71286   0.04401   0.00000  Uiso   1.00
C661   C     0.79718   0.95935   0.04865   0.00000  Uiso   1.00
H662   H     0.78954   0.98866   0.02617   0.00000  Uiso   1.00
H663   H     0.76943   0.95245   0.06931   0.00000  Uiso   1.00
H664   H     0.82304   0.97135   0.07009   0.00000  Uiso   1.00
C665   C     0.86948   0.70731   0.45135   0.00000  Uiso   1.00
H666   H     0.87713   0.67801   0.47383   0.00000  Uiso   1.00
H667   H     0.84363   0.69532   0.42991   0.00000  Uiso   1.00
H668   H     0.89724   0.71422   0.43069   0.00000  Uiso   1.00
C669   C     0.71403   0.81552   0.16827   0.00000  Uiso   1.00
H670   H     0.73348   0.78385   0.17260   0.00000  Uiso   1.00
H671   H     0.69552   0.80978   0.13798   0.00000  Uiso   1.00
H672   H     0.73449   0.84606   0.16189   0.00000  Uiso   1.00
C673   C     0.95263   0.85115   0.33173   0.00000  Uiso   1.00
H674   H     0.93319   0.88282   0.32740   0.00000  Uiso   1.00
H675   H     0.93218   0.82061   0.33811   0.00000  Uiso   1.00
H676   H     0.97115   0.85689   0.36202   0.00000  Uiso   1.00
C677   C     0.95544   0.81573   0.16654   0.00000  Uiso   1.00
H678   H     0.92137   0.81706   0.16967   0.00000  Uiso   1.00
H679   H     0.96406   0.84283   0.14199   0.00000  Uiso   1.00
H680   H     0.96324   0.78040   0.15342   0.00000  Uiso   1.00
C681   C     0.71123   0.85093   0.33346   0.00000  Uiso   1.00
H682   H     0.74529   0.84960   0.33034   0.00000  Uiso   1.00
H683   H     0.70343   0.88626   0.34658   0.00000  Uiso   1.00
H684   H     0.70261   0.82383   0.35801   0.00000  Uiso   1.00
O685   O     0.10655   0.20625   0.74999   0.00000  Uiso   1.00
O686   O     0.22679   0.12709   0.75000   0.00000  Uiso   1.00
O687   O     0.22679   0.20625   0.75000   0.00000  Uiso   1.00
O688   O     0.10655   0.12709   0.74999   0.00000  Uiso   1.00
C689   C     0.08754   0.16663   0.75021   0.00000  Uiso   1.00
C690   C     0.24580   0.16670   0.74979   0.00000  Uiso   1.00
O691   O     0.16666   0.20627   0.68513   0.00000  Uiso   1.00
O692   O     0.16668   0.12707   0.81487   0.00000  Uiso   1.00
O693   O     0.16668   0.20627   0.81487   0.00000  Uiso   1.00
O694   O     0.16666   0.12707   0.68513   0.00000  Uiso   1.00
C695   C     0.16681   0.16647   0.66431   0.00000  Uiso   1.00
C696   C     0.16652   0.16686   0.83569   0.00000  Uiso   1.00
Cu697  Cu    0.16667   0.21355   0.75000   0.00000  Uiso   1.00
Cu698  Cu    0.16667   0.11978   0.75000   0.00000  Uiso   1.00
C699   C     0.17810   0.12699   0.90664   0.00000  Uiso   1.00
C700   C     0.15523   0.20634   0.59335   0.00000  Uiso   1.00
C701   C     0.16622   0.16728   0.88408   0.00000  Uiso   1.00
C702   C     0.16712   0.16605   0.61592   0.00000  Uiso   1.00
C703   C     0.15414   0.20747   0.90760   0.00000  Uiso   1.00
C704   C     0.17919   0.12586   0.59240   0.00000  Uiso   1.00
C705   C     0.15436   0.20763   0.95397   0.00000  Uiso   1.00
C706   C     0.17897   0.12570   0.54603   0.00000  Uiso   1.00
C707   C     0.16656   0.16671   0.97674   0.00000  Uiso   1.00
C708   C     0.16677   0.16663   0.52326   0.00000  Uiso   1.00
C709   C     0.17842   0.12587   0.95294   0.00000  Uiso   1.00
C710   C     0.15491   0.20747   0.54706   0.00000  Uiso   1.00
C711   C     0.14258   0.24797   0.97781   0.00000  Uiso   1.00
C712   C     0.19076   0.08536   0.52219   0.00000  Uiso   1.00
C713   C     0.14293   0.24840   0.52417   0.00000  Uiso   1.00
C714   C     0.19040   0.08493   0.97583   0.00000  Uiso   1.00
H715   H     0.18752   0.09666   0.88753   0.00000  Uiso   1.00
H716   H     0.14582   0.23667   0.61247   0.00000  Uiso   1.00
C717   C     0.02209   0.15771   0.71010   0.00000  Uiso   1.00
C718   C     0.31124   0.17562   0.78990   0.00000  Uiso   1.00
C719   C     0.31189   0.15785   0.70962   0.00000  Uiso   1.00
C720   C     0.02144   0.17549   0.79038   0.00000  Uiso   1.00
C721   C     0.29047   0.16677   0.74961   0.00000  Uiso   1.00
C722   C     0.04287   0.16656   0.75038   0.00000  Uiso   1.00
C723   C     0.14213   0.02457   0.72135   0.00000  Uiso   1.00
C724   C     0.19120   0.30876   0.77865   0.00000  Uiso   1.00
C725   C     0.19121   0.02505   0.77865   0.00000  Uiso   1.00
C726   C     0.14213   0.30829   0.72135   0.00000  Uiso   1.00
H727   H     0.12247   0.04309   0.69841   0.00000  Uiso   1.00
H728   H     0.21086   0.29024   0.80159   0.00000  Uiso   1.00
H729   H     0.21087   0.04395   0.80159   0.00000  Uiso   1.00
H730   H     0.12246   0.28939   0.69841   0.00000  Uiso   1.00
N731   N     0.16667   0.28402   0.75000   0.00000  Uiso   1.00
N732   N     0.16667   0.04931   0.75000   0.00000  Uiso   1.00
F733   F     0.14154   0.24606   0.88519   0.00000  Uiso   1.00
F734   F     0.19179   0.08728   0.61481   0.00000  Uiso   1.00
F735   F     0.13053   0.28714   0.95599   0.00000  Uiso   1.00
F736   F     0.20280   0.04619   0.54401   0.00000  Uiso   1.00
C737   C     0.13052   0.29269   0.54865   0.00000  Uiso   1.00
H738   H     0.12287   0.32199   0.52617   0.00000  Uiso   1.00
H739   H     0.10276   0.28578   0.56931   0.00000  Uiso   1.00
H740   H     0.15637   0.30469   0.57009   0.00000  Uiso   1.00
C741   C     0.20282   0.04065   0.95135   0.00000  Uiso   1.00
H742   H     0.21046   0.01134   0.97383   0.00000  Uiso   1.00
H743   H     0.17696   0.02865   0.92991   0.00000  Uiso   1.00
H744   H     0.23057   0.04755   0.93069   0.00000  Uiso   1.00
C745   C     0.04737   0.14886   0.66827   0.00000  Uiso   1.00
H746   H     0.06681   0.11718   0.67260   0.00000  Uiso   1.00
H747   H     0.02885   0.14312   0.63798   0.00000  Uiso   1.00
H748   H     0.06782   0.17939   0.66189   0.00000  Uiso   1.00
C749   C     0.28597   0.18448   0.83173   0.00000  Uiso   1.00
H750   H     0.26652   0.21615   0.82740   0.00000  Uiso   1.00
H751   H     0.26552   0.15394   0.83811   0.00000  Uiso   1.00
H752   H     0.30448   0.19023   0.86202   0.00000  Uiso   1.00
C753   C     0.28877   0.14906   0.66654   0.00000  Uiso   1.00
H754   H     0.25471   0.15039   0.66967   0.00000  Uiso   1.00
H755   H     0.29739   0.17616   0.64199   0.00000  Uiso   1.00
H756   H     0.29658   0.11373   0.65342   0.00000  Uiso   1.00
C757   C     0.04456   0.18427   0.83346   0.00000  Uiso   1.00
H758   H     0.07863   0.18293   0.83034   0.00000  Uiso   1.00
H759   H     0.03676   0.21960   0.84658   0.00000  Uiso   1.00
H760   H     0.03594   0.15717   0.85801   0.00000  Uiso   1.00
O761   O     0.43988   0.20625   0.74999   0.00000  Uiso   1.00
O762   O     0.56012   0.12709   0.75000   0.00000  Uiso   1.00
O763   O     0.56012   0.20625   0.75000   0.00000  Uiso   1.00
O764   O     0.43988   0.12709   0.74999   0.00000  Uiso   1.00
C765   C     0.42087   0.16663   0.75021   0.00000  Uiso   1.00
C766   C     0.57913   0.16670   0.74979   0.00000  Uiso   1.00
O767   O     0.49999   0.20627   0.68513   0.00000  Uiso   1.00
O768   O     0.50001   0.12707   0.81487   0.00000  Uiso   1.00
O769   O     0.50001   0.20627   0.81487   0.00000  Uiso   1.00
O770   O     0.49999   0.12707   0.68513   0.00000  Uiso   1.00
C771   C     0.50015   0.16647   0.66431   0.00000  Uiso   1.00
C772   C     0.49985   0.16686   0.83569   0.00000  Uiso   1.00
Cu773  Cu    0.50000   0.21355   0.75000   0.00000  Uiso   1.00
Cu774  Cu    0.50000   0.11978   0.75000   0.00000  Uiso   1.00
C775   C     0.51144   0.12699   0.90664   0.00000  Uiso   1.00
C776   C     0.48856   0.20634   0.59335   0.00000  Uiso   1.00
C777   C     0.49955   0.16728   0.88408   0.00000  Uiso   1.00
C778   C     0.50045   0.16605   0.61592   0.00000  Uiso   1.00
C779   C     0.48748   0.20747   0.90760   0.00000  Uiso   1.00
C780   C     0.51252   0.12586   0.59240   0.00000  Uiso   1.00
C781   C     0.48769   0.20763   0.95397   0.00000  Uiso   1.00
C782   C     0.51231   0.12570   0.54603   0.00000  Uiso   1.00
C783   C     0.49989   0.16671   0.97674   0.00000  Uiso   1.00
C784   C     0.50011   0.16663   0.52326   0.00000  Uiso   1.00
C785   C     0.51176   0.12587   0.95294   0.00000  Uiso   1.00
C786   C     0.48824   0.20747   0.54706   0.00000  Uiso   1.00
C787   C     0.47591   0.24797   0.97781   0.00000  Uiso   1.00
C788   C     0.52409   0.08536   0.52219   0.00000  Uiso   1.00
C789   C     0.47626   0.24840   0.52417   0.00000  Uiso   1.00
C790   C     0.52374   0.08493   0.97583   0.00000  Uiso   1.00
H791   H     0.52085   0.09666   0.88753   0.00000  Uiso   1.00
H792   H     0.47915   0.23667   0.61247   0.00000  Uiso   1.00
C793   C     0.35543   0.15771   0.71010   0.00000  Uiso   1.00
C794   C     0.64457   0.17562   0.78990   0.00000  Uiso   1.00
C795   C     0.64523   0.15785   0.70962   0.00000  Uiso   1.00
C796   C     0.35477   0.17549   0.79038   0.00000  Uiso   1.00
C797   C     0.62380   0.16677   0.74961   0.00000  Uiso   1.00
C798   C     0.37620   0.16656   0.75038   0.00000  Uiso   1.00
C799   C     0.47546   0.02457   0.72135   0.00000  Uiso   1.00
C800   C     0.52454   0.30876   0.77865   0.00000  Uiso   1.00
C801   C     0.52454   0.02505   0.77865   0.00000  Uiso   1.00
C802   C     0.47546   0.30829   0.72135   0.00000  Uiso   1.00
H803   H     0.45580   0.04309   0.69841   0.00000  Uiso   1.00
H804   H     0.54420   0.29024   0.80159   0.00000  Uiso   1.00
H805   H     0.54421   0.04395   0.80159   0.00000  Uiso   1.00
H806   H     0.45579   0.28939   0.69841   0.00000  Uiso   1.00
N807   N     0.50000   0.28402   0.75000   0.00000  Uiso   1.00
N808   N     0.50000   0.04931   0.75000   0.00000  Uiso   1.00
F809   F     0.47487   0.24606   0.88519   0.00000  Uiso   1.00
F810   F     0.52513   0.08728   0.61481   0.00000  Uiso   1.00
F811   F     0.46387   0.28714   0.95599   0.00000  Uiso   1.00
F812   F     0.53613   0.04619   0.54401   0.00000  Uiso   1.00
C813   C     0.46385   0.29269   0.54865   0.00000  Uiso   1.00
H814   H     0.45621   0.32199   0.52617   0.00000  Uiso   1.00
H815   H     0.43609   0.28578   0.56931   0.00000  Uiso   1.00
H816   H     0.48970   0.30469   0.57009   0.00000  Uiso   1.00
C817   C     0.53615   0.04065   0.95135   0.00000  Uiso   1.00
H818   H     0.54379   0.01134   0.97383   0.00000  Uiso   1.00
H819   H     0.51030   0.02865   0.92991   0.00000  Uiso   1.00
H820   H     0.56391   0.04755   0.93069   0.00000  Uiso   1.00
C821   C     0.38070   0.14886   0.66827   0.00000  Uiso   1.00
H822   H     0.40014   0.11718   0.67260   0.00000  Uiso   1.00
H823   H     0.36218   0.14312   0.63798   0.00000  Uiso   1.00
H824   H     0.40115   0.17939   0.66189   0.00000  Uiso   1.00
C825   C     0.61930   0.18448   0.83173   0.00000  Uiso   1.00
H826   H     0.59985   0.21615   0.82740   0.00000  Uiso   1.00
H827   H     0.59885   0.15394   0.83811   0.00000  Uiso   1.00
H828   H     0.63782   0.19023   0.86202   0.00000  Uiso   1.00
C829   C     0.62210   0.14906   0.66654   0.00000  Uiso   1.00
H830   H     0.58804   0.15039   0.66967   0.00000  Uiso   1.00
H831   H     0.63072   0.17616   0.64199   0.00000  Uiso   1.00
H832   H     0.62991   0.11373   0.65342   0.00000  Uiso   1.00
C833   C     0.37790   0.18427   0.83346   0.00000  Uiso   1.00
H834   H     0.41196   0.18293   0.83034   0.00000  Uiso   1.00
H835   H     0.37010   0.21960   0.84658   0.00000  Uiso   1.00
H836   H     0.36927   0.15717   0.85801   0.00000  Uiso   1.00
O837   O     0.77321   0.20625   0.74999   0.00000  Uiso   1.00
O838   O     0.89345   0.12709   0.75000   0.00000  Uiso   1.00
O839   O     0.89345   0.20625   0.75000   0.00000  Uiso   1.00
O840   O     0.77321   0.12709   0.74999   0.00000  Uiso   1.00
C841   C     0.75420   0.16663   0.75021   0.00000  Uiso   1.00
C842   C     0.91246   0.16670   0.74979   0.00000  Uiso   1.00
O843   O     0.83332   0.20627   0.68513   0.00000  Uiso   1.00
O844   O     0.83334   0.12707   0.81487   0.00000  Uiso   1.00
O845   O     0.83334   0.20627   0.81487   0.00000  Uiso   1.00
O846   O     0.83332   0.12707   0.68513   0.00000  Uiso   1.00
C847   C     0.83348   0.16647   0.66431   0.00000  Uiso   1.00
C848   C     0.83319   0.16686   0.83569   0.00000  Uiso   1.00
Cu849  Cu    0.83333   0.21355   0.75000   0.00000  Uiso   1.00
Cu850  Cu    0.83333   0.11978   0.75000   0.00000  Uiso   1.00
C851   C     0.84477   0.12699   0.90664   0.00000  Uiso   1.00
C852   C     0.82190   0.20634   0.59335   0.00000  Uiso   1.00
C853   C     0.83288   0.16728   0.88408   0.00000  Uiso   1.00
C854   C     0.83379   0.16605   0.61592   0.00000  Uiso   1.00
C855   C     0.82081   0.20747   0.90760   0.00000  Uiso   1.00
C856   C     0.84586   0.12586   0.59240   0.00000  Uiso   1.00
C857   C     0.82103   0.20763   0.95397   0.00000  Uiso   1.00
C858   C     0.84564   0.12570   0.54603   0.00000  Uiso   1.00
C859   C     0.83323   0.16671   0.97674   0.00000  Uiso   1.00
C860   C     0.83344   0.16663   0.52326   0.00000  Uiso   1.00
C861   C     0.84509   0.12587   0.95294   0.00000  Uiso   1.00
C862   C     0.82158   0.20747   0.54706   0.00000  Uiso   1.00
C863   C     0.80924   0.24797   0.97781   0.00000  Uiso   1.00
C864   C     0.85742   0.08536   0.52219   0.00000  Uiso   1.00
C865   C     0.80960   0.24840   0.52417   0.00000  Uiso   1.00
C866   C     0.85707   0.08493   0.97583   0.00000  Uiso   1.00
H867   H     0.85418   0.09666   0.88753   0.00000  Uiso   1.00
H868   H     0.81248   0.23667   0.61247   0.00000  Uiso   1.00
C869   C     0.68876   0.15771   0.71010   0.00000  Uiso   1.00
C870   C     0.97791   0.17562   0.78990   0.00000  Uiso   1.00
C871   C     0.97856   0.15785   0.70962   0.00000  Uiso   1.00
C872   C     0.68811   0.17549   0.79038   0.00000  Uiso   1.00
C873   C     0.95713   0.16677   0.74961   0.00000  Uiso   1.00
C874   C     0.70953   0.16656   0.75038   0.00000  Uiso   1.00
C875   C     0.80880   0.02457   0.72135   0.00000  Uiso   1.00
C876   C     0.85787   0.30876   0.77865   0.00000  Uiso   1.00
C877   C     0.85787   0.02505   0.77865   0.00000  Uiso   1.00
C878   C     0.80879   0.30829   0.72135   0.00000  Uiso   1.00
H879   H     0.78914   0.04309   0.69841   0.00000  Uiso   1.00
H880   H     0.87753   0.29024   0.80159   0.00000  Uiso   1.00
H881   H     0.87754   0.04395   0.80159   0.00000  Uiso   1.00
H882   H     0.78913   0.28939   0.69841   0.00000  Uiso   1.00
N883   N     0.83333   0.28402   0.75000   0.00000  Uiso   1.00
N884   N     0.83333   0.04931   0.75000   0.00000  Uiso   1.00
F885   F     0.80821   0.24606   0.88519   0.00000  Uiso   1.00
F886   F     0.85846   0.08728   0.61481   0.00000  Uiso   1.00
F887   F     0.79720   0.28714   0.95599   0.00000  Uiso   1.00
F888   F     0.86947   0.04619   0.54401   0.00000  Uiso   1.00
C889   C     0.79718   0.29269   0.54865   0.00000  Uiso   1.00
H890   H     0.78954   0.32199   0.52617   0.00000  Uiso   1.00
H891   H     0.76943   0.28578   0.56931   0.00000  Uiso   1.00
H892   H     0.82304   0.30469   0.57009   0.00000  Uiso   1.00
C893   C     0.86948   0.04065   0.95135   0.00000  Uiso   1.00
H894   H     0.87713   0.01134   0.97383   0.00000  Uiso   1.00
H895   H     0.84363   0.02865   0.92991   0.00000  Uiso   1.00
H896   H     0.89724   0.04755   0.93069   0.00000  Uiso   1.00
C897   C     0.71403   0.14886   0.66827   0.00000  Uiso   1.00
H898   H     0.73348   0.11718   0.67260   0.00000  Uiso   1.00
H899   H     0.69552   0.14312   0.63798   0.00000  Uiso   1.00
H900   H     0.73449   0.17939   0.66189   0.00000  Uiso   1.00
C901   C     0.95263   0.18448   0.83173   0.00000  Uiso   1.00
H902   H     0.93319   0.21615   0.82740   0.00000  Uiso   1.00
H903   H     0.93218   0.15394   0.83811   0.00000  Uiso   1.00
H904   H     0.97115   0.19023   0.86202   0.00000  Uiso   1.00
C905   C     0.95544   0.14906   0.66654   0.00000  Uiso   1.00
H906   H     0.92137   0.15039   0.66967   0.00000  Uiso   1.00
H907   H     0.96406   0.17616   0.64199   0.00000  Uiso   1.00
H908   H     0.96324   0.11373   0.65342   0.00000  Uiso   1.00
C909   C     0.71123   0.18427   0.83346   0.00000  Uiso   1.00
H910   H     0.74529   0.18293   0.83034   0.00000  Uiso   1.00
H911   H     0.70343   0.21960   0.84658   0.00000  Uiso   1.00
H912   H     0.70261   0.15717   0.85801   0.00000  Uiso   1.00
O913   O     0.10655   0.53958   0.74999   0.00000  Uiso   1.00
O914   O     0.22679   0.46042   0.75000   0.00000  Uiso   1.00
O915   O     0.22679   0.53958   0.75000   0.00000  Uiso   1.00
O916   O     0.10655   0.46042   0.74999   0.00000  Uiso   1.00
C917   C     0.08754   0.49997   0.75021   0.00000  Uiso   1.00
C918   C     0.24580   0.50003   0.74979   0.00000  Uiso   1.00
O919   O     0.16666   0.53960   0.68513   0.00000  Uiso   1.00
O920   O     0.16668   0.46040   0.81487   0.00000  Uiso   1.00
O921   O     0.16668   0.53960   0.81487   0.00000  Uiso   1.00
O922   O     0.16666   0.46040   0.68513   0.00000  Uiso   1.00
C923   C     0.16681   0.49980   0.66431   0.00000  Uiso   1.00
C924   C     0.16652   0.50020   0.83569   0.00000  Uiso   1.00
Cu925  Cu    0.16667   0.54689   0.75000   0.00000  Uiso   1.00
Cu926  Cu    0.16667   0.45311   0.75000   0.00000  Uiso   1.00
C927   C     0.17810   0.46033   0.90664   0.00000  Uiso   1.00
C928   C     0.15523   0.53967   0.59335   0.00000  Uiso   1.00
C929   C     0.16622   0.50061   0.88408   0.00000  Uiso   1.00
C930   C     0.16712   0.49939   0.61592   0.00000  Uiso   1.00
C931   C     0.15414   0.54080   0.90760   0.00000  Uiso   1.00
C932   C     0.17919   0.45920   0.59240   0.00000  Uiso   1.00
C933   C     0.15436   0.54096   0.95397   0.00000  Uiso   1.00
C934   C     0.17897   0.45904   0.54603   0.00000  Uiso   1.00
C935   C     0.16656   0.50004   0.97674   0.00000  Uiso   1.00
C936   C     0.16677   0.49996   0.52326   0.00000  Uiso   1.00
C937   C     0.17842   0.45920   0.95294   0.00000  Uiso   1.00
C938   C     0.15491   0.54080   0.54706   0.00000  Uiso   1.00
C939   C     0.14258   0.58130   0.97781   0.00000  Uiso   1.00
C940   C     0.19076   0.41870   0.52219   0.00000  Uiso   1.00
C941   C     0.14293   0.58174   0.52417   0.00000  Uiso   1.00
C942   C     0.19040   0.41826   0.97583   0.00000  Uiso   1.00
H943   H     0.18752   0.43000   0.88753   0.00000  Uiso   1.00
H944   H     0.14582   0.57000   0.61247   0.00000  Uiso   1.00
C945   C     0.02209   0.49105   0.71010   0.00000  Uiso   1.00
C946   C     0.31124   0.50896   0.78990   0.00000  Uiso   1.00
C947   C     0.31189   0.49118   0.70962   0.00000  Uiso   1.00
C948   C     0.02144   0.50882   0.79038   0.00000  Uiso   1.00
C949   C     0.29047   0.50011   0.74961   0.00000  Uiso   1.00
C950   C     0.04287   0.49989   0.75038   0.00000  Uiso   1.00
C951   C     0.14213   0.35791   0.72135   0.00000  Uiso   1.00
C952   C     0.19120   0.64209   0.77865   0.00000  Uiso   1.00
C953   C     0.19121   0.35838   0.77865   0.00000  Uiso   1.00
C954   C     0.14213   0.64162   0.72135   0.00000  Uiso   1.00
H955   H     0.12247   0.37643   0.69841   0.00000  Uiso   1.00
H956   H     0.21086   0.62357   0.80159   0.00000  Uiso   1.00
H957   H     0.21087   0.37728   0.80159   0.00000  Uiso   1.00
H958   H     0.12246   0.62272   0.69841   0.00000  Uiso   1.00
N959   N     0.16667   0.61736   0.75000   0.00000  Uiso   1.00
N960   N     0.16667   0.38264   0.75000   0.00000  Uiso   1.00
F961   F     0.14154   0.57939   0.88519   0.00000  Uiso   1.00
F962   F     0.19179   0.42061   0.61481   0.00000  Uiso   1.00
F963   F     0.13053   0.62048   0.95599   0.00000  Uiso   1.00
F964   F     0.20280   0.37952   0.54401   0.00000  Uiso   1.00
C965   C     0.13052   0.62602   0.54865   0.00000  Uiso   1.00
H966   H     0.12287   0.65532   0.52617   0.00000  Uiso   1.00
H967   H     0.10276   0.61912   0.56931   0.00000  Uiso   1.00
H968   H     0.15637   0.63802   0.57009   0.00000  Uiso   1.00
C969   C     0.20282   0.37398   0.95135   0.00000  Uiso   1.00
H970   H     0.21046   0.34468   0.97383   0.00000  Uiso   1.00
H971   H     0.17696   0.36198   0.92991   0.00000  Uiso   1.00
H972   H     0.23057   0.38088   0.93069   0.00000  Uiso   1.00
C973   C     0.04737   0.48219   0.66827   0.00000  Uiso   1.00
H974   H     0.06681   0.45052   0.67260   0.00000  Uiso   1.00
H975   H     0.02885   0.47645   0.63798   0.00000  Uiso   1.00
H976   H     0.06782   0.51273   0.66189   0.00000  Uiso   1.00
C977   C     0.28597   0.51782   0.83173   0.00000  Uiso   1.00
H978   H     0.26652   0.54949   0.82740   0.00000  Uiso   1.00
H979   H     0.26552   0.48728   0.83811   0.00000  Uiso   1.00
H980   H     0.30448   0.52356   0.86202   0.00000  Uiso   1.00
C981   C     0.28877   0.48240   0.66654   0.00000  Uiso   1.00
H982   H     0.25471   0.48373   0.66967   0.00000  Uiso   1.00
H983   H     0.29739   0.50950   0.64199   0.00000  Uiso   1.00
H984   H     0.29658   0.44707   0.65342   0.00000  Uiso   1.00
C985   C     0.04456   0.51760   0.83346   0.00000  Uiso   1.00
H986   H     0.07863   0.51626   0.83034   0.00000  Uiso   1.00
H987   H     0.03676   0.55293   0.84658   0.00000  Uiso   1.00
H988   H     0.03594   0.49050   0.85801   0.00000  Uiso   1.00
O989   O     0.43988   0.53958   0.74999   0.00000  Uiso   1.00
O990   O     0.56012   0.46042   0.75000   0.00000  Uiso   1.00
O991   O     0.56012   0.53958   0.75000   0.00000  Uiso   1.00
O992   O     0.43988   0.46042   0.74999   0.00000  Uiso   1.00
C993   C     0.42087   0.49997   0.75021   0.00000  Uiso   1.00
C994   C     0.57913   0.50003   0.74979   0.00000  Uiso   1.00
O995   O     0.49999   0.53960   0.68513   0.00000  Uiso   1.00
O996   O     0.50001   0.46040   0.81487   0.00000  Uiso   1.00
O997   O     0.50001   0.53960   0.81487   0.00000  Uiso   1.00
O998   O     0.49999   0.46040   0.68513   0.00000  Uiso   1.00
C999   C     0.50015   0.49980   0.66431   0.00000  Uiso   1.00
C1000  C     0.49985   0.50020   0.83569   0.00000  Uiso   1.00
Cu1001 Cu    0.50000   0.54689   0.75000   0.00000  Uiso   1.00
Cu1002 Cu    0.50000   0.45311   0.75000   0.00000  Uiso   1.00
C1003  C     0.51144   0.46033   0.90664   0.00000  Uiso   1.00
C1004  C     0.48856   0.53967   0.59335   0.00000  Uiso   1.00
C1005  C     0.49955   0.50061   0.88408   0.00000  Uiso   1.00
C1006  C     0.50045   0.49939   0.61592   0.00000  Uiso   1.00
C1007  C     0.48748   0.54080   0.90760   0.00000  Uiso   1.00
C1008  C     0.51252   0.45920   0.59240   0.00000  Uiso   1.00
C1009  C     0.48769   0.54096   0.95397   0.00000  Uiso   1.00
C1010  C     0.51231   0.45904   0.54603   0.00000  Uiso   1.00
C1011  C     0.49989   0.50004   0.97674   0.00000  Uiso   1.00
C1012  C     0.50011   0.49996   0.52326   0.00000  Uiso   1.00
C1013  C     0.51176   0.45920   0.95294   0.00000  Uiso   1.00
C1014  C     0.48824   0.54080   0.54706   0.00000  Uiso   1.00
C1015  C     0.47591   0.58130   0.97781   0.00000  Uiso   1.00
C1016  C     0.52409   0.41870   0.52219   0.00000  Uiso   1.00
C1017  C     0.47626   0.58174   0.52417   0.00000  Uiso   1.00
C1018  C     0.52374   0.41826   0.97583   0.00000  Uiso   1.00
H1019  H     0.52085   0.43000   0.88753   0.00000  Uiso   1.00
H1020  H     0.47915   0.57000   0.61247   0.00000  Uiso   1.00
C1021  C     0.35543   0.49105   0.71010   0.00000  Uiso   1.00
C1022  C     0.64457   0.50896   0.78990   0.00000  Uiso   1.00
C1023  C     0.64523   0.49118   0.70962   0.00000  Uiso   1.00
C1024  C     0.35477   0.50882   0.79038   0.00000  Uiso   1.00
C1025  C     0.62380   0.50011   0.74961   0.00000  Uiso   1.00
C1026  C     0.37620   0.49989   0.75038   0.00000  Uiso   1.00
C1027  C     0.47546   0.35791   0.72135   0.00000  Uiso   1.00
C1028  C     0.52454   0.64209   0.77865   0.00000  Uiso   1.00
C1029  C     0.52454   0.35838   0.77865   0.00000  Uiso   1.00
C1030  C     0.47546   0.64162   0.72135   0.00000  Uiso   1.00
H1031  H     0.45580   0.37643   0.69841   0.00000  Uiso   1.00
H1032  H     0.54420   0.62357   0.80159   0.00000  Uiso   1.00
H1033  H     0.54421   0.37728   0.80159   0.00000  Uiso   1.00
H1034  H     0.45579   0.62272   0.69841   0.00000  Uiso   1.00
N1035  N     0.50000   0.61736   0.75000   0.00000  Uiso   1.00
N1036  N     0.50000   0.38264   0.75000   0.00000  Uiso   1.00
F1037  F     0.47487   0.57939   0.88519   0.00000  Uiso   1.00
F1038  F     0.52513   0.42061   0.61481   0.00000  Uiso   1.00
F1039  F     0.46387   0.62048   0.95599   0.00000  Uiso   1.00
F1040  F     0.53613   0.37952   0.54401   0.00000  Uiso   1.00
C1041  C     0.46385   0.62602   0.54865   0.00000  Uiso   1.00
H1042  H     0.45621   0.65532   0.52617   0.00000  Uiso   1.00
H1043  H     0.43609   0.61912   0.56931   0.00000  Uiso   1.00
H1044  H     0.48970   0.63802   0.57009   0.00000  Uiso   1.00
C1045  C     0.53615   0.37398   0.95135   0.00000  Uiso   1.00
H1046  H     0.54379   0.34468   0.97383   0.00000  Uiso   1.00
H1047  H     0.51030   0.36198   0.92991   0.00000  Uiso   1.00
H1048  H     0.56391   0.38088   0.93069   0.00000  Uiso   1.00
C1049  C     0.38070   0.48219   0.66827   0.00000  Uiso   1.00
H1050  H     0.40014   0.45052   0.67260   0.00000  Uiso   1.00
H1051  H     0.36218   0.47645   0.63798   0.00000  Uiso   1.00
H1052  H     0.40115   0.51273   0.66189   0.00000  Uiso   1.00
C1053  C     0.61930   0.51782   0.83173   0.00000  Uiso   1.00
H1054  H     0.59985   0.54949   0.82740   0.00000  Uiso   1.00
H1055  H     0.59885   0.48728   0.83811   0.00000  Uiso   1.00
H1056  H     0.63782   0.52356   0.86202   0.00000  Uiso   1.00
C1057  C     0.62210   0.48240   0.66654   0.00000  Uiso   1.00
H1058  H     0.58804   0.48373   0.66967   0.00000  Uiso   1.00
H1059  H     0.63072   0.50950   0.64199   0.00000  Uiso   1.00
H1060  H     0.62991   0.44707   0.65342   0.00000  Uiso   1.00
C1061  C     0.37790   0.51760   0.83346   0.00000  Uiso   1.00
H1062  H     0.41196   0.51626   0.83034   0.00000  Uiso   1.00
H1063  H     0.37010   0.55293   0.84658   0.00000  Uiso   1.00
H1064  H     0.36927   0.49050   0.85801   0.00000  Uiso   1.00
O1065  O     0.77321   0.53958   0.74999   0.00000  Uiso   1.00
O1066  O     0.89345   0.46042   0.75000   0.00000  Uiso   1.00
O1067  O     0.89345   0.53958   0.75000   0.00000  Uiso   1.00
O1068  O     0.77321   0.46042   0.74999   0.00000  Uiso   1.00
C1069  C     0.75420   0.49997   0.75021   0.00000  Uiso   1.00
C1070  C     0.91246   0.50003   0.74979   0.00000  Uiso   1.00
O1071  O     0.83332   0.53960   0.68513   0.00000  Uiso   1.00
O1072  O     0.83334   0.46040   0.81487   0.00000  Uiso   1.00
O1073  O     0.83334   0.53960   0.81487   0.00000  Uiso   1.00
O1074  O     0.83332   0.46040   0.68513   0.00000  Uiso   1.00
C1075  C     0.83348   0.49980   0.66431   0.00000  Uiso   1.00
C1076  C     0.83319   0.50020   0.83569   0.00000  Uiso   1.00
Cu1077 Cu    0.83333   0.54689   0.75000   0.00000  Uiso   1.00
Cu1078 Cu    0.83333   0.45311   0.75000   0.00000  Uiso   1.00
C1079  C     0.84477   0.46033   0.90664   0.00000  Uiso   1.00
C1080  C     0.82190   0.53967   0.59335   0.00000  Uiso   1.00
C1081  C     0.83288   0.50061   0.88408   0.00000  Uiso   1.00
C1082  C     0.83379   0.49939   0.61592   0.00000  Uiso   1.00
C1083  C     0.82081   0.54080   0.90760   0.00000  Uiso   1.00
C1084  C     0.84586   0.45920   0.59240   0.00000  Uiso   1.00
C1085  C     0.82103   0.54096   0.95397   0.00000  Uiso   1.00
C1086  C     0.84564   0.45904   0.54603   0.00000  Uiso   1.00
C1087  C     0.83323   0.50004   0.97674   0.00000  Uiso   1.00
C1088  C     0.83344   0.49996   0.52326   0.00000  Uiso   1.00
C1089  C     0.84509   0.45920   0.95294   0.00000  Uiso   1.00
C1090  C     0.82158   0.54080   0.54706   0.00000  Uiso   1.00
C1091  C     0.80924   0.58130   0.97781   0.00000  Uiso   1.00
C1092  C     0.85742   0.41870   0.52219   0.00000  Uiso   1.00
C1093  C     0.80960   0.58174   0.52417   0.00000  Uiso   1.00
C1094  C     0.85707   0.41826   0.97583   0.00000  Uiso   1.00
H1095  H     0.85418   0.43000   0.88753   0.00000  Uiso   1.00
H1096  H     0.81248   0.57000   0.61247   0.00000  Uiso   1.00
C1097  C     0.68876   0.49105   0.71010   0.00000  Uiso   1.00
C1098  C     0.97791   0.50896   0.78990   0.00000  Uiso   1.00
C1099  C     0.97856   0.49118   0.70962   0.00000  Uiso   1.00
C1100  C     0.68811   0.50882   0.79038   0.00000  Uiso   1.00
C1101  C     0.95713   0.50011   0.74961   0.00000  Uiso   1.00
C1102  C     0.70953   0.49989   0.75038   0.00000  Uiso   1.00
C1103  C     0.80880   0.35791   0.72135   0.00000  Uiso   1.00
C1104  C     0.85787   0.64209   0.77865   0.00000  Uiso   1.00
C1105  C     0.85787   0.35838   0.77865   0.00000  Uiso   1.00
C1106  C     0.80879   0.64162   0.72135   0.00000  Uiso   1.00
H1107  H     0.78914   0.37643   0.69841   0.00000  Uiso   1.00
H1108  H     0.87753   0.62357   0.80159   0.00000  Uiso   1.00
H1109  H     0.87754   0.37728   0.80159   0.00000  Uiso   1.00
H1110  H     0.78913   0.62272   0.69841   0.00000  Uiso   1.00
N1111  N     0.83333   0.61736   0.75000   0.00000  Uiso   1.00
N1112  N     0.83333   0.38264   0.75000   0.00000  Uiso   1.00
F1113  F     0.80821   0.57939   0.88519   0.00000  Uiso   1.00
F1114  F     0.85846   0.42061   0.61481   0.00000  Uiso   1.00
F1115  F     0.79720   0.62048   0.95599   0.00000  Uiso   1.00
F1116  F     0.86947   0.37952   0.54401   0.00000  Uiso   1.00
C1117  C     0.79718   0.62602   0.54865   0.00000  Uiso   1.00
H1118  H     0.78954   0.65532   0.52617   0.00000  Uiso   1.00
H1119  H     0.76943   0.61912   0.56931   0.00000  Uiso   1.00
H1120  H     0.82304   0.63802   0.57009   0.00000  Uiso   1.00
C1121  C     0.86948   0.37398   0.95135   0.00000  Uiso   1.00
H1122  H     0.87713   0.34468   0.97383   0.00000  Uiso   1.00
H1123  H     0.84363   0.36198   0.92991   0.00000  Uiso   1.00
H1124  H     0.89724   0.38088   0.93069   0.00000  Uiso   1.00
C1125  C     0.71403   0.48219   0.66827   0.00000  Uiso   1.00
H1126  H     0.73348   0.45052   0.67260   0.00000  Uiso   1.00
H1127  H     0.69552   0.47645   0.63798   0.00000  Uiso   1.00
H1128  H     0.73449   0.51273   0.66189   0.00000  Uiso   1.00
C1129  C     0.95263   0.51782   0.83173   0.00000  Uiso   1.00
H1130  H     0.93319   0.54949   0.82740   0.00000  Uiso   1.00
H1131  H     0.93218   0.48728   0.83811   0.00000  Uiso   1.00
H1132  H     0.97115   0.52356   0.86202   0.00000  Uiso   1.00
C1133  C     0.95544   0.48240   0.66654   0.00000  Uiso   1.00
H1134  H     0.92137   0.48373   0.66967   0.00000  Uiso   1.00
H1135  H     0.96406   0.50950   0.64199   0.00000  Uiso   1.00
H1136  H     0.96324   0.44707   0.65342   0.00000  Uiso   1.00
C1137  C     0.71123   0.51760   0.83346   0.00000  Uiso   1.00
H1138  H     0.74529   0.51626   0.83034   0.00000  Uiso   1.00
H1139  H     0.70343   0.55293   0.84658   0.00000  Uiso   1.00
H1140  H     0.70261   0.49050   0.85801   0.00000  Uiso   1.00
O1141  O     0.10655   0.87291   0.74999   0.00000  Uiso   1.00
O1142  O     0.22679   0.79375   0.75000   0.00000  Uiso   1.00
O1143  O     0.22679   0.87291   0.75000   0.00000  Uiso   1.00
O1144  O     0.10655   0.79375   0.74999   0.00000  Uiso   1.00
C1145  C     0.08754   0.83330   0.75021   0.00000  Uiso   1.00
C1146  C     0.24580   0.83337   0.74979   0.00000  Uiso   1.00
O1147  O     0.16666   0.87293   0.68513   0.00000  Uiso   1.00
O1148  O     0.16668   0.79373   0.81487   0.00000  Uiso   1.00
O1149  O     0.16668   0.87293   0.81487   0.00000  Uiso   1.00
O1150  O     0.16666   0.79373   0.68513   0.00000  Uiso   1.00
C1151  C     0.16681   0.83314   0.66431   0.00000  Uiso   1.00
C1152  C     0.16652   0.83353   0.83569   0.00000  Uiso   1.00
Cu1153 Cu    0.16667   0.88022   0.75000   0.00000  Uiso   1.00
Cu1154 Cu    0.16667   0.78645   0.75000   0.00000  Uiso   1.00
C1155  C     0.17810   0.79366   0.90664   0.00000  Uiso   1.00
C1156  C     0.15523   0.87301   0.59335   0.00000  Uiso   1.00
C1157  C     0.16622   0.83395   0.88408   0.00000  Uiso   1.00
C1158  C     0.16712   0.83272   0.61592   0.00000  Uiso   1.00
C1159  C     0.15414   0.87414   0.90760   0.00000  Uiso   1.00
C1160  C     0.17919   0.79253   0.59240   0.00000  Uiso   1.00
C1161  C     0.15436   0.87430   0.95397   0.00000  Uiso   1.00
C1162  C     0.17897   0.79237   0.54603   0.00000  Uiso   1.00
C1163  C     0.16656   0.83337   0.97674   0.00000  Uiso   1.00
C1164  C     0.16677   0.83329   0.52326   0.00000  Uiso   1.00
C1165  C     0.17842   0.79253   0.95294   0.00000  Uiso   1.00
C1166  C     0.15491   0.87413   0.54706   0.00000  Uiso   1.00
C1167  C     0.14258   0.91464   0.97781   0.00000  Uiso   1.00
C1168  C     0.19076   0.75203   0.52219   0.00000  Uiso   1.00
C1169  C     0.14293   0.91507   0.52417   0.00000  Uiso   1.00
C1170  C     0.19040   0.75160   0.97583   0.00000  Uiso   1.00
H1171  H     0.18752   0.76333   0.88753   0.00000  Uiso   1.00
H1172  H     0.14582   0.90334   0.61247   0.00000  Uiso   1.00
C1173  C     0.02209   0.82438   0.71010   0.00000  Uiso   1.00
C1174  C     0.31124   0.84229   0.78990   0.00000  Uiso   1.00
C1175  C     0.31189   0.82451   0.70962   0.00000  Uiso   1.00
C1176  C     0.02144   0.84215   0.79038   0.00000  Uiso   1.00
C1177  C     0.29047   0.83344   0.74961   0.00000  Uiso   1.00
C1178  C     0.04287   0.83323   0.75038   0.00000  Uiso   1.00
C1179  C     0.14213   0.69124   0.72135   0.00000  Uiso   1.00
C1180  C     0.19120   0.97543   0.77865   0.00000  Uiso   1.00
C1181  C     0.19121   0.69172   0.77865   0.00000  Uiso   1.00
C1182  C     0.14213   0.97495   0.72135   0.00000  Uiso   1.00
H1183  H     0.12247   0.70976   0.69841   0.00000  Uiso   1.00
H1184  H     0.21086   0.95691   0.80159   0.00000  Uiso   1.00
H1185  H     0.21087   0.71061   0.80159   0.00000  Uiso   1.00
H1186  H     0.12246   0.95605   0.69841   0.00000  Uiso   1.00
N1187  N     0.16667   0.95069   0.75000   0.00000  Uiso   1.00
N1188  N     0.16667   0.71598   0.75000   0.00000  Uiso   1.00
F1189  F     0.14154   0.91272   0.88519   0.00000  Uiso   1.00
F1190  F     0.19179   0.75394   0.61481   0.00000  Uiso   1.00
F1191  F     0.13053   0.95381   0.95599   0.00000  Uiso   1.00
F1192  F     0.20280   0.71286   0.54401   0.00000  Uiso   1.00
C1193  C     0.13052   0.95935   0.54865   0.00000  Uiso   1.00
H1194  H     0.12287   0.98866   0.52617   0.00000  Uiso   1.00
H1195  H     0.10276   0.95245   0.56931   0.00000  Uiso   1.00
H1196  H     0.15637   0.97135   0.57009   0.00000  Uiso   1.00
C1197  C     0.20282   0.70731   0.95135   0.00000  Uiso   1.00
H1198  H     0.21046   0.67801   0.97383   0.00000  Uiso   1.00
H1199  H     0.17696   0.69532   0.92991   0.00000  Uiso   1.00
H1200  H     0.23057   0.71422   0.93069   0.00000  Uiso   1.00
C1201  C     0.04737   0.81552   0.66827   0.00000  Uiso   1.00
H1202  H     0.06681   0.78385   0.67260   0.00000  Uiso   1.00
H1203  H     0.02885   0.80978   0.63798   0.00000  Uiso   1.00
H1204  H     0.06782   0.84606   0.66189   0.00000  Uiso   1.00
C1205  C     0.28597   0.85115   0.83173   0.00000  Uiso   1.00
H1206  H     0.26652   0.88282   0.82740   0.00000  Uiso   1.00
H1207  H     0.26552   0.82061   0.83811   0.00000  Uiso   1.00
H1208  H     0.30448   0.85689   0.86202   0.00000  Uiso   1.00
C1209  C     0.28877   0.81573   0.66654   0.00000  Uiso   1.00
H1210  H     0.25471   0.81706   0.66967   0.00000  Uiso   1.00
H1211  H     0.29739   0.84283   0.64199   0.00000  Uiso   1.00
H1212  H     0.29658   0.78040   0.65342   0.00000  Uiso   1.00
C1213  C     0.04456   0.85093   0.83346   0.00000  Uiso   1.00
H1214  H     0.07863   0.84960   0.83034   0.00000  Uiso   1.00
H1215  H     0.03676   0.88626   0.84658   0.00000  Uiso   1.00
H1216  H     0.03594   0.82383   0.85801   0.00000  Uiso   1.00
O1217  O     0.43988   0.87291   0.74999   0.00000  Uiso   1.00
O1218  O     0.56012   0.79375   0.75000   0.00000  Uiso   1.00
O1219  O     0.56012   0.87291   0.75000   0.00000  Uiso   1.00
O1220  O     0.43988   0.79375   0.74999   0.00000  Uiso   1.00
C1221  C     0.42087   0.83330   0.75021   0.00000  Uiso   1.00
C1222  C     0.57913   0.83337   0.74979   0.00000  Uiso   1.00
O1223  O     0.49999   0.87293   0.68513   0.00000  Uiso   1.00
O1224  O     0.50001   0.79373   0.81487   0.00000  Uiso   1.00
O1225  O     0.50001   0.87293   0.81487   0.00000  Uiso   1.00
O1226  O     0.49999   0.79373   0.68513   0.00000  Uiso   1.00
C1227  C     0.50015   0.83314   0.66431   0.00000  Uiso   1.00
C1228  C     0.49985   0.83353   0.83569   0.00000  Uiso   1.00
Cu1229 Cu    0.50000   0.88022   0.75000   0.00000  Uiso   1.00
Cu1230 Cu    0.50000   0.78645   0.75000   0.00000  Uiso   1.00
C1231  C     0.51144   0.79366   0.90664   0.00000  Uiso   1.00
C1232  C     0.48856   0.87301   0.59335   0.00000  Uiso   1.00
C1233  C     0.49955   0.83395   0.88408   0.00000  Uiso   1.00
C1234  C     0.50045   0.83272   0.61592   0.00000  Uiso   1.00
C1235  C     0.48748   0.87414   0.90760   0.00000  Uiso   1.00
C1236  C     0.51252   0.79253   0.59240   0.00000  Uiso   1.00
C1237  C     0.48769   0.87430   0.95397   0.00000  Uiso   1.00
C1238  C     0.51231   0.79237   0.54603   0.00000  Uiso   1.00
C1239  C     0.49989   0.83337   0.97674   0.00000  Uiso   1.00
C1240  C     0.50011   0.83329   0.52326   0.00000  Uiso   1.00
C1241  C     0.51176   0.79253   0.95294   0.00000  Uiso   1.00
C1242  C     0.48824   0.87413   0.54706   0.00000  Uiso   1.00
C1243  C     0.47591   0.91464   0.97781   0.00000  Uiso   1.00
C1244  C     0.52409   0.75203   0.52219   0.00000  Uiso   1.00
C1245  C     0.47626   0.91507   0.52417   0.00000  Uiso   1.00
C1246  C     0.52374   0.75160   0.97583   0.00000  Uiso   1.00
H1247  H     0.52085   0.76333   0.88753   0.00000  Uiso   1.00
H1248  H     0.47915   0.90334   0.61247   0.00000  Uiso   1.00
C1249  C     0.35543   0.82438   0.71010   0.00000  Uiso   1.00
C1250  C     0.64457   0.84229   0.78990   0.00000  Uiso   1.00
C1251  C     0.64523   0.82451   0.70962   0.00000  Uiso   1.00
C1252  C     0.35477   0.84215   0.79038   0.00000  Uiso   1.00
C1253  C     0.62380   0.83344   0.74961   0.00000  Uiso   1.00
C1254  C     0.37620   0.83323   0.75038   0.00000  Uiso   1.00
C1255  C     0.47546   0.69124   0.72135   0.00000  Uiso   1.00
C1256  C     0.52454   0.97543   0.77865   0.00000  Uiso   1.00
C1257  C     0.52454   0.69172   0.77865   0.00000  Uiso   1.00
C1258  C     0.47546   0.97495   0.72135   0.00000  Uiso   1.00
H1259  H     0.45580   0.70976   0.69841   0.00000  Uiso   1.00
H1260  H     0.54420   0.95691   0.80159   0.00000  Uiso   1.00
H1261  H     0.54421   0.71061   0.80159   0.00000  Uiso   1.00
H1262  H     0.45579   0.95605   0.69841   0.00000  Uiso   1.00
N1263  N     0.50000   0.95069   0.75000   0.00000  Uiso   1.00
N1264  N     0.50000   0.71598   0.75000   0.00000  Uiso   1.00
F1265  F     0.47487   0.91272   0.88519   0.00000  Uiso   1.00
F1266  F     0.52513   0.75394   0.61481   0.00000  Uiso   1.00
F1267  F     0.46387   0.95381   0.95599   0.00000  Uiso   1.00
F1268  F     0.53613   0.71286   0.54401   0.00000  Uiso   1.00
C1269  C     0.46385   0.95935   0.54865   0.00000  Uiso   1.00
H1270  H     0.45621   0.98866   0.52617   0.00000  Uiso   1.00
H1271  H     0.43609   0.95245   0.56931   0.00000  Uiso   1.00
H1272  H     0.48970   0.97135   0.57009   0.00000  Uiso   1.00
C1273  C     0.53615   0.70731   0.95135   0.00000  Uiso   1.00
H1274  H     0.54379   0.67801   0.97383   0.00000  Uiso   1.00
H1275  H     0.51030   0.69532   0.92991   0.00000  Uiso   1.00
H1276  H     0.56391   0.71422   0.93069   0.00000  Uiso   1.00
C1277  C     0.38070   0.81552   0.66827   0.00000  Uiso   1.00
H1278  H     0.40014   0.78385   0.67260   0.00000  Uiso   1.00
H1279  H     0.36218   0.80978   0.63798   0.00000  Uiso   1.00
H1280  H     0.40115   0.84606   0.66189   0.00000  Uiso   1.00
C1281  C     0.61930   0.85115   0.83173   0.00000  Uiso   1.00
H1282  H     0.59985   0.88282   0.82740   0.00000  Uiso   1.00
H1283  H     0.59885   0.82061   0.83811   0.00000  Uiso   1.00
H1284  H     0.63782   0.85689   0.86202   0.00000  Uiso   1.00
C1285  C     0.62210   0.81573   0.66654   0.00000  Uiso   1.00
H1286  H     0.58804   0.81706   0.66967   0.00000  Uiso   1.00
H1287  H     0.63072   0.84283   0.64199   0.00000  Uiso   1.00
H1288  H     0.62991   0.78040   0.65342   0.00000  Uiso   1.00
C1289  C     0.37790   0.85093   0.83346   0.00000  Uiso   1.00
H1290  H     0.41196   0.84960   0.83034   0.00000  Uiso   1.00
H1291  H     0.37010   0.88626   0.84658   0.00000  Uiso   1.00
H1292  H     0.36927   0.82383   0.85801   0.00000  Uiso   1.00
O1293  O     0.77321   0.87291   0.74999   0.00000  Uiso   1.00
O1294  O     0.89345   0.79375   0.75000   0.00000  Uiso   1.00
O1295  O     0.89345   0.87291   0.75000   0.00000  Uiso   1.00
O1296  O     0.77321   0.79375   0.74999   0.00000  Uiso   1.00
C1297  C     0.75420   0.83330   0.75021   0.00000  Uiso   1.00
C1298  C     0.91246   0.83337   0.74979   0.00000  Uiso   1.00
O1299  O     0.83332   0.87293   0.68513   0.00000  Uiso   1.00
O1300  O     0.83334   0.79373   0.81487   0.00000  Uiso   1.00
O1301  O     0.83334   0.87293   0.81487   0.00000  Uiso   1.00
O1302  O     0.83332   0.79373   0.68513   0.00000  Uiso   1.00
C1303  C     0.83348   0.83314   0.66431   0.00000  Uiso   1.00
C1304  C     0.83319   0.83353   0.83569   0.00000  Uiso   1.00
Cu1305 Cu    0.83333   0.88022   0.75000   0.00000  Uiso   1.00
Cu1306 Cu    0.83333   0.78645   0.75000   0.00000  Uiso   1.00
C1307  C     0.84477   0.79366   0.90664   0.00000  Uiso   1.00
C1308  C     0.82190   0.87301   0.59335   0.00000  Uiso   1.00
C1309  C     0.83288   0.83395   0.88408   0.00000  Uiso   1.00
C1310  C     0.83379   0.83272   0.61592   0.00000  Uiso   1.00
C1311  C     0.82081   0.87414   0.90760   0.00000  Uiso   1.00
C1312  C     0.84586   0.79253   0.59240   0.00000  Uiso   1.00
C1313  C     0.82103   0.87430   0.95397   0.00000  Uiso   1.00
C1314  C     0.84564   0.79237   0.54603   0.00000  Uiso   1.00
C1315  C     0.83323   0.83337   0.97674   0.00000  Uiso   1.00
C1316  C     0.83344   0.83329   0.52326   0.00000  Uiso   1.00
C1317  C     0.84509   0.79253   0.95294   0.00000  Uiso   1.00
C1318  C     0.82158   0.87413   0.54706   0.00000  Uiso   1.00
C1319  C     0.80924   0.91464   0.97781   0.00000  Uiso   1.00
C1320  C     0.85742   0.75203   0.52219   0.00000  Uiso   1.00
C1321  C     0.80960   0.91507   0.52417   0.00000  Uiso   1.00
C1322  C     0.85707   0.75160   0.97583   0.00000  Uiso   1.00
H1323  H     0.85418   0.76333   0.88753   0.00000  Uiso   1.00
H1324  H     0.81248   0.90334   0.61247   0.00000  Uiso   1.00
C1325  C     0.68876   0.82438   0.71010   0.00000  Uiso   1.00
C1326  C     0.97791   0.84229   0.78990   0.00000  Uiso   1.00
C1327  C     0.97856   0.82451   0.70962   0.00000  Uiso   1.00
C1328  C     0.68811   0.84215   0.79038   0.00000  Uiso   1.00
C1329  C     0.95713   0.83344   0.74961   0.00000  Uiso   1.00
C1330  C     0.70953   0.83323   0.75038   0.00000  Uiso   1.00
C1331  C     0.80880   0.69124   0.72135   0.00000  Uiso   1.00
C1332  C     0.85787   0.97543   0.77865   0.00000  Uiso   1.00
C1333  C     0.85787   0.69172   0.77865   0.00000  Uiso   1.00
C1334  C     0.80879   0.97495   0.72135   0.00000  Uiso   1.00
H1335  H     0.78914   0.70976   0.69841   0.00000  Uiso   1.00
H1336  H     0.87753   0.95691   0.80159   0.00000  Uiso   1.00
H1337  H     0.87754   0.71061   0.80159   0.00000  Uiso   1.00
H1338  H     0.78913   0.95605   0.69841   0.00000  Uiso   1.00
N1339  N     0.83333   0.95069   0.75000   0.00000  Uiso   1.00
N1340  N     0.83333   0.71598   0.75000   0.00000  Uiso   1.00
F1341  F     0.80821   0.91272   0.88519   0.00000  Uiso   1.00
F1342  F     0.85846   0.75394   0.61481   0.00000  Uiso   1.00
F1343  F     0.79720   0.95381   0.95599   0.00000  Uiso   1.00
F1344  F     0.86947   0.71286   0.54401   0.00000  Uiso   1.00
C1345  C     0.79718   0.95935   0.54865   0.00000  Uiso   1.00
H1346  H     0.78954   0.98866   0.52617   0.00000  Uiso   1.00
H1347  H     0.76943   0.95245   0.56931   0.00000  Uiso   1.00
H1348  H     0.82304   0.97135   0.57009   0.00000  Uiso   1.00
C1349  C     0.86948   0.70731   0.95135   0.00000  Uiso   1.00
H1350  H     0.87713   0.67801   0.97383   0.00000  Uiso   1.00
H1351  H     0.84363   0.69532   0.92991   0.00000  Uiso   1.00
H1352  H     0.89724   0.71422   0.93069   0.00000  Uiso   1.00
C1353  C     0.71403   0.81552   0.66827   0.00000  Uiso   1.00
H1354  H     0.73348   0.78385   0.67260   0.00000  Uiso   1.00
H1355  H     0.69552   0.80978   0.63798   0.00000  Uiso   1.00
H1356  H     0.73449   0.84606   0.66189   0.00000  Uiso   1.00
C1357  C     0.95263   0.85115   0.83173   0.00000  Uiso   1.00
H1358  H     0.93319   0.88282   0.82740   0.00000  Uiso   1.00
H1359  H     0.93218   0.82061   0.83811   0.00000  Uiso   1.00
H1360  H     0.97115   0.85689   0.86202   0.00000  Uiso   1.00
C1361  C     0.95544   0.81573   0.66654   0.00000  Uiso   1.00
H1362  H     0.92137   0.81706   0.66967   0.00000  Uiso   1.00
H1363  H     0.96406   0.84283   0.64199   0.00000  Uiso   1.00
H1364  H     0.96324   0.78040   0.65342   0.00000  Uiso   1.00
C1365  C     0.71123   0.85093   0.83346   0.00000  Uiso   1.00
H1366  H     0.74529   0.84960   0.83034   0.00000  Uiso   1.00
H1367  H     0.70343   0.88626   0.84658   0.00000  Uiso   1.00
H1368  H     0.70261   0.82383   0.85801   0.00000  Uiso   1.00
loop_
_geom_bond_atom_site_label_1
_geom_bond_atom_site_label_2
_geom_bond_distance
_geom_bond_site_symmetry_2
_ccdc_geom_bond_type
O1     C5      1.286   .     A
O1     Cu13    1.954   .     S
O2     C6      1.286   .     A
O2     Cu14    1.954   .     S
O3     C6      1.286   .     A
O3     Cu13    1.954   .     S
O4     C5      1.286   .     A
O4     Cu14    1.954   .     S
C5     C38     1.443   .     S
C6     C37     1.443   .     S
O7     C11     1.295   .     A
O7     Cu13    1.970   .     S
O8     C12     1.295   .     A
O8     Cu14    1.970   .     S
O9     Cu13    1.973   .     S
O9     C12     1.292   .     A
O10    Cu14    1.973   .     S
O10    C11     1.292   .     A
C11    C18     1.462   .     S
C12    C17     1.462   .     S
Cu13   N47     2.012   .     S
Cu13   Cu14    2.677   .     S
Cu14   N48     2.012   .     S
C15    C25     1.400   .     A
C15    C17     1.395   .     A
C15    H31     1.081   .     S
C16    C26     1.400   .     A
C16    C18     1.395   .     A
C16    H32     1.081   .     S
C17    C19     1.401   .     A
C18    C20     1.401   .     A
C19    C21     1.401   .     A
C19    F49     1.360   .     S
C20    F50     1.360   .     S
C20    C22     1.401   .     A
C21    C27     1.407   .     A
C21    C23     1.417   .     A
C22    C28     1.407   .     A
C22    C24     1.417   .     A
C23    C25     1.419   .     A
C23    C708    1.405   .     S
C24    C26     1.419   .     A
C24    C707    1.405   1_554 S
C25    C30     1.417   .     A
C26    C29     1.417   .     A
C27    F51     1.360   .     S
C27    C713    1.401   .     S
C28    F52     1.360   .     S
C28    C714    1.401   1_554 S
C29    C53     1.515   .     S
C29    C711    1.401   1_554 S
C30    C57     1.515   .     S
C30    C712    1.401   .     S
C33    C38     1.412   .     A
C33    C61     1.524   .     S
C33    C187    1.407   1_455 S
C34    C37     1.412   .     A
C34    C65     1.524   .     S
C34    C112    1.407   .     S
C35    C37     1.414   .     A
C35    C69     1.521   .     S
C35    C109    1.407   .     S
C36    C73     1.521   .     S
C36    C38     1.414   .     A
C36    C186    1.407   1_455 S
C39    H43     1.082   .     S
C39    N48     1.367   .     A
C39    C498    1.416   1_545 S
C40    N47     1.367   .     A
C40    H44     1.082   .     S
C40    C269    1.416   .     S
C41    N48     1.367   .     A
C41    H45     1.082   .     S
C41    C496    1.416   1_545 S
C42    H46     1.082   .     S
C42    N47     1.367   .     A
C42    C267    1.416   .     S
C53    H54     1.109   .     S
C53    H55     1.110   .     S
C53    H56     1.110   .     S
C57    H60     1.110   .     S
C57    H58     1.109   .     S
C57    H59     1.110   .     S
C61    H63     1.105   .     S
C61    H62     1.110   .     S
C61    H64     1.111   .     S
C65    H67     1.111   .     S
C65    H68     1.105   .     S
C65    H66     1.110   .     S
C69    H71     1.110   .     S
C69    H72     1.111   .     S
C69    H70     1.105   .     S
C73    H74     1.105   .     S
C73    H75     1.111   .     S
C73    H76     1.110   .     S
O77    C81     1.286   .     A
O77    Cu89    1.954   .     S
O78    C82     1.286   .     A
O78    Cu90    1.954   .     S
O79    C82     1.286   .     A
O79    Cu89    1.954   .     S
O80    C81     1.286   .     A
O80    Cu90    1.954   .     S
C81    C114    1.443   .     S
C82    C113    1.443   .     S
O83    C87     1.295   .     A
O83    Cu89    1.970   .     S
O84    C88     1.295   .     A
O84    Cu90    1.970   .     S
O85    Cu89    1.973   .     S
O85    C88     1.292   .     A
O86    Cu90    1.973   .     S
O86    C87     1.292   .     A
C87    C94     1.462   .     S
C88    C93     1.462   .     S
Cu89   N123    2.012   .     S
Cu89   Cu90    2.677   .     S
Cu90   N124    2.012   .     S
C91    C101    1.400   .     A
C91    C93     1.395   .     A
C91    H107    1.081   .     S
C92    C102    1.400   .     A
C92    C94     1.395   .     A
C92    H108    1.081   .     S
C93    C95     1.401   .     A
C94    C96     1.401   .     A
C95    C97     1.401   .     A
C95    F125    1.360   .     S
C96    F126    1.360   .     S
C96    C98     1.401   .     A
C97    C103    1.407   .     A
C97    C99     1.417   .     A
C98    C104    1.407   .     A
C98    C100    1.417   .     A
C99    C101    1.419   .     A
C99    C784    1.405   .     S
C100   C102    1.419   .     A
C100   C783    1.405   1_554 S
C101   C106    1.417   .     A
C102   C105    1.417   .     A
C103   F127    1.360   .     S
C103   C789    1.401   .     S
C104   F128    1.360   .     S
C104   C790    1.401   1_554 S
C105   C129    1.515   .     S
C105   C787    1.401   1_554 S
C106   C133    1.515   .     S
C106   C788    1.401   .     S
C109   C114    1.412   .     A
C109   C137    1.524   .     S
C110   C113    1.412   .     A
C110   C141    1.524   .     S
C110   C188    1.407   .     S
C111   C113    1.414   .     A
C111   C145    1.521   .     S
C111   C185    1.407   .     S
C112   C149    1.521   .     S
C112   C114    1.414   .     A
C115   H119    1.082   .     S
C115   N124    1.367   .     A
C115   C574    1.416   1_545 S
C116   N123    1.367   .     A
C116   H120    1.082   .     S
C116   C345    1.416   .     S
C117   N124    1.367   .     A
C117   H121    1.082   .     S
C117   C572    1.416   1_545 S
C118   H122    1.082   .     S
C118   N123    1.367   .     A
C118   C343    1.416   .     S
C129   H130    1.109   .     S
C129   H131    1.110   .     S
C129   H132    1.110   .     S
C133   H136    1.110   .     S
C133   H134    1.109   .     S
C133   H135    1.110   .     S
C137   H139    1.105   .     S
C137   H138    1.110   .     S
C137   H140    1.111   .     S
C141   H143    1.111   .     S
C141   H144    1.105   .     S
C141   H142    1.110   .     S
C145   H147    1.110   .     S
C145   H148    1.111   .     S
C145   H146    1.105   .     S
C149   H150    1.105   .     S
C149   H151    1.111   .     S
C149   H152    1.110   .     S
O153   C157    1.286   .     A
O153   Cu165   1.954   .     S
O154   C158    1.286   .     A
O154   Cu166   1.954   .     S
O155   C158    1.286   .     A
O155   Cu165   1.954   .     S
O156   C157    1.286   .     A
O156   Cu166   1.954   .     S
C157   C190    1.443   .     S
C158   C189    1.443   .     S
O159   C163    1.295   .     A
O159   Cu165   1.970   .     S
O160   C164    1.295   .     A
O160   Cu166   1.970   .     S
O161   Cu165   1.973   .     S
O161   C164    1.292   .     A
O162   Cu166   1.973   .     S
O162   C163    1.292   .     A
C163   C170    1.462   .     S
C164   C169    1.462   .     S
Cu165  N199    2.012   .     S
Cu165  Cu166   2.677   .     S
Cu166  N200    2.012   .     S
C167   C177    1.400   .     A
C167   C169    1.395   .     A
C167   H183    1.081   .     S
C168   C178    1.400   .     A
C168   C170    1.395   .     A
C168   H184    1.081   .     S
C169   C171    1.401   .     A
C170   C172    1.401   .     A
C171   C173    1.401   .     A
C171   F201    1.360   .     S
C172   F202    1.360   .     S
C172   C174    1.401   .     A
C173   C179    1.407   .     A
C173   C175    1.417   .     A
C174   C180    1.407   .     A
C174   C176    1.417   .     A
C175   C177    1.419   .     A
C175   C860    1.405   .     S
C176   C178    1.419   .     A
C176   C859    1.405   1_554 S
C177   C182    1.417   .     A
C178   C181    1.417   .     A
C179   F203    1.360   .     S
C179   C865    1.401   .     S
C180   F204    1.360   .     S
C180   C866    1.401   1_554 S
C181   C205    1.515   .     S
C181   C863    1.401   1_554 S
C182   C209    1.515   .     S
C182   C864    1.401   .     S
C185   C190    1.412   .     A
C185   C213    1.524   .     S
C186   C189    1.412   .     A
C186   C217    1.524   .     S
C186   C36     1.407   1_655 S
C187   C189    1.414   .     A
C187   C221    1.521   .     S
C187   C33     1.407   1_655 S
C188   C225    1.521   .     S
C188   C190    1.414   .     A
C191   H195    1.082   .     S
C191   N200    1.367   .     A
C191   C650    1.416   1_545 S
C192   N199    1.367   .     A
C192   H196    1.082   .     S
C192   C421    1.416   .     S
C193   N200    1.367   .     A
C193   H197    1.082   .     S
C193   C648    1.416   1_545 S
C194   H198    1.082   .     S
C194   N199    1.367   .     A
C194   C419    1.416   .     S
C205   H206    1.109   .     S
C205   H207    1.110   .     S
C205   H208    1.110   .     S
C209   H212    1.110   .     S
C209   H210    1.109   .     S
C209   H211    1.110   .     S
C213   H215    1.105   .     S
C213   H214    1.110   .     S
C213   H216    1.111   .     S
C217   H219    1.111   .     S
C217   H220    1.105   .     S
C217   H218    1.110   .     S
C221   H223    1.110   .     S
C221   H224    1.111   .     S
C221   H222    1.105   .     S
C225   H226    1.105   .     S
C225   H227    1.111   .     S
C225   H228    1.110   .     S
O229   C233    1.286   .     A
O229   Cu241   1.954   .     S
O230   C234    1.286   .     A
O230   Cu242   1.954   .     S
O231   C234    1.286   .     A
O231   Cu241   1.954   .     S
O232   C233    1.286   .     A
O232   Cu242   1.954   .     S
C233   C266    1.443   .     S
C234   C265    1.443   .     S
O235   C239    1.295   .     A
O235   Cu241   1.970   .     S
O236   C240    1.295   .     A
O236   Cu242   1.970   .     S
O237   Cu241   1.973   .     S
O237   C240    1.292   .     A
O238   Cu242   1.973   .     S
O238   C239    1.292   .     A
C239   C246    1.462   .     S
C240   C245    1.462   .     S
Cu241  N275    2.012   .     S
Cu241  Cu242   2.677   .     S
Cu242  N276    2.012   .     S
C243   C253    1.400   .     A
C243   C245    1.395   .     A
C243   H259    1.081   .     S
C244   C254    1.400   .     A
C244   C246    1.395   .     A
C244   H260    1.081   .     S
C245   C247    1.401   .     A
C246   C248    1.401   .     A
C247   C249    1.401   .     A
C247   F277    1.360   .     S
C248   F278    1.360   .     S
C248   C250    1.401   .     A
C249   C255    1.407   .     A
C249   C251    1.417   .     A
C250   C256    1.407   .     A
C250   C252    1.417   .     A
C251   C253    1.419   .     A
C251   C936    1.405   .     S
C252   C254    1.419   .     A
C252   C935    1.405   1_554 S
C253   C258    1.417   .     A
C254   C257    1.417   .     A
C255   F279    1.360   .     S
C255   C941    1.401   .     S
C256   F280    1.360   .     S
C256   C942    1.401   1_554 S
C257   C281    1.515   .     S
C257   C939    1.401   1_554 S
C258   C285    1.515   .     S
C258   C940    1.401   .     S
C261   C266    1.412   .     A
C261   C289    1.524   .     S
C261   C415    1.407   1_455 S
C262   C265    1.412   .     A
C262   C293    1.524   .     S
C262   C340    1.407   .     S
C263   C265    1.414   .     A
C263   C297    1.521   .     S
C263   C337    1.407   .     S
C264   C301    1.521   .     S
C264   C266    1.414   .     A
C264   C414    1.407   1_455 S
C267   H271    1.082   .     S
C267   N276    1.367   .     A
C268   N275    1.367   .     A
C268   H272    1.082   .     S
C268   C497    1.416   .     S
C269   N276    1.367   .     A
C269   H273    1.082   .     S
C270   H274    1.082   .     S
C270   N275    1.367   .     A
C270   C495    1.416   .     S
C281   H282    1.109   .     S
C281   H283    1.110   .     S
C281   H284    1.110   .     S
C285   H288    1.110   .     S
C285   H286    1.109   .     S
C285   H287    1.110   .     S
C289   H291    1.105   .     S
C289   H290    1.110   .     S
C289   H292    1.111   .     S
C293   H295    1.111   .     S
C293   H296    1.105   .     S
C293   H294    1.110   .     S
C297   H299    1.110   .     S
C297   H300    1.111   .     S
C297   H298    1.105   .     S
C301   H302    1.105   .     S
C301   H303    1.111   .     S
C301   H304    1.110   .     S
O305   C309    1.286   .     A
O305   Cu317   1.954   .     S
O306   C310    1.286   .     A
O306   Cu318   1.954   .     S
O307   C310    1.286   .     A
O307   Cu317   1.954   .     S
O308   C309    1.286   .     A
O308   Cu318   1.954   .     S
C309   C342    1.443   .     S
C310   C341    1.443   .     S
O311   C315    1.295   .     A
O311   Cu317   1.970   .     S
O312   C316    1.295   .     A
O312   Cu318   1.970   .     S
O313   Cu317   1.973   .     S
O313   C316    1.292   .     A
O314   Cu318   1.973   .     S
O314   C315    1.292   .     A
C315   C322    1.462   .     S
C316   C321    1.462   .     S
Cu317  N351    2.012   .     S
Cu317  Cu318   2.677   .     S
Cu318  N352    2.012   .     S
C319   C329    1.400   .     A
C319   C321    1.395   .     A
C319   H335    1.081   .     S
C320   C330    1.400   .     A
C320   C322    1.395   .     A
C320   H336    1.081   .     S
C321   C323    1.401   .     A
C322   C324    1.401   .     A
C323   C325    1.401   .     A
C323   F353    1.360   .     S
C324   F354    1.360   .     S
C324   C326    1.401   .     A
C325   C331    1.407   .     A
C325   C327    1.417   .     A
C326   C332    1.407   .     A
C326   C328    1.417   .     A
C327   C329    1.419   .     A
C327   C1012   1.405   .     S
C328   C330    1.419   .     A
C328   C1011   1.405   1_554 S
C329   C334    1.417   .     A
C330   C333    1.417   .     A
C331   F355    1.360   .     S
C331   C1017   1.401   .     S
C332   F356    1.360   .     S
C332   C1018   1.401   1_554 S
C333   C357    1.515   .     S
C333   C1015   1.401   1_554 S
C334   C361    1.515   .     S
C334   C1016   1.401   .     S
C337   C342    1.412   .     A
C337   C365    1.524   .     S
C338   C341    1.412   .     A
C338   C369    1.524   .     S
C338   C416    1.407   .     S
C339   C341    1.414   .     A
C339   C373    1.521   .     S
C339   C413    1.407   .     S
C340   C377    1.521   .     S
C340   C342    1.414   .     A
C343   H347    1.082   .     S
C343   N352    1.367   .     A
C344   N351    1.367   .     A
C344   H348    1.082   .     S
C344   C573    1.416   .     S
C345   N352    1.367   .     A
C345   H349    1.082   .     S
C346   H350    1.082   .     S
C346   N351    1.367   .     A
C346   C571    1.416   .     S
C357   H358    1.109   .     S
C357   H359    1.110   .     S
C357   H360    1.110   .     S
C361   H364    1.110   .     S
C361   H362    1.109   .     S
C361   H363    1.110   .     S
C365   H367    1.105   .     S
C365   H366    1.110   .     S
C365   H368    1.111   .     S
C369   H371    1.111   .     S
C369   H372    1.105   .     S
C369   H370    1.110   .     S
C373   H375    1.110   .     S
C373   H376    1.111   .     S
C373   H374    1.105   .     S
C377   H378    1.105   .     S
C377   H379    1.111   .     S
C377   H380    1.110   .     S
O381   C385    1.286   .     A
O381   Cu393   1.954   .     S
O382   C386    1.286   .     A
O382   Cu394   1.954   .     S
O383   C386    1.286   .     A
O383   Cu393   1.954   .     S
O384   C385    1.286   .     A
O384   Cu394   1.954   .     S
C385   C418    1.443   .     S
C386   C417    1.443   .     S
O387   C391    1.295   .     A
O387   Cu393   1.970   .     S
O388   C392    1.295   .     A
O388   Cu394   1.970   .     S
O389   Cu393   1.973   .     S
O389   C392    1.292   .     A
O390   Cu394   1.973   .     S
O390   C391    1.292   .     A
C391   C398    1.462   .     S
C392   C397    1.462   .     S
Cu393  N427    2.012   .     S
Cu393  Cu394   2.677   .     S
Cu394  N428    2.012   .     S
C395   C405    1.400   .     A
C395   C397    1.395   .     A
C395   H411    1.081   .     S
C396   C406    1.400   .     A
C396   C398    1.395   .     A
C396   H412    1.081   .     S
C397   C399    1.401   .     A
C398   C400    1.401   .     A
C399   C401    1.401   .     A
C399   F429    1.360   .     S
C400   F430    1.360   .     S
C400   C402    1.401   .     A
C401   C407    1.407   .     A
C401   C403    1.417   .     A
C402   C408    1.407   .     A
C402   C404    1.417   .     A
C403   C405    1.419   .     A
C403   C1088   1.405   .     S
C404   C406    1.419   .     A
C404   C1087   1.405   1_554 S
C405   C410    1.417   .     A
C406   C409    1.417   .     A
C407   F431    1.360   .     S
C407   C1093   1.401   .     S
C408   F432    1.360   .     S
C408   C1094   1.401   1_554 S
C409   C433    1.515   .     S
C409   C1091   1.401   1_554 S
C410   C437    1.515   .     S
C410   C1092   1.401   .     S
C413   C418    1.412   .     A
C413   C441    1.524   .     S
C414   C417    1.412   .     A
C414   C445    1.524   .     S
C414   C264    1.407   1_655 S
C415   C417    1.414   .     A
C415   C449    1.521   .     S
C415   C261    1.407   1_655 S
C416   C453    1.521   .     S
C416   C418    1.414   .     A
C419   H423    1.082   .     S
C419   N428    1.367   .     A
C420   N427    1.367   .     A
C420   H424    1.082   .     S
C420   C649    1.416   .     S
C421   N428    1.367   .     A
C421   H425    1.082   .     S
C422   H426    1.082   .     S
C422   N427    1.367   .     A
C422   C647    1.416   .     S
C433   H434    1.109   .     S
C433   H435    1.110   .     S
C433   H436    1.110   .     S
C437   H440    1.110   .     S
C437   H438    1.109   .     S
C437   H439    1.110   .     S
C441   H443    1.105   .     S
C441   H442    1.110   .     S
C441   H444    1.111   .     S
C445   H447    1.111   .     S
C445   H448    1.105   .     S
C445   H446    1.110   .     S
C449   H451    1.110   .     S
C449   H452    1.111   .     S
C449   H450    1.105   .     S
C453   H454    1.105   .     S
C453   H455    1.111   .     S
C453   H456    1.110   .     S
O457   C461    1.286   .     A
O457   Cu469   1.954   .     S
O458   C462    1.286   .     A
O458   Cu470   1.954   .     S
O459   C462    1.286   .     A
O459   Cu469   1.954   .     S
O460   C461    1.286   .     A
O460   Cu470   1.954   .     S
C461   C494    1.443   .     S
C462   C493    1.443   .     S
O463   C467    1.295   .     A
O463   Cu469   1.970   .     S
O464   C468    1.295   .     A
O464   Cu470   1.970   .     S
O465   Cu469   1.973   .     S
O465   C468    1.292   .     A
O466   Cu470   1.973   .     S
O466   C467    1.292   .     A
C467   C474    1.462   .     S
C468   C473    1.462   .     S
Cu469  N503    2.012   .     S
Cu469  Cu470   2.677   .     S
Cu470  N504    2.012   .     S
C471   C481    1.400   .     A
C471   C473    1.395   .     A
C471   H487    1.081   .     S
C472   C482    1.400   .     A
C472   C474    1.395   .     A
C472   H488    1.081   .     S
C473   C475    1.401   .     A
C474   C476    1.401   .     A
C475   C477    1.401   .     A
C475   F505    1.360   .     S
C476   F506    1.360   .     S
C476   C478    1.401   .     A
C477   C483    1.407   .     A
C477   C479    1.417   .     A
C478   C484    1.407   .     A
C478   C480    1.417   .     A
C479   C481    1.419   .     A
C479   C1164   1.405   .     S
C480   C482    1.419   .     A
C480   C1163   1.405   1_554 S
C481   C486    1.417   .     A
C482   C485    1.417   .     A
C483   F507    1.360   .     S
C483   C1169   1.401   .     S
C484   F508    1.360   .     S
C484   C1170   1.401   1_554 S
C485   C509    1.515   .     S
C485   C1167   1.401   1_554 S
C486   C513    1.515   .     S
C486   C1168   1.401   .     S
C489   C494    1.412   .     A
C489   C517    1.524   .     S
C489   C643    1.407   1_455 S
C490   C493    1.412   .     A
C490   C521    1.524   .     S
C490   C568    1.407   .     S
C491   C493    1.414   .     A
C491   C525    1.521   .     S
C491   C565    1.407   .     S
C492   C529    1.521   .     S
C492   C494    1.414   .     A
C492   C642    1.407   1_455 S
C495   H499    1.082   .     S
C495   N504    1.367   .     A
C496   N503    1.367   .     A
C496   H500    1.082   .     S
C496   C41     1.416   1_565 S
C497   N504    1.367   .     A
C497   H501    1.082   .     S
C498   H502    1.082   .     S
C498   N503    1.367   .     A
C498   C39     1.416   1_565 S
C509   H510    1.109   .     S
C509   H511    1.110   .     S
C509   H512    1.110   .     S
C513   H516    1.110   .     S
C513   H514    1.109   .     S
C513   H515    1.110   .     S
C517   H519    1.105   .     S
C517   H518    1.110   .     S
C517   H520    1.111   .     S
C521   H523    1.111   .     S
C521   H524    1.105   .     S
C521   H522    1.110   .     S
C525   H527    1.110   .     S
C525   H528    1.111   .     S
C525   H526    1.105   .     S
C529   H530    1.105   .     S
C529   H531    1.111   .     S
C529   H532    1.110   .     S
O533   C537    1.286   .     A
O533   Cu545   1.954   .     S
O534   C538    1.286   .     A
O534   Cu546   1.954   .     S
O535   C538    1.286   .     A
O535   Cu545   1.954   .     S
O536   C537    1.286   .     A
O536   Cu546   1.954   .     S
C537   C570    1.443   .     S
C538   C569    1.443   .     S
O539   C543    1.295   .     A
O539   Cu545   1.970   .     S
O540   C544    1.295   .     A
O540   Cu546   1.970   .     S
O541   Cu545   1.973   .     S
O541   C544    1.292   .     A
O542   Cu546   1.973   .     S
O542   C543    1.292   .     A
C543   C550    1.462   .     S
C544   C549    1.462   .     S
Cu545  N579    2.012   .     S
Cu545  Cu546   2.677   .     S
Cu546  N580    2.012   .     S
C547   C557    1.400   .     A
C547   C549    1.395   .     A
C547   H563    1.081   .     S
C548   C558    1.400   .     A
C548   C550    1.395   .     A
C548   H564    1.081   .     S
C549   C551    1.401   .     A
C550   C552    1.401   .     A
C551   C553    1.401   .     A
C551   F581    1.360   .     S
C552   F582    1.360   .     S
C552   C554    1.401   .     A
C553   C559    1.407   .     A
C553   C555    1.417   .     A
C554   C560    1.407   .     A
C554   C556    1.417   .     A
C555   C557    1.419   .     A
C555   C1240   1.405   .     S
C556   C558    1.419   .     A
C556   C1239   1.405   1_554 S
C557   C562    1.417   .     A
C558   C561    1.417   .     A
C559   F583    1.360   .     S
C559   C1245   1.401   .     S
C560   F584    1.360   .     S
C560   C1246   1.401   1_554 S
C561   C585    1.515   .     S
C561   C1243   1.401   1_554 S
C562   C589    1.515   .     S
C562   C1244   1.401   .     S
C565   C570    1.412   .     A
C565   C593    1.524   .     S
C566   C569    1.412   .     A
C566   C597    1.524   .     S
C566   C644    1.407   .     S
C567   C569    1.414   .     A
C567   C601    1.521   .     S
C567   C641    1.407   .     S
C568   C605    1.521   .     S
C568   C570    1.414   .     A
C571   H575    1.082   .     S
C571   N580    1.367   .     A
C572   N579    1.367   .     A
C572   H576    1.082   .     S
C572   C117    1.416   1_565 S
C573   N580    1.367   .     A
C573   H577    1.082   .     S
C574   H578    1.082   .     S
C574   N579    1.367   .     A
C574   C115    1.416   1_565 S
C585   H586    1.109   .     S
C585   H587    1.110   .     S
C585   H588    1.110   .     S
C589   H592    1.110   .     S
C589   H590    1.109   .     S
C589   H591    1.110   .     S
C593   H595    1.105   .     S
C593   H594    1.110   .     S
C593   H596    1.111   .     S
C597   H599    1.111   .     S
C597   H600    1.105   .     S
C597   H598    1.110   .     S
C601   H603    1.110   .     S
C601   H604    1.111   .     S
C601   H602    1.105   .     S
C605   H606    1.105   .     S
C605   H607    1.111   .     S
C605   H608    1.110   .     S
O609   C613    1.286   .     A
O609   Cu621   1.954   .     S
O610   C614    1.286   .     A
O610   Cu622   1.954   .     S
O611   C614    1.286   .     A
O611   Cu621   1.954   .     S
O612   C613    1.286   .     A
O612   Cu622   1.954   .     S
C613   C646    1.443   .     S
C614   C645    1.443   .     S
O615   C619    1.295   .     A
O615   Cu621   1.970   .     S
O616   C620    1.295   .     A
O616   Cu622   1.970   .     S
O617   Cu621   1.973   .     S
O617   C620    1.292   .     A
O618   Cu622   1.973   .     S
O618   C619    1.292   .     A
C619   C626    1.462   .     S
C620   C625    1.462   .     S
Cu621  N655    2.012   .     S
Cu621  Cu622   2.677   .     S
Cu622  N656    2.012   .     S
C623   C633    1.400   .     A
C623   C625    1.395   .     A
C623   H639    1.081   .     S
C624   C634    1.400   .     A
C624   C626    1.395   .     A
C624   H640    1.081   .     S
C625   C627    1.401   .     A
C626   C628    1.401   .     A
C627   C629    1.401   .     A
C627   F657    1.360   .     S
C628   F658    1.360   .     S
C628   C630    1.401   .     A
C629   C635    1.407   .     A
C629   C631    1.417   .     A
C630   C636    1.407   .     A
C630   C632    1.417   .     A
C631   C633    1.419   .     A
C631   C1316   1.405   .     S
C632   C634    1.419   .     A
C632   C1315   1.405   1_554 S
C633   C638    1.417   .     A
C634   C637    1.417   .     A
C635   F659    1.360   .     S
C635   C1321   1.401   .     S
C636   F660    1.360   .     S
C636   C1322   1.401   1_554 S
C637   C661    1.515   .     S
C637   C1319   1.401   1_554 S
C638   C665    1.515   .     S
C638   C1320   1.401   .     S
C641   C646    1.412   .     A
C641   C669    1.524   .     S
C642   C645    1.412   .     A
C642   C673    1.524   .     S
C642   C492    1.407   1_655 S
C643   C645    1.414   .     A
C643   C677    1.521   .     S
C643   C489    1.407   1_655 S
C644   C681    1.521   .     S
C644   C646    1.414   .     A
C647   H651    1.082   .     S
C647   N656    1.367   .     A
C648   N655    1.367   .     A
C648   H652    1.082   .     S
C648   C193    1.416   1_565 S
C649   N656    1.367   .     A
C649   H653    1.082   .     S
C650   H654    1.082   .     S
C650   N655    1.367   .     A
C650   C191    1.416   1_565 S
C661   H662    1.109   .     S
C661   H663    1.110   .     S
C661   H664    1.110   .     S
C665   H668    1.110   .     S
C665   H666    1.109   .     S
C665   H667    1.110   .     S
C669   H671    1.105   .     S
C669   H670    1.110   .     S
C669   H672    1.111   .     S
C673   H675    1.111   .     S
C673   H676    1.105   .     S
C673   H674    1.110   .     S
C677   H679    1.110   .     S
C677   H680    1.111   .     S
C677   H678    1.105   .     S
C681   H682    1.105   .     S
C681   H683    1.111   .     S
C681   H684    1.110   .     S
O685   C689    1.286   .     A
O685   Cu697   1.954   .     S
O686   C690    1.286   .     A
O686   Cu698   1.954   .     S
O687   C690    1.286   .     A
O687   Cu697   1.954   .     S
O688   C689    1.286   .     A
O688   Cu698   1.954   .     S
C689   C722    1.443   .     S
C690   C721    1.443   .     S
O691   C695    1.295   .     A
O691   Cu697   1.970   .     S
O692   C696    1.295   .     A
O692   Cu698   1.970   .     S
O693   Cu697   1.973   .     S
O693   C696    1.292   .     A
O694   Cu698   1.973   .     S
O694   C695    1.292   .     A
C695   C702    1.462   .     S
C696   C701    1.462   .     S
Cu697  N731    2.012   .     S
Cu697  Cu698   2.677   .     S
Cu698  N732    2.012   .     S
C699   C709    1.400   .     A
C699   C701    1.395   .     A
C699   H715    1.081   .     S
C700   C710    1.400   .     A
C700   C702    1.395   .     A
C700   H716    1.081   .     S
C701   C703    1.401   .     A
C702   C704    1.401   .     A
C703   C705    1.401   .     A
C703   F733    1.360   .     S
C704   F734    1.360   .     S
C704   C706    1.401   .     A
C705   C711    1.407   .     A
C705   C707    1.417   .     A
C706   C712    1.407   .     A
C706   C708    1.417   .     A
C707   C709    1.419   .     A
C707   C24     1.405   1_556 S
C708   C710    1.419   .     A
C709   C714    1.417   .     A
C710   C713    1.417   .     A
C711   F735    1.360   .     S
C711   C29     1.401   1_556 S
C712   F736    1.360   .     S
C713   C737    1.515   .     S
C714   C741    1.515   .     S
C714   C28     1.401   1_556 S
C717   C722    1.412   .     A
C717   C745    1.524   .     S
C717   C871    1.407   1_455 S
C718   C721    1.412   .     A
C718   C749    1.524   .     S
C718   C796    1.407   .     S
C719   C721    1.414   .     A
C719   C753    1.521   .     S
C719   C793    1.407   .     S
C720   C757    1.521   .     S
C720   C722    1.414   .     A
C720   C870    1.407   1_455 S
C723   H727    1.082   .     S
C723   N732    1.367   .     A
C723   C1182   1.416   1_545 S
C724   N731    1.367   .     A
C724   H728    1.082   .     S
C724   C953    1.416   .     S
C725   N732    1.367   .     A
C725   H729    1.082   .     S
C725   C1180   1.416   1_545 S
C726   H730    1.082   .     S
C726   N731    1.367   .     A
C726   C951    1.416   .     S
C737   H738    1.109   .     S
C737   H739    1.110   .     S
C737   H740    1.110   .     S
C741   H744    1.110   .     S
C741   H742    1.109   .     S
C741   H743    1.110   .     S
C745   H747    1.105   .     S
C745   H746    1.110   .     S
C745   H748    1.111   .     S
C749   H751    1.111   .     S
C749   H752    1.105   .     S
C749   H750    1.110   .     S
C753   H755    1.110   .     S
C753   H756    1.111   .     S
C753   H754    1.105   .     S
C757   H758    1.105   .     S
C757   H759    1.111   .     S
C757   H760    1.110   .     S
O761   C765    1.286   .     A
O761   Cu773   1.954   .     S
O762   C766    1.286   .     A
O762   Cu774   1.954   .     S
O763   C766    1.286   .     A
O763   Cu773   1.954   .     S
O764   C765    1.286   .     A
O764   Cu774   1.954   .     S
C765   C798    1.443   .     S
C766   C797    1.443   .     S
O767   C771    1.295   .     A
O767   Cu773   1.970   .     S
O768   C772    1.295   .     A
O768   Cu774   1.970   .     S
O769   Cu773   1.973   .     S
O769   C772    1.292   .     A
O770   Cu774   1.973   .     S
O770   C771    1.292   .     A
C771   C778    1.462   .     S
C772   C777    1.462   .     S
Cu773  N807    2.012   .     S
Cu773  Cu774   2.677   .     S
Cu774  N808    2.012   .     S
C775   C785    1.400   .     A
C775   C777    1.395   .     A
C775   H791    1.081   .     S
C776   C786    1.400   .     A
C776   C778    1.395   .     A
C776   H792    1.081   .     S
C777   C779    1.401   .     A
C778   C780    1.401   .     A
C779   C781    1.401   .     A
C779   F809    1.360   .     S
C780   F810    1.360   .     S
C780   C782    1.401   .     A
C781   C787    1.407   .     A
C781   C783    1.417   .     A
C782   C788    1.407   .     A
C782   C784    1.417   .     A
C783   C785    1.419   .     A
C783   C100    1.405   1_556 S
C784   C786    1.419   .     A
C785   C790    1.417   .     A
C786   C789    1.417   .     A
C787   F811    1.360   .     S
C787   C105    1.401   1_556 S
C788   F812    1.360   .     S
C789   C813    1.515   .     S
C790   C817    1.515   .     S
C790   C104    1.401   1_556 S
C793   C798    1.412   .     A
C793   C821    1.524   .     S
C794   C797    1.412   .     A
C794   C825    1.524   .     S
C794   C872    1.407   .     S
C795   C797    1.414   .     A
C795   C829    1.521   .     S
C795   C869    1.407   .     S
C796   C833    1.521   .     S
C796   C798    1.414   .     A
C799   H803    1.082   .     S
C799   N808    1.367   .     A
C799   C1258   1.416   1_545 S
C800   N807    1.367   .     A
C800   H804    1.082   .     S
C800   C1029   1.416   .     S
C801   N808    1.367   .     A
C801   H805    1.082   .     S
C801   C1256   1.416   1_545 S
C802   H806    1.082   .     S
C802   N807    1.367   .     A
C802   C1027   1.416   .     S
C813   H814    1.109   .     S
C813   H815    1.110   .     S
C813   H816    1.110   .     S
C817   H820    1.110   .     S
C817   H818    1.109   .     S
C817   H819    1.110   .     S
C821   H823    1.105   .     S
C821   H822    1.110   .     S
C821   H824    1.111   .     S
C825   H827    1.111   .     S
C825   H828    1.105   .     S
C825   H826    1.110   .     S
C829   H831    1.110   .     S
C829   H832    1.111   .     S
C829   H830    1.105   .     S
C833   H834    1.105   .     S
C833   H835    1.111   .     S
C833   H836    1.110   .     S
O837   C841    1.286   .     A
O837   Cu849   1.954   .     S
O838   C842    1.286   .     A
O838   Cu850   1.954   .     S
O839   C842    1.286   .     A
O839   Cu849   1.954   .     S
O840   C841    1.286   .     A
O840   Cu850   1.954   .     S
C841   C874    1.443   .     S
C842   C873    1.443   .     S
O843   C847    1.295   .     A
O843   Cu849   1.970   .     S
O844   C848    1.295   .     A
O844   Cu850   1.970   .     S
O845   Cu849   1.973   .     S
O845   C848    1.292   .     A
O846   Cu850   1.973   .     S
O846   C847    1.292   .     A
C847   C854    1.462   .     S
C848   C853    1.462   .     S
Cu849  N883    2.012   .     S
Cu849  Cu850   2.677   .     S
Cu850  N884    2.012   .     S
C851   C861    1.400   .     A
C851   C853    1.395   .     A
C851   H867    1.081   .     S
C852   C862    1.400   .     A
C852   C854    1.395   .     A
C852   H868    1.081   .     S
C853   C855    1.401   .     A
C854   C856    1.401   .     A
C855   C857    1.401   .     A
C855   F885    1.360   .     S
C856   F886    1.360   .     S
C856   C858    1.401   .     A
C857   C863    1.407   .     A
C857   C859    1.417   .     A
C858   C864    1.407   .     A
C858   C860    1.417   .     A
C859   C861    1.419   .     A
C859   C176    1.405   1_556 S
C860   C862    1.419   .     A
C861   C866    1.417   .     A
C862   C865    1.417   .     A
C863   F887    1.360   .     S
C863   C181    1.401   1_556 S
C864   F888    1.360   .     S
C865   C889    1.515   .     S
C866   C893    1.515   .     S
C866   C180    1.401   1_556 S
C869   C874    1.412   .     A
C869   C897    1.524   .     S
C870   C873    1.412   .     A
C870   C901    1.524   .     S
C870   C720    1.407   1_655 S
C871   C873    1.414   .     A
C871   C905    1.521   .     S
C871   C717    1.407   1_655 S
C872   C909    1.521   .     S
C872   C874    1.414   .     A
C875   H879    1.082   .     S
C875   N884    1.367   .     A
C875   C1334   1.416   1_545 S
C876   N883    1.367   .     A
C876   H880    1.082   .     S
C876   C1105   1.416   .     S
C877   N884    1.367   .     A
C877   H881    1.082   .     S
C877   C1332   1.416   1_545 S
C878   H882    1.082   .     S
C878   N883    1.367   .     A
C878   C1103   1.416   .     S
C889   H890    1.109   .     S
C889   H891    1.110   .     S
C889   H892    1.110   .     S
C893   H896    1.110   .     S
C893   H894    1.109   .     S
C893   H895    1.110   .     S
C897   H899    1.105   .     S
C897   H898    1.110   .     S
C897   H900    1.111   .     S
C901   H903    1.111   .     S
C901   H904    1.105   .     S
C901   H902    1.110   .     S
C905   H907    1.110   .     S
C905   H908    1.111   .     S
C905   H906    1.105   .     S
C909   H910    1.105   .     S
C909   H911    1.111   .     S
C909   H912    1.110   .     S
O913   C917    1.286   .     A
O913   Cu925   1.954   .     S
O914   C918    1.286   .     A
O914   Cu926   1.954   .     S
O915   C918    1.286   .     A
O915   Cu925   1.954   .     S
O916   C917    1.286   .     A
O916   Cu926   1.954   .     S
C917   C950    1.443   .     S
C918   C949    1.443   .     S
O919   C923    1.295   .     A
O919   Cu925   1.970   .     S
O920   C924    1.295   .     A
O920   Cu926   1.970   .     S
O921   Cu925   1.973   .     S
O921   C924    1.292   .     A
O922   Cu926   1.973   .     S
O922   C923    1.292   .     A
C923   C930    1.462   .     S
C924   C929    1.462   .     S
Cu925  N959    2.012   .     S
Cu925  Cu926   2.677   .     S
Cu926  N960    2.012   .     S
C927   C937    1.400   .     A
C927   C929    1.395   .     A
C927   H943    1.081   .     S
C928   C938    1.400   .     A
C928   C930    1.395   .     A
C928   H944    1.081   .     S
C929   C931    1.401   .     A
C930   C932    1.401   .     A
C931   C933    1.401   .     A
C931   F961    1.360   .     S
C932   F962    1.360   .     S
C932   C934    1.401   .     A
C933   C939    1.407   .     A
C933   C935    1.417   .     A
C934   C940    1.407   .     A
C934   C936    1.417   .     A
C935   C937    1.419   .     A
C935   C252    1.405   1_556 S
C936   C938    1.419   .     A
C937   C942    1.417   .     A
C938   C941    1.417   .     A
C939   F963    1.360   .     S
C939   C257    1.401   1_556 S
C940   F964    1.360   .     S
C941   C965    1.515   .     S
C942   C969    1.515   .     S
C942   C256    1.401   1_556 S
C945   C950    1.412   .     A
C945   C973    1.524   .     S
C945   C1099   1.407   1_455 S
C946   C949    1.412   .     A
C946   C977    1.524   .     S
C946   C1024   1.407   .     S
C947   C949    1.414   .     A
C947   C981    1.521   .     S
C947   C1021   1.407   .     S
C948   C985    1.521   .     S
C948   C950    1.414   .     A
C948   C1098   1.407   1_455 S
C951   H955    1.082   .     S
C951   N960    1.367   .     A
C952   N959    1.367   .     A
C952   H956    1.082   .     S
C952   C1181   1.416   .     S
C953   N960    1.367   .     A
C953   H957    1.082   .     S
C954   H958    1.082   .     S
C954   N959    1.367   .     A
C954   C1179   1.416   .     S
C965   H966    1.109   .     S
C965   H967    1.110   .     S
C965   H968    1.110   .     S
C969   H972    1.110   .     S
C969   H970    1.109   .     S
C969   H971    1.110   .     S
C973   H975    1.105   .     S
C973   H974    1.110   .     S
C973   H976    1.111   .     S
C977   H979    1.111   .     S
C977   H980    1.105   .     S
C977   H978    1.110   .     S
C981   H983    1.110   .     S
C981   H984    1.111   .     S
C981   H982    1.105   .     S
C985   H986    1.105   .     S
C985   H987    1.111   .     S
C985   H988    1.110   .     S
O989   C993    1.286   .     A
O989   Cu1001  1.954   .     S
O990   C994    1.286   .     A
O990   Cu1002  1.954   .     S
O991   C994    1.286   .     A
O991   Cu1001  1.954   .     S
O992   C993    1.286   .     A
O992   Cu1002  1.954   .     S
C993   C1026   1.443   .     S
C994   C1025   1.443   .     S
O995   C999    1.295   .     A
O995   Cu1001  1.970   .     S
O996   C1000   1.295   .     A
O996   Cu1002  1.970   .     S
O997   Cu1001  1.973   .     S
O997   C1000   1.292   .     A
O998   Cu1002  1.973   .     S
O998   C999    1.292   .     A
C999   C1006   1.462   .     S
C1000  C1005   1.462   .     S
Cu1001 N1035   2.012   .     S
Cu1001 Cu1002  2.677   .     S
Cu1002 N1036   2.012   .     S
C1003  C1013   1.400   .     A
C1003  C1005   1.395   .     A
C1003  H1019   1.081   .     S
C1004  C1014   1.400   .     A
C1004  C1006   1.395   .     A
C1004  H1020   1.081   .     S
C1005  C1007   1.401   .     A
C1006  C1008   1.401   .     A
C1007  C1009   1.401   .     A
C1007  F1037   1.360   .     S
C1008  F1038   1.360   .     S
C1008  C1010   1.401   .     A
C1009  C1015   1.407   .     A
C1009  C1011   1.417   .     A
C1010  C1016   1.407   .     A
C1010  C1012   1.417   .     A
C1011  C1013   1.419   .     A
C1011  C328    1.405   1_556 S
C1012  C1014   1.419   .     A
C1013  C1018   1.417   .     A
C1014  C1017   1.417   .     A
C1015  F1039   1.360   .     S
C1015  C333    1.401   1_556 S
C1016  F1040   1.360   .     S
C1017  C1041   1.515   .     S
C1018  C1045   1.515   .     S
C1018  C332    1.401   1_556 S
C1021  C1026   1.412   .     A
C1021  C1049   1.524   .     S
C1022  C1025   1.412   .     A
C1022  C1053   1.524   .     S
C1022  C1100   1.407   .     S
C1023  C1025   1.414   .     A
C1023  C1057   1.521   .     S
C1023  C1097   1.407   .     S
C1024  C1061   1.521   .     S
C1024  C1026   1.414   .     A
C1027  H1031   1.082   .     S
C1027  N1036   1.367   .     A
C1028  N1035   1.367   .     A
C1028  H1032   1.082   .     S
C1028  C1257   1.416   .     S
C1029  N1036   1.367   .     A
C1029  H1033   1.082   .     S
C1030  H1034   1.082   .     S
C1030  N1035   1.367   .     A
C1030  C1255   1.416   .     S
C1041  H1042   1.109   .     S
C1041  H1043   1.110   .     S
C1041  H1044   1.110   .     S
C1045  H1048   1.110   .     S
C1045  H1046   1.109   .     S
C1045  H1047   1.110   .     S
C1049  H1051   1.105   .     S
C1049  H1050   1.110   .     S
C1049  H1052   1.111   .     S
C1053  H1055   1.111   .     S
C1053  H1056   1.105   .     S
C1053  H1054   1.110   .     S
C1057  H1059   1.110   .     S
C1057  H1060   1.111   .     S
C1057  H1058   1.105   .     S
C1061  H1062   1.105   .     S
C1061  H1063   1.111   .     S
C1061  H1064   1.110   .     S
O1065  C1069   1.286   .     A
O1065  Cu1077  1.954   .     S
O1066  C1070   1.286   .     A
O1066  Cu1078  1.954   .     S
O1067  C1070   1.286   .     A
O1067  Cu1077  1.954   .     S
O1068  C1069   1.286   .     A
O1068  Cu1078  1.954   .     S
C1069  C1102   1.443   .     S
C1070  C1101   1.443   .     S
O1071  C1075   1.295   .     A
O1071  Cu1077  1.970   .     S
O1072  C1076   1.295   .     A
O1072  Cu1078  1.970   .     S
O1073  Cu1077  1.973   .     S
O1073  C1076   1.292   .     A
O1074  Cu1078  1.973   .     S
O1074  C1075   1.292   .     A
C1075  C1082   1.462   .     S
C1076  C1081   1.462   .     S
Cu1077 N1111   2.012   .     S
Cu1077 Cu1078  2.677   .     S
Cu1078 N1112   2.012   .     S
C1079  C1089   1.400   .     A
C1079  C1081   1.395   .     A
C1079  H1095   1.081   .     S
C1080  C1090   1.400   .     A
C1080  C1082   1.395   .     A
C1080  H1096   1.081   .     S
C1081  C1083   1.401   .     A
C1082  C1084   1.401   .     A
C1083  C1085   1.401   .     A
C1083  F1113   1.360   .     S
C1084  F1114   1.360   .     S
C1084  C1086   1.401   .     A
C1085  C1091   1.407   .     A
C1085  C1087   1.417   .     A
C1086  C1092   1.407   .     A
C1086  C1088   1.417   .     A
C1087  C1089   1.419   .     A
C1087  C404    1.405   1_556 S
C1088  C1090   1.419   .     A
C1089  C1094   1.417   .     A
C1090  C1093   1.417   .     A
C1091  F1115   1.360   .     S
C1091  C409    1.401   1_556 S
C1092  F1116   1.360   .     S
C1093  C1117   1.515   .     S
C1094  C1121   1.515   .     S
C1094  C408    1.401   1_556 S
C1097  C1102   1.412   .     A
C1097  C1125   1.524   .     S
C1098  C1101   1.412   .     A
C1098  C1129   1.524   .     S
C1098  C948    1.407   1_655 S
C1099  C1101   1.414   .     A
C1099  C1133   1.521   .     S
C1099  C945    1.407   1_655 S
C1100  C1137   1.521   .     S
C1100  C1102   1.414   .     A
C1103  H1107   1.082   .     S
C1103  N1112   1.367   .     A
C1104  N1111   1.367   .     A
C1104  H1108   1.082   .     S
C1104  C1333   1.416   .     S
C1105  N1112   1.367   .     A
C1105  H1109   1.082   .     S
C1106  H1110   1.082   .     S
C1106  N1111   1.367   .     A
C1106  C1331   1.416   .     S
C1117  H1118   1.109   .     S
C1117  H1119   1.110   .     S
C1117  H1120   1.110   .     S
C1121  H1124   1.110   .     S
C1121  H1122   1.109   .     S
C1121  H1123   1.110   .     S
C1125  H1127   1.105   .     S
C1125  H1126   1.110   .     S
C1125  H1128   1.111   .     S
C1129  H1131   1.111   .     S
C1129  H1132   1.105   .     S
C1129  H1130   1.110   .     S
C1133  H1135   1.110   .     S
C1133  H1136   1.111   .     S
C1133  H1134   1.105   .     S
C1137  H1138   1.105   .     S
C1137  H1139   1.111   .     S
C1137  H1140   1.110   .     S
O1141  C1145   1.286   .     A
O1141  Cu1153  1.954   .     S
O1142  C1146   1.286   .     A
O1142  Cu1154  1.954   .     S
O1143  C1146   1.286   .     A
O1143  Cu1153  1.954   .     S
O1144  C1145   1.286   .     A
O1144  Cu1154  1.954   .     S
C1145  C1178   1.443   .     S
C1146  C1177   1.443   .     S
O1147  C1151   1.295   .     A
O1147  Cu1153  1.970   .     S
O1148  C1152   1.295   .     A
O1148  Cu1154  1.970   .     S
O1149  Cu1153  1.973   .     S
O1149  C1152   1.292   .     A
O1150  Cu1154  1.973   .     S
O1150  C1151   1.292   .     A
C1151  C1158   1.462   .     S
C1152  C1157   1.462   .     S
Cu1153 N1187   2.012   .     S
Cu1153 Cu1154  2.677   .     S
Cu1154 N1188   2.012   .     S
C1155  C1165   1.400   .     A
C1155  C1157   1.395   .     A
C1155  H1171   1.081   .     S
C1156  C1166   1.400   .     A
C1156  C1158   1.395   .     A
C1156  H1172   1.081   .     S
C1157  C1159   1.401   .     A
C1158  C1160   1.401   .     A
C1159  C1161   1.401   .     A
C1159  F1189   1.360   .     S
C1160  F1190   1.360   .     S
C1160  C1162   1.401   .     A
C1161  C1167   1.407   .     A
C1161  C1163   1.417   .     A
C1162  C1168   1.407   .     A
C1162  C1164   1.417   .     A
C1163  C1165   1.419   .     A
C1163  C480    1.405   1_556 S
C1164  C1166   1.419   .     A
C1165  C1170   1.417   .     A
C1166  C1169   1.417   .     A
C1167  F1191   1.360   .     S
C1167  C485    1.401   1_556 S
C1168  F1192   1.360   .     S
C1169  C1193   1.515   .     S
C1170  C1197   1.515   .     S
C1170  C484    1.401   1_556 S
C1173  C1178   1.412   .     A
C1173  C1201   1.524   .     S
C1173  C1327   1.407   1_455 S
C1174  C1177   1.412   .     A
C1174  C1205   1.524   .     S
C1174  C1252   1.407   .     S
C1175  C1177   1.414   .     A
C1175  C1209   1.521   .     S
C1175  C1249   1.407   .     S
C1176  C1213   1.521   .     S
C1176  C1178   1.414   .     A
C1176  C1326   1.407   1_455 S
C1179  H1183   1.082   .     S
C1179  N1188   1.367   .     A
C1180  N1187   1.367   .     A
C1180  H1184   1.082   .     S
C1180  C725    1.416   1_565 S
C1181  N1188   1.367   .     A
C1181  H1185   1.082   .     S
C1182  H1186   1.082   .     S
C1182  N1187   1.367   .     A
C1182  C723    1.416   1_565 S
C1193  H1194   1.109   .     S
C1193  H1195   1.110   .     S
C1193  H1196   1.110   .     S
C1197  H1200   1.110   .     S
C1197  H1198   1.109   .     S
C1197  H1199   1.110   .     S
C1201  H1203   1.105   .     S
C1201  H1202   1.110   .     S
C1201  H1204   1.111   .     S
C1205  H1207   1.111   .     S
C1205  H1208   1.105   .     S
C1205  H1206   1.110   .     S
C1209  H1211   1.110   .     S
C1209  H1212   1.111   .     S
C1209  H1210   1.105   .     S
C1213  H1214   1.105   .     S
C1213  H1215   1.111   .     S
C1213  H1216   1.110   .     S
O1217  C1221   1.286   .     A
O1217  Cu1229  1.954   .     S
O1218  C1222   1.286   .     A
O1218  Cu1230  1.954   .     S
O1219  C1222   1.286   .     A
O1219  Cu1229  1.954   .     S
O1220  C1221   1.286   .     A
O1220  Cu1230  1.954   .     S
C1221  C1254   1.443   .     S
C1222  C1253   1.443   .     S
O1223  C1227   1.295   .     A
O1223  Cu1229  1.970   .     S
O1224  C1228   1.295   .     A
O1224  Cu1230  1.970   .     S
O1225  Cu1229  1.973   .     S
O1225  C1228   1.292   .     A
O1226  Cu1230  1.973   .     S
O1226  C1227   1.292   .     A
C1227  C1234   1.462   .     S
C1228  C1233   1.462   .     S
Cu1229 N1263   2.012   .     S
Cu1229 Cu1230  2.677   .     S
Cu1230 N1264   2.012   .     S
C1231  C1241   1.400   .     A
C1231  C1233   1.395   .     A
C1231  H1247   1.081   .     S
C1232  C1242   1.400   .     A
C1232  C1234   1.395   .     A
C1232  H1248   1.081   .     S
C1233  C1235   1.401   .     A
C1234  C1236   1.401   .     A
C1235  C1237   1.401   .     A
C1235  F1265   1.360   .     S
C1236  F1266   1.360   .     S
C1236  C1238   1.401   .     A
C1237  C1243   1.407   .     A
C1237  C1239   1.417   .     A
C1238  C1244   1.407   .     A
C1238  C1240   1.417   .     A
C1239  C1241   1.419   .     A
C1239  C556    1.405   1_556 S
C1240  C1242   1.419   .     A
C1241  C1246   1.417   .     A
C1242  C1245   1.417   .     A
C1243  F1267   1.360   .     S
C1243  C561    1.401   1_556 S
C1244  F1268   1.360   .     S
C1245  C1269   1.515   .     S
C1246  C1273   1.515   .     S
C1246  C560    1.401   1_556 S
C1249  C1254   1.412   .     A
C1249  C1277   1.524   .     S
C1250  C1253   1.412   .     A
C1250  C1281   1.524   .     S
C1250  C1328   1.407   .     S
C1251  C1253   1.414   .     A
C1251  C1285   1.521   .     S
C1251  C1325   1.407   .     S
C1252  C1289   1.521   .     S
C1252  C1254   1.414   .     A
C1255  H1259   1.082   .     S
C1255  N1264   1.367   .     A
C1256  N1263   1.367   .     A
C1256  H1260   1.082   .     S
C1256  C801    1.416   1_565 S
C1257  N1264   1.367   .     A
C1257  H1261   1.082   .     S
C1258  H1262   1.082   .     S
C1258  N1263   1.367   .     A
C1258  C799    1.416   1_565 S
C1269  H1270   1.109   .     S
C1269  H1271   1.110   .     S
C1269  H1272   1.110   .     S
C1273  H1276   1.110   .     S
C1273  H1274   1.109   .     S
C1273  H1275   1.110   .     S
C1277  H1279   1.105   .     S
C1277  H1278   1.110   .     S
C1277  H1280   1.111   .     S
C1281  H1283   1.111   .     S
C1281  H1284   1.105   .     S
C1281  H1282   1.110   .     S
C1285  H1287   1.110   .     S
C1285  H1288   1.111   .     S
C1285  H1286   1.105   .     S
C1289  H1290   1.105   .     S
C1289  H1291   1.111   .     S
C1289  H1292   1.110   .     S
O1293  C1297   1.286   .     A
O1293  Cu1305  1.954   .     S
O1294  C1298   1.286   .     A
O1294  Cu1306  1.954   .     S
O1295  C1298   1.286   .     A
O1295  Cu1305  1.954   .     S
O1296  C1297   1.286   .     A
O1296  Cu1306  1.954   .     S
C1297  C1330   1.443   .     S
C1298  C1329   1.443   .     S
O1299  C1303   1.295   .     A
O1299  Cu1305  1.970   .     S
O1300  C1304   1.295   .     A
O1300  Cu1306  1.970   .     S
O1301  Cu1305  1.973   .     S
O1301  C1304   1.292   .     A
O1302  Cu1306  1.973   .     S
O1302  C1303   1.292   .     A
C1303  C1310   1.462   .     S
C1304  C1309   1.462   .     S
Cu1305 N1339   2.012   .     S
Cu1305 Cu1306  2.677   .     S
Cu1306 N1340   2.012   .     S
C1307  C1317   1.400   .     A
C1307  C1309   1.395   .     A
C1307  H1323   1.081   .     S
C1308  C1318   1.400   .     A
C1308  C1310   1.395   .     A
C1308  H1324   1.081   .     S
C1309  C1311   1.401   .     A
C1310  C1312   1.401   .     A
C1311  C1313   1.401   .     A
C1311  F1341   1.360   .     S
C1312  F1342   1.360   .     S
C1312  C1314   1.401   .     A
C1313  C1319   1.407   .     A
C1313  C1315   1.417   .     A
C1314  C1320   1.407   .     A
C1314  C1316   1.417   .     A
C1315  C1317   1.419   .     A
C1315  C632    1.405   1_556 S
C1316  C1318   1.419   .     A
C1317  C1322   1.417   .     A
C1318  C1321   1.417   .     A
C1319  F1343   1.360   .     S
C1319  C637    1.401   1_556 S
C1320  F1344   1.360   .     S
C1321  C1345   1.515   .     S
C1322  C1349   1.515   .     S
C1322  C636    1.401   1_556 S
C1325  C1330   1.412   .     A
C1325  C1353   1.524   .     S
C1326  C1329   1.412   .     A
C1326  C1357   1.524   .     S
C1326  C1176   1.407   1_655 S
C1327  C1329   1.414   .     A
C1327  C1361   1.521   .     S
C1327  C1173   1.407   1_655 S
C1328  C1365   1.521   .     S
C1328  C1330   1.414   .     A
C1331  H1335   1.082   .     S
C1331  N1340   1.367   .     A
C1332  N1339   1.367   .     A
C1332  H1336   1.082   .     S
C1332  C877    1.416   1_565 S
C1333  N1340   1.367   .     A
C1333  H1337   1.082   .     S
C1334  H1338   1.082   .     S
C1334  N1339   1.367   .     A
C1334  C875    1.416   1_565 S
C1345  H1346   1.109   .     S
C1345  H1347   1.110   .     S
C1345  H1348   1.110   .     S
C1349  H1352   1.110   .     S
C1349  H1350   1.109   .     S
C1349  H1351   1.110   .     S
C1353  H1355   1.105   .     S
C1353  H1354   1.110   .     S
C1353  H1356   1.111   .     S
C1357  H1359   1.111   .     S
C1357  H1360   1.105   .     S
C1357  H1358   1.110   .     S
C1361  H1363   1.110   .     S
C1361  H1364   1.111   .     S
C1361  H1362   1.105   .     S
C1365  H1366   1.105   .     S
C1365  H1367   1.111   .     S
C1365  H1368   1.110   .     S
