data_str_m3_o1_o1_pcu_sym.86
_audit_creation_date              2020-01-03
_audit_creation_method            'Materials Studio'
_symmetry_space_group_name_H-M    'P1'
_symmetry_Int_Tables_number       1
_symmetry_cell_setting            triclinic
loop_
_symmetry_equiv_pos_as_xyz
  x,y,z
_cell_length_a                    32.8635
_cell_length_b                    27.5821
_cell_length_c                    30.1682
_cell_angle_alpha                 90.0000
_cell_angle_beta                  90.0000
_cell_angle_gamma                 90.0000
loop_
_atom_site_label
_atom_site_type_symbol
_atom_site_fract_x
_atom_site_fract_y
_atom_site_fract_z
_atom_site_U_iso_or_equiv
_atom_site_adp_type
_atom_site_occupancy
C1     C     0.06031   0.19068   0.16674   0.00000  Uiso   1.00
C2     C     0.43969   0.30932   0.16674   0.00000  Uiso   1.00
C3     C     0.43969   0.19068   0.16659   0.00000  Uiso   1.00
C4     C     0.06031   0.30932   0.16659   0.00000  Uiso   1.00
C5     C     0.31031   0.44068   0.16674   0.00000  Uiso   1.00
C6     C     0.18969   0.05932   0.16674   0.00000  Uiso   1.00
C7     C     0.18969   0.44068   0.16659   0.00000  Uiso   1.00
C8     C     0.31031   0.05932   0.16659   0.00000  Uiso   1.00
C9     C     0.49967   0.29365   0.02426   0.00000  Uiso   1.00
C10    C     0.49967   0.20635   0.30908   0.00000  Uiso   1.00
C11    C     0.00033   0.20635   0.02426   0.00000  Uiso   1.00
C12    C     0.00033   0.29365   0.30908   0.00000  Uiso   1.00
C13    C     0.24967   0.04365   0.02426   0.00000  Uiso   1.00
C14    C     0.24967   0.45635   0.30908   0.00000  Uiso   1.00
C15    C     0.25033   0.45635   0.02426   0.00000  Uiso   1.00
C16    C     0.25033   0.04365   0.30908   0.00000  Uiso   1.00
C17    C     0.39081   0.14125   0.12579   0.00000  Uiso   1.00
C18    C     0.10988   0.35798   0.20649   0.00000  Uiso   1.00
C19    C     0.10919   0.35875   0.12579   0.00000  Uiso   1.00
C20    C     0.39012   0.14202   0.20649   0.00000  Uiso   1.00
C21    C     0.10920   0.14125   0.20754   0.00000  Uiso   1.00
C22    C     0.39012   0.35798   0.12685   0.00000  Uiso   1.00
C23    C     0.39081   0.35875   0.20754   0.00000  Uiso   1.00
C24    C     0.10988   0.14202   0.12685   0.00000  Uiso   1.00
C25    C     0.14081   0.39125   0.12579   0.00000  Uiso   1.00
C26    C     0.35988   0.10798   0.20649   0.00000  Uiso   1.00
C27    C     0.35919   0.10875   0.12579   0.00000  Uiso   1.00
C28    C     0.14012   0.39202   0.20649   0.00000  Uiso   1.00
C29    C     0.35920   0.39125   0.20754   0.00000  Uiso   1.00
C30    C     0.14012   0.10798   0.12685   0.00000  Uiso   1.00
C31    C     0.14081   0.10875   0.20754   0.00000  Uiso   1.00
C32    C     0.35988   0.39202   0.12685   0.00000  Uiso   1.00
C33    C     0.09373   0.34219   0.16626   0.00000  Uiso   1.00
C34    C     0.40627   0.15781   0.16626   0.00000  Uiso   1.00
C35    C     0.40627   0.34219   0.16708   0.00000  Uiso   1.00
C36    C     0.09373   0.15781   0.16708   0.00000  Uiso   1.00
C37    C     0.34373   0.09219   0.16626   0.00000  Uiso   1.00
C38    C     0.15627   0.40781   0.16626   0.00000  Uiso   1.00
C39    C     0.15627   0.09219   0.16708   0.00000  Uiso   1.00
C40    C     0.34373   0.40781   0.16708   0.00000  Uiso   1.00
H41    H     0.40290   0.15335   0.09427   0.00000  Uiso   1.00
H42    H     0.09922   0.34424   0.23790   0.00000  Uiso   1.00
H43    H     0.09710   0.34665   0.09427   0.00000  Uiso   1.00
H44    H     0.40078   0.15576   0.23790   0.00000  Uiso   1.00
H45    H     0.09710   0.15335   0.23906   0.00000  Uiso   1.00
H46    H     0.40078   0.34424   0.09544   0.00000  Uiso   1.00
H47    H     0.40290   0.34666   0.23906   0.00000  Uiso   1.00
H48    H     0.09922   0.15576   0.09544   0.00000  Uiso   1.00
H49    H     0.15290   0.40335   0.09427   0.00000  Uiso   1.00
H50    H     0.34922   0.09424   0.23790   0.00000  Uiso   1.00
H51    H     0.34710   0.09665   0.09427   0.00000  Uiso   1.00
H52    H     0.15078   0.40576   0.23790   0.00000  Uiso   1.00
H53    H     0.34710   0.40335   0.23906   0.00000  Uiso   1.00
H54    H     0.15078   0.09424   0.09544   0.00000  Uiso   1.00
H55    H     0.15290   0.09666   0.23906   0.00000  Uiso   1.00
H56    H     0.34922   0.40576   0.09544   0.00000  Uiso   1.00
N57    N     0.00000   0.25000   0.28573   0.00000  Uiso   1.00
N58    N     0.00000   0.25000   0.04760   0.00000  Uiso   1.00
N59    N     0.25000   0.00000   0.28573   0.00000  Uiso   1.00
N60    N     0.25000   0.00000   0.04760   0.00000  Uiso   1.00
O61    O     0.04581   0.20419   0.20487   0.00000  Uiso   1.00
O62    O     0.45420   0.29581   0.12846   0.00000  Uiso   1.00
O63    O     0.45420   0.29581   0.20487   0.00000  Uiso   1.00
O64    O     0.04581   0.20419   0.12846   0.00000  Uiso   1.00
O65    O     0.45420   0.20419   0.12846   0.00000  Uiso   1.00
O66    O     0.04581   0.29581   0.20487   0.00000  Uiso   1.00
O67    O     0.04581   0.29581   0.12846   0.00000  Uiso   1.00
O68    O     0.45420   0.20419   0.20487   0.00000  Uiso   1.00
O69    O     0.29581   0.45419   0.20487   0.00000  Uiso   1.00
O70    O     0.20420   0.04581   0.12846   0.00000  Uiso   1.00
O71    O     0.20420   0.04581   0.20487   0.00000  Uiso   1.00
O72    O     0.29581   0.45419   0.12846   0.00000  Uiso   1.00
O73    O     0.20420   0.45419   0.12846   0.00000  Uiso   1.00
O74    O     0.29581   0.04581   0.20487   0.00000  Uiso   1.00
O75    O     0.29581   0.04581   0.12846   0.00000  Uiso   1.00
O76    O     0.20420   0.45419   0.20487   0.00000  Uiso   1.00
Zn77   Zn    0.00000   0.25000   0.21771   0.00000  Uiso   1.00
Zn78   Zn    0.00000   0.25000   0.11563   0.00000  Uiso   1.00
Zn79   Zn    0.25000   0.00000   0.21771   0.00000  Uiso   1.00
Zn80   Zn    0.25000   0.00000   0.11563   0.00000  Uiso   1.00
S81    S     0.49481   0.35225   0.05284   0.00000  Uiso   1.00
O82    O     0.02531   0.38762   0.03495   0.00000  Uiso   1.00
O83    O     0.45277   0.37061   0.04283   0.00000  Uiso   1.00
O84    O     0.00034   0.35891   0.10749   0.00000  Uiso   1.00
H85    H     0.49219   0.39277   0.11399   0.00000  Uiso   1.00
S86    S     0.49481   0.14775   0.28050   0.00000  Uiso   1.00
O87    O     0.02531   0.11238   0.29839   0.00000  Uiso   1.00
O88    O     0.45277   0.12939   0.29051   0.00000  Uiso   1.00
O89    O     0.00034   0.14109   0.22584   0.00000  Uiso   1.00
H90    H     0.49219   0.10723   0.21934   0.00000  Uiso   1.00
S91    S     0.00519   0.14775   0.05284   0.00000  Uiso   1.00
O92    O     0.47469   0.11238   0.03495   0.00000  Uiso   1.00
O93    O     0.04723   0.12939   0.04283   0.00000  Uiso   1.00
O94    O     0.49966   0.14109   0.10749   0.00000  Uiso   1.00
H95    H     0.00781   0.10723   0.11399   0.00000  Uiso   1.00
S96    S     0.00519   0.35225   0.28050   0.00000  Uiso   1.00
O97    O     0.47469   0.38762   0.29839   0.00000  Uiso   1.00
O98    O     0.04723   0.37061   0.29051   0.00000  Uiso   1.00
O99    O     0.49966   0.35891   0.22584   0.00000  Uiso   1.00
H100   H     0.00780   0.39277   0.21934   0.00000  Uiso   1.00
S101   S     0.24481   0.10225   0.05284   0.00000  Uiso   1.00
O102   O     0.27531   0.13762   0.03495   0.00000  Uiso   1.00
O103   O     0.20277   0.12061   0.04283   0.00000  Uiso   1.00
O104   O     0.25034   0.10891   0.10749   0.00000  Uiso   1.00
H105   H     0.24219   0.14277   0.11399   0.00000  Uiso   1.00
S106   S     0.24481   0.39775   0.28050   0.00000  Uiso   1.00
O107   O     0.27531   0.36238   0.29839   0.00000  Uiso   1.00
O108   O     0.20277   0.37939   0.29051   0.00000  Uiso   1.00
O109   O     0.25034   0.39109   0.22584   0.00000  Uiso   1.00
H110   H     0.24219   0.35723   0.21934   0.00000  Uiso   1.00
S111   S     0.25519   0.39775   0.05284   0.00000  Uiso   1.00
O112   O     0.22469   0.36238   0.03495   0.00000  Uiso   1.00
O113   O     0.29723   0.37939   0.04283   0.00000  Uiso   1.00
O114   O     0.24966   0.39109   0.10749   0.00000  Uiso   1.00
H115   H     0.25781   0.35723   0.11399   0.00000  Uiso   1.00
S116   S     0.25519   0.10225   0.28050   0.00000  Uiso   1.00
O117   O     0.22469   0.13762   0.29839   0.00000  Uiso   1.00
O118   O     0.29723   0.12061   0.29051   0.00000  Uiso   1.00
O119   O     0.24966   0.10891   0.22584   0.00000  Uiso   1.00
H120   H     0.25780   0.14277   0.21934   0.00000  Uiso   1.00
C121   C     0.56031   0.19068   0.16674   0.00000  Uiso   1.00
C122   C     0.93969   0.30932   0.16674   0.00000  Uiso   1.00
C123   C     0.93969   0.19068   0.16659   0.00000  Uiso   1.00
C124   C     0.56031   0.30932   0.16659   0.00000  Uiso   1.00
C125   C     0.81031   0.44068   0.16674   0.00000  Uiso   1.00
C126   C     0.68969   0.05932   0.16674   0.00000  Uiso   1.00
C127   C     0.68969   0.44068   0.16659   0.00000  Uiso   1.00
C128   C     0.81031   0.05932   0.16659   0.00000  Uiso   1.00
C129   C     0.99967   0.29365   0.02426   0.00000  Uiso   1.00
C130   C     0.99967   0.20635   0.30908   0.00000  Uiso   1.00
C131   C     0.50033   0.20635   0.02426   0.00000  Uiso   1.00
C132   C     0.50033   0.29365   0.30908   0.00000  Uiso   1.00
C133   C     0.74967   0.04365   0.02426   0.00000  Uiso   1.00
C134   C     0.74967   0.45635   0.30908   0.00000  Uiso   1.00
C135   C     0.75033   0.45635   0.02426   0.00000  Uiso   1.00
C136   C     0.75033   0.04365   0.30908   0.00000  Uiso   1.00
C137   C     0.89081   0.14125   0.12579   0.00000  Uiso   1.00
C138   C     0.60988   0.35798   0.20649   0.00000  Uiso   1.00
C139   C     0.60919   0.35875   0.12579   0.00000  Uiso   1.00
C140   C     0.89012   0.14202   0.20649   0.00000  Uiso   1.00
C141   C     0.60920   0.14125   0.20754   0.00000  Uiso   1.00
C142   C     0.89012   0.35798   0.12685   0.00000  Uiso   1.00
C143   C     0.89081   0.35875   0.20754   0.00000  Uiso   1.00
C144   C     0.60988   0.14202   0.12685   0.00000  Uiso   1.00
C145   C     0.64081   0.39125   0.12579   0.00000  Uiso   1.00
C146   C     0.85988   0.10798   0.20649   0.00000  Uiso   1.00
C147   C     0.85919   0.10875   0.12579   0.00000  Uiso   1.00
C148   C     0.64012   0.39202   0.20649   0.00000  Uiso   1.00
C149   C     0.85920   0.39125   0.20754   0.00000  Uiso   1.00
C150   C     0.64012   0.10798   0.12685   0.00000  Uiso   1.00
C151   C     0.64081   0.10875   0.20754   0.00000  Uiso   1.00
C152   C     0.85988   0.39202   0.12685   0.00000  Uiso   1.00
C153   C     0.59373   0.34219   0.16626   0.00000  Uiso   1.00
C154   C     0.90627   0.15781   0.16626   0.00000  Uiso   1.00
C155   C     0.90627   0.34219   0.16708   0.00000  Uiso   1.00
C156   C     0.59373   0.15781   0.16708   0.00000  Uiso   1.00
C157   C     0.84373   0.09219   0.16626   0.00000  Uiso   1.00
C158   C     0.65627   0.40781   0.16626   0.00000  Uiso   1.00
C159   C     0.65627   0.09219   0.16708   0.00000  Uiso   1.00
C160   C     0.84373   0.40781   0.16708   0.00000  Uiso   1.00
H161   H     0.90290   0.15335   0.09427   0.00000  Uiso   1.00
H162   H     0.59922   0.34424   0.23790   0.00000  Uiso   1.00
H163   H     0.59710   0.34665   0.09427   0.00000  Uiso   1.00
H164   H     0.90078   0.15576   0.23790   0.00000  Uiso   1.00
H165   H     0.59710   0.15335   0.23906   0.00000  Uiso   1.00
H166   H     0.90078   0.34424   0.09544   0.00000  Uiso   1.00
H167   H     0.90290   0.34666   0.23906   0.00000  Uiso   1.00
H168   H     0.59922   0.15576   0.09544   0.00000  Uiso   1.00
H169   H     0.65290   0.40335   0.09427   0.00000  Uiso   1.00
H170   H     0.84922   0.09424   0.23790   0.00000  Uiso   1.00
H171   H     0.84710   0.09665   0.09427   0.00000  Uiso   1.00
H172   H     0.65078   0.40576   0.23790   0.00000  Uiso   1.00
H173   H     0.84710   0.40335   0.23906   0.00000  Uiso   1.00
H174   H     0.65078   0.09424   0.09544   0.00000  Uiso   1.00
H175   H     0.65290   0.09666   0.23906   0.00000  Uiso   1.00
H176   H     0.84922   0.40576   0.09544   0.00000  Uiso   1.00
N177   N     0.50000   0.25000   0.28573   0.00000  Uiso   1.00
N178   N     0.50000   0.25000   0.04760   0.00000  Uiso   1.00
N179   N     0.75000   0.00000   0.28573   0.00000  Uiso   1.00
N180   N     0.75000   0.00000   0.04760   0.00000  Uiso   1.00
O181   O     0.54581   0.20419   0.20487   0.00000  Uiso   1.00
O182   O     0.95420   0.29581   0.12846   0.00000  Uiso   1.00
O183   O     0.95420   0.29581   0.20487   0.00000  Uiso   1.00
O184   O     0.54581   0.20419   0.12846   0.00000  Uiso   1.00
O185   O     0.95420   0.20419   0.12846   0.00000  Uiso   1.00
O186   O     0.54581   0.29581   0.20487   0.00000  Uiso   1.00
O187   O     0.54581   0.29581   0.12846   0.00000  Uiso   1.00
O188   O     0.95420   0.20419   0.20487   0.00000  Uiso   1.00
O189   O     0.79581   0.45419   0.20487   0.00000  Uiso   1.00
O190   O     0.70420   0.04581   0.12846   0.00000  Uiso   1.00
O191   O     0.70420   0.04581   0.20487   0.00000  Uiso   1.00
O192   O     0.79581   0.45419   0.12846   0.00000  Uiso   1.00
O193   O     0.70420   0.45419   0.12846   0.00000  Uiso   1.00
O194   O     0.79581   0.04581   0.20487   0.00000  Uiso   1.00
O195   O     0.79581   0.04581   0.12846   0.00000  Uiso   1.00
O196   O     0.70420   0.45419   0.20487   0.00000  Uiso   1.00
Zn197  Zn    0.50000   0.25000   0.21771   0.00000  Uiso   1.00
Zn198  Zn    0.50000   0.25000   0.11563   0.00000  Uiso   1.00
Zn199  Zn    0.75000   0.00000   0.21771   0.00000  Uiso   1.00
Zn200  Zn    0.75000   0.00000   0.11563   0.00000  Uiso   1.00
S201   S     0.99481   0.35225   0.05284   0.00000  Uiso   1.00
O202   O     0.52531   0.38762   0.03495   0.00000  Uiso   1.00
O203   O     0.95277   0.37061   0.04283   0.00000  Uiso   1.00
O204   O     0.50034   0.35891   0.10749   0.00000  Uiso   1.00
H205   H     0.99219   0.39277   0.11399   0.00000  Uiso   1.00
S206   S     0.99481   0.14775   0.28050   0.00000  Uiso   1.00
O207   O     0.52531   0.11238   0.29839   0.00000  Uiso   1.00
O208   O     0.95277   0.12939   0.29051   0.00000  Uiso   1.00
O209   O     0.50034   0.14109   0.22584   0.00000  Uiso   1.00
H210   H     0.99219   0.10723   0.21934   0.00000  Uiso   1.00
S211   S     0.50519   0.14775   0.05284   0.00000  Uiso   1.00
O212   O     0.97469   0.11238   0.03495   0.00000  Uiso   1.00
O213   O     0.54723   0.12939   0.04283   0.00000  Uiso   1.00
O214   O     0.99966   0.14109   0.10749   0.00000  Uiso   1.00
H215   H     0.50781   0.10723   0.11399   0.00000  Uiso   1.00
S216   S     0.50519   0.35225   0.28050   0.00000  Uiso   1.00
O217   O     0.97469   0.38762   0.29839   0.00000  Uiso   1.00
O218   O     0.54723   0.37061   0.29051   0.00000  Uiso   1.00
O219   O     0.99966   0.35891   0.22584   0.00000  Uiso   1.00
H220   H     0.50780   0.39277   0.21934   0.00000  Uiso   1.00
S221   S     0.74481   0.10225   0.05284   0.00000  Uiso   1.00
O222   O     0.77531   0.13762   0.03495   0.00000  Uiso   1.00
O223   O     0.70277   0.12061   0.04283   0.00000  Uiso   1.00
O224   O     0.75034   0.10891   0.10749   0.00000  Uiso   1.00
H225   H     0.74219   0.14277   0.11399   0.00000  Uiso   1.00
S226   S     0.74481   0.39775   0.28050   0.00000  Uiso   1.00
O227   O     0.77531   0.36238   0.29839   0.00000  Uiso   1.00
O228   O     0.70277   0.37939   0.29051   0.00000  Uiso   1.00
O229   O     0.75034   0.39109   0.22584   0.00000  Uiso   1.00
H230   H     0.74219   0.35723   0.21934   0.00000  Uiso   1.00
S231   S     0.75519   0.39775   0.05284   0.00000  Uiso   1.00
O232   O     0.72469   0.36238   0.03495   0.00000  Uiso   1.00
O233   O     0.79723   0.37939   0.04283   0.00000  Uiso   1.00
O234   O     0.74966   0.39109   0.10749   0.00000  Uiso   1.00
H235   H     0.75781   0.35723   0.11399   0.00000  Uiso   1.00
S236   S     0.75519   0.10225   0.28050   0.00000  Uiso   1.00
O237   O     0.72469   0.13762   0.29839   0.00000  Uiso   1.00
O238   O     0.79723   0.12061   0.29051   0.00000  Uiso   1.00
O239   O     0.74966   0.10891   0.22584   0.00000  Uiso   1.00
H240   H     0.75780   0.14277   0.21934   0.00000  Uiso   1.00
C241   C     0.06031   0.69068   0.16674   0.00000  Uiso   1.00
C242   C     0.43969   0.80932   0.16674   0.00000  Uiso   1.00
C243   C     0.43969   0.69068   0.16659   0.00000  Uiso   1.00
C244   C     0.06031   0.80932   0.16659   0.00000  Uiso   1.00
C245   C     0.31031   0.94068   0.16674   0.00000  Uiso   1.00
C246   C     0.18969   0.55932   0.16674   0.00000  Uiso   1.00
C247   C     0.18969   0.94068   0.16659   0.00000  Uiso   1.00
C248   C     0.31031   0.55932   0.16659   0.00000  Uiso   1.00
C249   C     0.49967   0.79365   0.02426   0.00000  Uiso   1.00
C250   C     0.49967   0.70635   0.30908   0.00000  Uiso   1.00
C251   C     0.00033   0.70635   0.02426   0.00000  Uiso   1.00
C252   C     0.00033   0.79365   0.30908   0.00000  Uiso   1.00
C253   C     0.24967   0.54365   0.02426   0.00000  Uiso   1.00
C254   C     0.24967   0.95635   0.30908   0.00000  Uiso   1.00
C255   C     0.25033   0.95635   0.02426   0.00000  Uiso   1.00
C256   C     0.25033   0.54365   0.30908   0.00000  Uiso   1.00
C257   C     0.39081   0.64125   0.12579   0.00000  Uiso   1.00
C258   C     0.10988   0.85798   0.20649   0.00000  Uiso   1.00
C259   C     0.10919   0.85875   0.12579   0.00000  Uiso   1.00
C260   C     0.39012   0.64202   0.20649   0.00000  Uiso   1.00
C261   C     0.10920   0.64125   0.20754   0.00000  Uiso   1.00
C262   C     0.39012   0.85798   0.12685   0.00000  Uiso   1.00
C263   C     0.39081   0.85875   0.20754   0.00000  Uiso   1.00
C264   C     0.10988   0.64202   0.12685   0.00000  Uiso   1.00
C265   C     0.14081   0.89125   0.12579   0.00000  Uiso   1.00
C266   C     0.35988   0.60798   0.20649   0.00000  Uiso   1.00
C267   C     0.35919   0.60875   0.12579   0.00000  Uiso   1.00
C268   C     0.14012   0.89202   0.20649   0.00000  Uiso   1.00
C269   C     0.35920   0.89125   0.20754   0.00000  Uiso   1.00
C270   C     0.14012   0.60798   0.12685   0.00000  Uiso   1.00
C271   C     0.14081   0.60875   0.20754   0.00000  Uiso   1.00
C272   C     0.35988   0.89202   0.12685   0.00000  Uiso   1.00
C273   C     0.09373   0.84219   0.16626   0.00000  Uiso   1.00
C274   C     0.40627   0.65781   0.16626   0.00000  Uiso   1.00
C275   C     0.40627   0.84219   0.16708   0.00000  Uiso   1.00
C276   C     0.09373   0.65781   0.16708   0.00000  Uiso   1.00
C277   C     0.34373   0.59219   0.16626   0.00000  Uiso   1.00
C278   C     0.15627   0.90781   0.16626   0.00000  Uiso   1.00
C279   C     0.15627   0.59219   0.16708   0.00000  Uiso   1.00
C280   C     0.34373   0.90781   0.16708   0.00000  Uiso   1.00
H281   H     0.40290   0.65335   0.09427   0.00000  Uiso   1.00
H282   H     0.09922   0.84424   0.23790   0.00000  Uiso   1.00
H283   H     0.09710   0.84665   0.09427   0.00000  Uiso   1.00
H284   H     0.40078   0.65576   0.23790   0.00000  Uiso   1.00
H285   H     0.09710   0.65335   0.23906   0.00000  Uiso   1.00
H286   H     0.40078   0.84424   0.09544   0.00000  Uiso   1.00
H287   H     0.40290   0.84666   0.23906   0.00000  Uiso   1.00
H288   H     0.09922   0.65576   0.09544   0.00000  Uiso   1.00
H289   H     0.15290   0.90335   0.09427   0.00000  Uiso   1.00
H290   H     0.34922   0.59424   0.23790   0.00000  Uiso   1.00
H291   H     0.34710   0.59665   0.09427   0.00000  Uiso   1.00
H292   H     0.15078   0.90576   0.23790   0.00000  Uiso   1.00
H293   H     0.34710   0.90335   0.23906   0.00000  Uiso   1.00
H294   H     0.15078   0.59424   0.09544   0.00000  Uiso   1.00
H295   H     0.15290   0.59666   0.23906   0.00000  Uiso   1.00
H296   H     0.34922   0.90576   0.09544   0.00000  Uiso   1.00
N297   N     0.00000   0.75000   0.28573   0.00000  Uiso   1.00
N298   N     0.00000   0.75000   0.04760   0.00000  Uiso   1.00
N299   N     0.25000   0.50000   0.28573   0.00000  Uiso   1.00
N300   N     0.25000   0.50000   0.04760   0.00000  Uiso   1.00
O301   O     0.04581   0.70419   0.20487   0.00000  Uiso   1.00
O302   O     0.45420   0.79581   0.12846   0.00000  Uiso   1.00
O303   O     0.45420   0.79581   0.20487   0.00000  Uiso   1.00
O304   O     0.04581   0.70419   0.12846   0.00000  Uiso   1.00
O305   O     0.45420   0.70419   0.12846   0.00000  Uiso   1.00
O306   O     0.04581   0.79581   0.20487   0.00000  Uiso   1.00
O307   O     0.04581   0.79581   0.12846   0.00000  Uiso   1.00
O308   O     0.45420   0.70419   0.20487   0.00000  Uiso   1.00
O309   O     0.29581   0.95419   0.20487   0.00000  Uiso   1.00
O310   O     0.20420   0.54581   0.12846   0.00000  Uiso   1.00
O311   O     0.20420   0.54581   0.20487   0.00000  Uiso   1.00
O312   O     0.29581   0.95419   0.12846   0.00000  Uiso   1.00
O313   O     0.20420   0.95419   0.12846   0.00000  Uiso   1.00
O314   O     0.29581   0.54581   0.20487   0.00000  Uiso   1.00
O315   O     0.29581   0.54581   0.12846   0.00000  Uiso   1.00
O316   O     0.20420   0.95419   0.20487   0.00000  Uiso   1.00
Zn317  Zn    0.00000   0.75000   0.21771   0.00000  Uiso   1.00
Zn318  Zn    0.00000   0.75000   0.11563   0.00000  Uiso   1.00
Zn319  Zn    0.25000   0.50000   0.21771   0.00000  Uiso   1.00
Zn320  Zn    0.25000   0.50000   0.11563   0.00000  Uiso   1.00
S321   S     0.49481   0.85225   0.05284   0.00000  Uiso   1.00
O322   O     0.02531   0.88762   0.03495   0.00000  Uiso   1.00
O323   O     0.45277   0.87061   0.04283   0.00000  Uiso   1.00
O324   O     0.00034   0.85891   0.10749   0.00000  Uiso   1.00
H325   H     0.49219   0.89277   0.11399   0.00000  Uiso   1.00
S326   S     0.49481   0.64775   0.28050   0.00000  Uiso   1.00
O327   O     0.02531   0.61238   0.29839   0.00000  Uiso   1.00
O328   O     0.45277   0.62939   0.29051   0.00000  Uiso   1.00
O329   O     0.00034   0.64109   0.22584   0.00000  Uiso   1.00
H330   H     0.49219   0.60723   0.21934   0.00000  Uiso   1.00
S331   S     0.00519   0.64775   0.05284   0.00000  Uiso   1.00
O332   O     0.47469   0.61238   0.03495   0.00000  Uiso   1.00
O333   O     0.04723   0.62939   0.04283   0.00000  Uiso   1.00
O334   O     0.49966   0.64109   0.10749   0.00000  Uiso   1.00
H335   H     0.00781   0.60723   0.11399   0.00000  Uiso   1.00
S336   S     0.00519   0.85225   0.28050   0.00000  Uiso   1.00
O337   O     0.47469   0.88762   0.29839   0.00000  Uiso   1.00
O338   O     0.04723   0.87061   0.29051   0.00000  Uiso   1.00
O339   O     0.49966   0.85891   0.22584   0.00000  Uiso   1.00
H340   H     0.00780   0.89277   0.21934   0.00000  Uiso   1.00
S341   S     0.24481   0.60225   0.05284   0.00000  Uiso   1.00
O342   O     0.27531   0.63762   0.03495   0.00000  Uiso   1.00
O343   O     0.20277   0.62061   0.04283   0.00000  Uiso   1.00
O344   O     0.25034   0.60891   0.10749   0.00000  Uiso   1.00
H345   H     0.24219   0.64277   0.11399   0.00000  Uiso   1.00
S346   S     0.24481   0.89775   0.28050   0.00000  Uiso   1.00
O347   O     0.27531   0.86238   0.29839   0.00000  Uiso   1.00
O348   O     0.20277   0.87939   0.29051   0.00000  Uiso   1.00
O349   O     0.25034   0.89109   0.22584   0.00000  Uiso   1.00
H350   H     0.24219   0.85723   0.21934   0.00000  Uiso   1.00
S351   S     0.25519   0.89775   0.05284   0.00000  Uiso   1.00
O352   O     0.22469   0.86238   0.03495   0.00000  Uiso   1.00
O353   O     0.29723   0.87939   0.04283   0.00000  Uiso   1.00
O354   O     0.24966   0.89109   0.10749   0.00000  Uiso   1.00
H355   H     0.25781   0.85723   0.11399   0.00000  Uiso   1.00
S356   S     0.25519   0.60225   0.28050   0.00000  Uiso   1.00
O357   O     0.22469   0.63762   0.29839   0.00000  Uiso   1.00
O358   O     0.29723   0.62061   0.29051   0.00000  Uiso   1.00
O359   O     0.24966   0.60891   0.22584   0.00000  Uiso   1.00
H360   H     0.25780   0.64277   0.21934   0.00000  Uiso   1.00
C361   C     0.56031   0.69068   0.16674   0.00000  Uiso   1.00
C362   C     0.93969   0.80932   0.16674   0.00000  Uiso   1.00
C363   C     0.93969   0.69068   0.16659   0.00000  Uiso   1.00
C364   C     0.56031   0.80932   0.16659   0.00000  Uiso   1.00
C365   C     0.81031   0.94068   0.16674   0.00000  Uiso   1.00
C366   C     0.68969   0.55932   0.16674   0.00000  Uiso   1.00
C367   C     0.68969   0.94068   0.16659   0.00000  Uiso   1.00
C368   C     0.81031   0.55932   0.16659   0.00000  Uiso   1.00
C369   C     0.99967   0.79365   0.02426   0.00000  Uiso   1.00
C370   C     0.99967   0.70635   0.30908   0.00000  Uiso   1.00
C371   C     0.50033   0.70635   0.02426   0.00000  Uiso   1.00
C372   C     0.50033   0.79365   0.30908   0.00000  Uiso   1.00
C373   C     0.74967   0.54365   0.02426   0.00000  Uiso   1.00
C374   C     0.74967   0.95635   0.30908   0.00000  Uiso   1.00
C375   C     0.75033   0.95635   0.02426   0.00000  Uiso   1.00
C376   C     0.75033   0.54365   0.30908   0.00000  Uiso   1.00
C377   C     0.89081   0.64125   0.12579   0.00000  Uiso   1.00
C378   C     0.60988   0.85798   0.20649   0.00000  Uiso   1.00
C379   C     0.60919   0.85875   0.12579   0.00000  Uiso   1.00
C380   C     0.89012   0.64202   0.20649   0.00000  Uiso   1.00
C381   C     0.60920   0.64125   0.20754   0.00000  Uiso   1.00
C382   C     0.89012   0.85798   0.12685   0.00000  Uiso   1.00
C383   C     0.89081   0.85875   0.20754   0.00000  Uiso   1.00
C384   C     0.60988   0.64202   0.12685   0.00000  Uiso   1.00
C385   C     0.64081   0.89125   0.12579   0.00000  Uiso   1.00
C386   C     0.85988   0.60798   0.20649   0.00000  Uiso   1.00
C387   C     0.85919   0.60875   0.12579   0.00000  Uiso   1.00
C388   C     0.64012   0.89202   0.20649   0.00000  Uiso   1.00
C389   C     0.85920   0.89125   0.20754   0.00000  Uiso   1.00
C390   C     0.64012   0.60798   0.12685   0.00000  Uiso   1.00
C391   C     0.64081   0.60875   0.20754   0.00000  Uiso   1.00
C392   C     0.85988   0.89202   0.12685   0.00000  Uiso   1.00
C393   C     0.59373   0.84219   0.16626   0.00000  Uiso   1.00
C394   C     0.90627   0.65781   0.16626   0.00000  Uiso   1.00
C395   C     0.90627   0.84219   0.16708   0.00000  Uiso   1.00
C396   C     0.59373   0.65781   0.16708   0.00000  Uiso   1.00
C397   C     0.84373   0.59219   0.16626   0.00000  Uiso   1.00
C398   C     0.65627   0.90781   0.16626   0.00000  Uiso   1.00
C399   C     0.65627   0.59219   0.16708   0.00000  Uiso   1.00
C400   C     0.84373   0.90781   0.16708   0.00000  Uiso   1.00
H401   H     0.90290   0.65335   0.09427   0.00000  Uiso   1.00
H402   H     0.59922   0.84424   0.23790   0.00000  Uiso   1.00
H403   H     0.59710   0.84665   0.09427   0.00000  Uiso   1.00
H404   H     0.90078   0.65576   0.23790   0.00000  Uiso   1.00
H405   H     0.59710   0.65335   0.23906   0.00000  Uiso   1.00
H406   H     0.90078   0.84424   0.09544   0.00000  Uiso   1.00
H407   H     0.90290   0.84666   0.23906   0.00000  Uiso   1.00
H408   H     0.59922   0.65576   0.09544   0.00000  Uiso   1.00
H409   H     0.65290   0.90335   0.09427   0.00000  Uiso   1.00
H410   H     0.84922   0.59424   0.23790   0.00000  Uiso   1.00
H411   H     0.84710   0.59665   0.09427   0.00000  Uiso   1.00
H412   H     0.65078   0.90576   0.23790   0.00000  Uiso   1.00
H413   H     0.84710   0.90335   0.23906   0.00000  Uiso   1.00
H414   H     0.65078   0.59424   0.09544   0.00000  Uiso   1.00
H415   H     0.65290   0.59666   0.23906   0.00000  Uiso   1.00
H416   H     0.84922   0.90576   0.09544   0.00000  Uiso   1.00
N417   N     0.50000   0.75000   0.28573   0.00000  Uiso   1.00
N418   N     0.50000   0.75000   0.04760   0.00000  Uiso   1.00
N419   N     0.75000   0.50000   0.28573   0.00000  Uiso   1.00
N420   N     0.75000   0.50000   0.04760   0.00000  Uiso   1.00
O421   O     0.54581   0.70419   0.20487   0.00000  Uiso   1.00
O422   O     0.95420   0.79581   0.12846   0.00000  Uiso   1.00
O423   O     0.95420   0.79581   0.20487   0.00000  Uiso   1.00
O424   O     0.54581   0.70419   0.12846   0.00000  Uiso   1.00
O425   O     0.95420   0.70419   0.12846   0.00000  Uiso   1.00
O426   O     0.54581   0.79581   0.20487   0.00000  Uiso   1.00
O427   O     0.54581   0.79581   0.12846   0.00000  Uiso   1.00
O428   O     0.95420   0.70419   0.20487   0.00000  Uiso   1.00
O429   O     0.79581   0.95419   0.20487   0.00000  Uiso   1.00
O430   O     0.70420   0.54581   0.12846   0.00000  Uiso   1.00
O431   O     0.70420   0.54581   0.20487   0.00000  Uiso   1.00
O432   O     0.79581   0.95419   0.12846   0.00000  Uiso   1.00
O433   O     0.70420   0.95419   0.12846   0.00000  Uiso   1.00
O434   O     0.79581   0.54581   0.20487   0.00000  Uiso   1.00
O435   O     0.79581   0.54581   0.12846   0.00000  Uiso   1.00
O436   O     0.70420   0.95419   0.20487   0.00000  Uiso   1.00
Zn437  Zn    0.50000   0.75000   0.21771   0.00000  Uiso   1.00
Zn438  Zn    0.50000   0.75000   0.11563   0.00000  Uiso   1.00
Zn439  Zn    0.75000   0.50000   0.21771   0.00000  Uiso   1.00
Zn440  Zn    0.75000   0.50000   0.11563   0.00000  Uiso   1.00
S441   S     0.99481   0.85225   0.05284   0.00000  Uiso   1.00
O442   O     0.52531   0.88762   0.03495   0.00000  Uiso   1.00
O443   O     0.95277   0.87061   0.04283   0.00000  Uiso   1.00
O444   O     0.50034   0.85891   0.10749   0.00000  Uiso   1.00
H445   H     0.99219   0.89277   0.11399   0.00000  Uiso   1.00
S446   S     0.99481   0.64775   0.28050   0.00000  Uiso   1.00
O447   O     0.52531   0.61238   0.29839   0.00000  Uiso   1.00
O448   O     0.95277   0.62939   0.29051   0.00000  Uiso   1.00
O449   O     0.50034   0.64109   0.22584   0.00000  Uiso   1.00
H450   H     0.99219   0.60723   0.21934   0.00000  Uiso   1.00
S451   S     0.50519   0.64775   0.05284   0.00000  Uiso   1.00
O452   O     0.97469   0.61238   0.03495   0.00000  Uiso   1.00
O453   O     0.54723   0.62939   0.04283   0.00000  Uiso   1.00
O454   O     0.99966   0.64109   0.10749   0.00000  Uiso   1.00
H455   H     0.50781   0.60723   0.11399   0.00000  Uiso   1.00
S456   S     0.50519   0.85225   0.28050   0.00000  Uiso   1.00
O457   O     0.97469   0.88762   0.29839   0.00000  Uiso   1.00
O458   O     0.54723   0.87061   0.29051   0.00000  Uiso   1.00
O459   O     0.99966   0.85891   0.22584   0.00000  Uiso   1.00
H460   H     0.50780   0.89277   0.21934   0.00000  Uiso   1.00
S461   S     0.74481   0.60225   0.05284   0.00000  Uiso   1.00
O462   O     0.77531   0.63762   0.03495   0.00000  Uiso   1.00
O463   O     0.70277   0.62061   0.04283   0.00000  Uiso   1.00
O464   O     0.75034   0.60891   0.10749   0.00000  Uiso   1.00
H465   H     0.74219   0.64277   0.11399   0.00000  Uiso   1.00
S466   S     0.74481   0.89775   0.28050   0.00000  Uiso   1.00
O467   O     0.77531   0.86238   0.29839   0.00000  Uiso   1.00
O468   O     0.70277   0.87939   0.29051   0.00000  Uiso   1.00
O469   O     0.75034   0.89109   0.22584   0.00000  Uiso   1.00
H470   H     0.74219   0.85723   0.21934   0.00000  Uiso   1.00
S471   S     0.75519   0.89775   0.05284   0.00000  Uiso   1.00
O472   O     0.72469   0.86238   0.03495   0.00000  Uiso   1.00
O473   O     0.79723   0.87939   0.04283   0.00000  Uiso   1.00
O474   O     0.74966   0.89109   0.10749   0.00000  Uiso   1.00
H475   H     0.75781   0.85723   0.11399   0.00000  Uiso   1.00
S476   S     0.75519   0.60225   0.28050   0.00000  Uiso   1.00
O477   O     0.72469   0.63762   0.29839   0.00000  Uiso   1.00
O478   O     0.79723   0.62061   0.29051   0.00000  Uiso   1.00
O479   O     0.74966   0.60891   0.22584   0.00000  Uiso   1.00
H480   H     0.75780   0.64277   0.21934   0.00000  Uiso   1.00
C481   C     0.06031   0.19068   0.50008   0.00000  Uiso   1.00
C482   C     0.43969   0.30932   0.50008   0.00000  Uiso   1.00
C483   C     0.43969   0.19068   0.49992   0.00000  Uiso   1.00
C484   C     0.06031   0.30932   0.49992   0.00000  Uiso   1.00
C485   C     0.31031   0.44068   0.50008   0.00000  Uiso   1.00
C486   C     0.18969   0.05932   0.50008   0.00000  Uiso   1.00
C487   C     0.18969   0.44068   0.49992   0.00000  Uiso   1.00
C488   C     0.31031   0.05932   0.49992   0.00000  Uiso   1.00
C489   C     0.49967   0.29365   0.35759   0.00000  Uiso   1.00
C490   C     0.49967   0.20635   0.64241   0.00000  Uiso   1.00
C491   C     0.00033   0.20635   0.35759   0.00000  Uiso   1.00
C492   C     0.00033   0.29365   0.64241   0.00000  Uiso   1.00
C493   C     0.24967   0.04365   0.35759   0.00000  Uiso   1.00
C494   C     0.24967   0.45635   0.64241   0.00000  Uiso   1.00
C495   C     0.25033   0.45635   0.35759   0.00000  Uiso   1.00
C496   C     0.25033   0.04365   0.64241   0.00000  Uiso   1.00
C497   C     0.39081   0.14125   0.45913   0.00000  Uiso   1.00
C498   C     0.10988   0.35798   0.53982   0.00000  Uiso   1.00
C499   C     0.10919   0.35875   0.45913   0.00000  Uiso   1.00
C500   C     0.39012   0.14202   0.53982   0.00000  Uiso   1.00
C501   C     0.10920   0.14125   0.54087   0.00000  Uiso   1.00
C502   C     0.39012   0.35798   0.46018   0.00000  Uiso   1.00
C503   C     0.39081   0.35875   0.54087   0.00000  Uiso   1.00
C504   C     0.10988   0.14202   0.46018   0.00000  Uiso   1.00
C505   C     0.14081   0.39125   0.45913   0.00000  Uiso   1.00
C506   C     0.35988   0.10798   0.53982   0.00000  Uiso   1.00
C507   C     0.35919   0.10875   0.45913   0.00000  Uiso   1.00
C508   C     0.14012   0.39202   0.53982   0.00000  Uiso   1.00
C509   C     0.35920   0.39125   0.54087   0.00000  Uiso   1.00
C510   C     0.14012   0.10798   0.46018   0.00000  Uiso   1.00
C511   C     0.14081   0.10875   0.54087   0.00000  Uiso   1.00
C512   C     0.35988   0.39202   0.46018   0.00000  Uiso   1.00
C513   C     0.09373   0.34219   0.49959   0.00000  Uiso   1.00
C514   C     0.40627   0.15781   0.49959   0.00000  Uiso   1.00
C515   C     0.40627   0.34219   0.50041   0.00000  Uiso   1.00
C516   C     0.09373   0.15781   0.50041   0.00000  Uiso   1.00
C517   C     0.34373   0.09219   0.49959   0.00000  Uiso   1.00
C518   C     0.15627   0.40781   0.49959   0.00000  Uiso   1.00
C519   C     0.15627   0.09219   0.50041   0.00000  Uiso   1.00
C520   C     0.34373   0.40781   0.50041   0.00000  Uiso   1.00
H521   H     0.40290   0.15335   0.42760   0.00000  Uiso   1.00
H522   H     0.09922   0.34424   0.57123   0.00000  Uiso   1.00
H523   H     0.09710   0.34665   0.42760   0.00000  Uiso   1.00
H524   H     0.40078   0.15576   0.57123   0.00000  Uiso   1.00
H525   H     0.09710   0.15335   0.57240   0.00000  Uiso   1.00
H526   H     0.40078   0.34424   0.42877   0.00000  Uiso   1.00
H527   H     0.40290   0.34666   0.57240   0.00000  Uiso   1.00
H528   H     0.09922   0.15576   0.42877   0.00000  Uiso   1.00
H529   H     0.15290   0.40335   0.42760   0.00000  Uiso   1.00
H530   H     0.34922   0.09424   0.57123   0.00000  Uiso   1.00
H531   H     0.34710   0.09665   0.42760   0.00000  Uiso   1.00
H532   H     0.15078   0.40576   0.57123   0.00000  Uiso   1.00
H533   H     0.34710   0.40335   0.57240   0.00000  Uiso   1.00
H534   H     0.15078   0.09424   0.42877   0.00000  Uiso   1.00
H535   H     0.15290   0.09666   0.57240   0.00000  Uiso   1.00
H536   H     0.34922   0.40576   0.42877   0.00000  Uiso   1.00
N537   N     0.00000   0.25000   0.61907   0.00000  Uiso   1.00
N538   N     0.00000   0.25000   0.38093   0.00000  Uiso   1.00
N539   N     0.25000   0.00000   0.61907   0.00000  Uiso   1.00
N540   N     0.25000   0.00000   0.38093   0.00000  Uiso   1.00
O541   O     0.04581   0.20419   0.53821   0.00000  Uiso   1.00
O542   O     0.45420   0.29581   0.46179   0.00000  Uiso   1.00
O543   O     0.45420   0.29581   0.53821   0.00000  Uiso   1.00
O544   O     0.04581   0.20419   0.46179   0.00000  Uiso   1.00
O545   O     0.45420   0.20419   0.46179   0.00000  Uiso   1.00
O546   O     0.04581   0.29581   0.53821   0.00000  Uiso   1.00
O547   O     0.04581   0.29581   0.46179   0.00000  Uiso   1.00
O548   O     0.45420   0.20419   0.53821   0.00000  Uiso   1.00
O549   O     0.29581   0.45419   0.53821   0.00000  Uiso   1.00
O550   O     0.20420   0.04581   0.46179   0.00000  Uiso   1.00
O551   O     0.20420   0.04581   0.53821   0.00000  Uiso   1.00
O552   O     0.29581   0.45419   0.46179   0.00000  Uiso   1.00
O553   O     0.20420   0.45419   0.46179   0.00000  Uiso   1.00
O554   O     0.29581   0.04581   0.53821   0.00000  Uiso   1.00
O555   O     0.29581   0.04581   0.46179   0.00000  Uiso   1.00
O556   O     0.20420   0.45419   0.53821   0.00000  Uiso   1.00
Zn557  Zn    0.00000   0.25000   0.55104   0.00000  Uiso   1.00
Zn558  Zn    0.00000   0.25000   0.44896   0.00000  Uiso   1.00
Zn559  Zn    0.25000   0.00000   0.55104   0.00000  Uiso   1.00
Zn560  Zn    0.25000   0.00000   0.44896   0.00000  Uiso   1.00
S561   S     0.49481   0.35225   0.38617   0.00000  Uiso   1.00
O562   O     0.02531   0.38762   0.36828   0.00000  Uiso   1.00
O563   O     0.45277   0.37061   0.37616   0.00000  Uiso   1.00
O564   O     0.00034   0.35891   0.44082   0.00000  Uiso   1.00
H565   H     0.49219   0.39277   0.44733   0.00000  Uiso   1.00
S566   S     0.49481   0.14775   0.61383   0.00000  Uiso   1.00
O567   O     0.02531   0.11238   0.63172   0.00000  Uiso   1.00
O568   O     0.45277   0.12939   0.62384   0.00000  Uiso   1.00
O569   O     0.00034   0.14109   0.55918   0.00000  Uiso   1.00
H570   H     0.49219   0.10723   0.55267   0.00000  Uiso   1.00
S571   S     0.00519   0.14775   0.38617   0.00000  Uiso   1.00
O572   O     0.47469   0.11238   0.36828   0.00000  Uiso   1.00
O573   O     0.04723   0.12939   0.37616   0.00000  Uiso   1.00
O574   O     0.49966   0.14109   0.44082   0.00000  Uiso   1.00
H575   H     0.00781   0.10723   0.44733   0.00000  Uiso   1.00
S576   S     0.00519   0.35225   0.61383   0.00000  Uiso   1.00
O577   O     0.47469   0.38762   0.63172   0.00000  Uiso   1.00
O578   O     0.04723   0.37061   0.62384   0.00000  Uiso   1.00
O579   O     0.49966   0.35891   0.55918   0.00000  Uiso   1.00
H580   H     0.00780   0.39277   0.55268   0.00000  Uiso   1.00
S581   S     0.24481   0.10225   0.38617   0.00000  Uiso   1.00
O582   O     0.27531   0.13762   0.36828   0.00000  Uiso   1.00
O583   O     0.20277   0.12061   0.37616   0.00000  Uiso   1.00
O584   O     0.25034   0.10891   0.44082   0.00000  Uiso   1.00
H585   H     0.24219   0.14277   0.44733   0.00000  Uiso   1.00
S586   S     0.24481   0.39775   0.61383   0.00000  Uiso   1.00
O587   O     0.27531   0.36238   0.63172   0.00000  Uiso   1.00
O588   O     0.20277   0.37939   0.62384   0.00000  Uiso   1.00
O589   O     0.25034   0.39109   0.55918   0.00000  Uiso   1.00
H590   H     0.24219   0.35723   0.55267   0.00000  Uiso   1.00
S591   S     0.25519   0.39775   0.38617   0.00000  Uiso   1.00
O592   O     0.22469   0.36238   0.36828   0.00000  Uiso   1.00
O593   O     0.29723   0.37939   0.37616   0.00000  Uiso   1.00
O594   O     0.24966   0.39109   0.44082   0.00000  Uiso   1.00
H595   H     0.25781   0.35723   0.44733   0.00000  Uiso   1.00
S596   S     0.25519   0.10225   0.61383   0.00000  Uiso   1.00
O597   O     0.22469   0.13762   0.63172   0.00000  Uiso   1.00
O598   O     0.29723   0.12061   0.62384   0.00000  Uiso   1.00
O599   O     0.24966   0.10891   0.55918   0.00000  Uiso   1.00
H600   H     0.25780   0.14277   0.55268   0.00000  Uiso   1.00
C601   C     0.56031   0.19068   0.50008   0.00000  Uiso   1.00
C602   C     0.93969   0.30932   0.50008   0.00000  Uiso   1.00
C603   C     0.93969   0.19068   0.49992   0.00000  Uiso   1.00
C604   C     0.56031   0.30932   0.49992   0.00000  Uiso   1.00
C605   C     0.81031   0.44068   0.50008   0.00000  Uiso   1.00
C606   C     0.68969   0.05932   0.50008   0.00000  Uiso   1.00
C607   C     0.68969   0.44068   0.49992   0.00000  Uiso   1.00
C608   C     0.81031   0.05932   0.49992   0.00000  Uiso   1.00
C609   C     0.99967   0.29365   0.35759   0.00000  Uiso   1.00
C610   C     0.99967   0.20635   0.64241   0.00000  Uiso   1.00
C611   C     0.50033   0.20635   0.35759   0.00000  Uiso   1.00
C612   C     0.50033   0.29365   0.64241   0.00000  Uiso   1.00
C613   C     0.74967   0.04365   0.35759   0.00000  Uiso   1.00
C614   C     0.74967   0.45635   0.64241   0.00000  Uiso   1.00
C615   C     0.75033   0.45635   0.35759   0.00000  Uiso   1.00
C616   C     0.75033   0.04365   0.64241   0.00000  Uiso   1.00
C617   C     0.89081   0.14125   0.45913   0.00000  Uiso   1.00
C618   C     0.60988   0.35798   0.53982   0.00000  Uiso   1.00
C619   C     0.60919   0.35875   0.45913   0.00000  Uiso   1.00
C620   C     0.89012   0.14202   0.53982   0.00000  Uiso   1.00
C621   C     0.60920   0.14125   0.54087   0.00000  Uiso   1.00
C622   C     0.89012   0.35798   0.46018   0.00000  Uiso   1.00
C623   C     0.89081   0.35875   0.54087   0.00000  Uiso   1.00
C624   C     0.60988   0.14202   0.46018   0.00000  Uiso   1.00
C625   C     0.64081   0.39125   0.45913   0.00000  Uiso   1.00
C626   C     0.85988   0.10798   0.53982   0.00000  Uiso   1.00
C627   C     0.85919   0.10875   0.45913   0.00000  Uiso   1.00
C628   C     0.64012   0.39202   0.53982   0.00000  Uiso   1.00
C629   C     0.85920   0.39125   0.54087   0.00000  Uiso   1.00
C630   C     0.64012   0.10798   0.46018   0.00000  Uiso   1.00
C631   C     0.64081   0.10875   0.54087   0.00000  Uiso   1.00
C632   C     0.85988   0.39202   0.46018   0.00000  Uiso   1.00
C633   C     0.59373   0.34219   0.49959   0.00000  Uiso   1.00
C634   C     0.90627   0.15781   0.49959   0.00000  Uiso   1.00
C635   C     0.90627   0.34219   0.50041   0.00000  Uiso   1.00
C636   C     0.59373   0.15781   0.50041   0.00000  Uiso   1.00
C637   C     0.84373   0.09219   0.49959   0.00000  Uiso   1.00
C638   C     0.65627   0.40781   0.49959   0.00000  Uiso   1.00
C639   C     0.65627   0.09219   0.50041   0.00000  Uiso   1.00
C640   C     0.84373   0.40781   0.50041   0.00000  Uiso   1.00
H641   H     0.90290   0.15335   0.42760   0.00000  Uiso   1.00
H642   H     0.59922   0.34424   0.57123   0.00000  Uiso   1.00
H643   H     0.59710   0.34665   0.42760   0.00000  Uiso   1.00
H644   H     0.90078   0.15576   0.57123   0.00000  Uiso   1.00
H645   H     0.59710   0.15335   0.57240   0.00000  Uiso   1.00
H646   H     0.90078   0.34424   0.42877   0.00000  Uiso   1.00
H647   H     0.90290   0.34666   0.57240   0.00000  Uiso   1.00
H648   H     0.59922   0.15576   0.42877   0.00000  Uiso   1.00
H649   H     0.65290   0.40335   0.42760   0.00000  Uiso   1.00
H650   H     0.84922   0.09424   0.57123   0.00000  Uiso   1.00
H651   H     0.84710   0.09665   0.42760   0.00000  Uiso   1.00
H652   H     0.65078   0.40576   0.57123   0.00000  Uiso   1.00
H653   H     0.84710   0.40335   0.57240   0.00000  Uiso   1.00
H654   H     0.65078   0.09424   0.42877   0.00000  Uiso   1.00
H655   H     0.65290   0.09666   0.57240   0.00000  Uiso   1.00
H656   H     0.84922   0.40576   0.42877   0.00000  Uiso   1.00
N657   N     0.50000   0.25000   0.61907   0.00000  Uiso   1.00
N658   N     0.50000   0.25000   0.38093   0.00000  Uiso   1.00
N659   N     0.75000   0.00000   0.61907   0.00000  Uiso   1.00
N660   N     0.75000   0.00000   0.38093   0.00000  Uiso   1.00
O661   O     0.54581   0.20419   0.53821   0.00000  Uiso   1.00
O662   O     0.95420   0.29581   0.46179   0.00000  Uiso   1.00
O663   O     0.95420   0.29581   0.53821   0.00000  Uiso   1.00
O664   O     0.54581   0.20419   0.46179   0.00000  Uiso   1.00
O665   O     0.95420   0.20419   0.46179   0.00000  Uiso   1.00
O666   O     0.54581   0.29581   0.53821   0.00000  Uiso   1.00
O667   O     0.54581   0.29581   0.46179   0.00000  Uiso   1.00
O668   O     0.95420   0.20419   0.53821   0.00000  Uiso   1.00
O669   O     0.79581   0.45419   0.53821   0.00000  Uiso   1.00
O670   O     0.70420   0.04581   0.46179   0.00000  Uiso   1.00
O671   O     0.70420   0.04581   0.53821   0.00000  Uiso   1.00
O672   O     0.79581   0.45419   0.46179   0.00000  Uiso   1.00
O673   O     0.70420   0.45419   0.46179   0.00000  Uiso   1.00
O674   O     0.79581   0.04581   0.53821   0.00000  Uiso   1.00
O675   O     0.79581   0.04581   0.46179   0.00000  Uiso   1.00
O676   O     0.70420   0.45419   0.53821   0.00000  Uiso   1.00
Zn677  Zn    0.50000   0.25000   0.55104   0.00000  Uiso   1.00
Zn678  Zn    0.50000   0.25000   0.44896   0.00000  Uiso   1.00
Zn679  Zn    0.75000   0.00000   0.55104   0.00000  Uiso   1.00
Zn680  Zn    0.75000   0.00000   0.44896   0.00000  Uiso   1.00
S681   S     0.99481   0.35225   0.38617   0.00000  Uiso   1.00
O682   O     0.52531   0.38762   0.36828   0.00000  Uiso   1.00
O683   O     0.95277   0.37061   0.37616   0.00000  Uiso   1.00
O684   O     0.50034   0.35891   0.44082   0.00000  Uiso   1.00
H685   H     0.99219   0.39277   0.44733   0.00000  Uiso   1.00
S686   S     0.99481   0.14775   0.61383   0.00000  Uiso   1.00
O687   O     0.52531   0.11238   0.63172   0.00000  Uiso   1.00
O688   O     0.95277   0.12939   0.62384   0.00000  Uiso   1.00
O689   O     0.50034   0.14109   0.55918   0.00000  Uiso   1.00
H690   H     0.99219   0.10723   0.55267   0.00000  Uiso   1.00
S691   S     0.50519   0.14775   0.38617   0.00000  Uiso   1.00
O692   O     0.97469   0.11238   0.36828   0.00000  Uiso   1.00
O693   O     0.54723   0.12939   0.37616   0.00000  Uiso   1.00
O694   O     0.99966   0.14109   0.44082   0.00000  Uiso   1.00
H695   H     0.50781   0.10723   0.44733   0.00000  Uiso   1.00
S696   S     0.50519   0.35225   0.61383   0.00000  Uiso   1.00
O697   O     0.97469   0.38762   0.63172   0.00000  Uiso   1.00
O698   O     0.54723   0.37061   0.62384   0.00000  Uiso   1.00
O699   O     0.99966   0.35891   0.55918   0.00000  Uiso   1.00
H700   H     0.50780   0.39277   0.55268   0.00000  Uiso   1.00
S701   S     0.74481   0.10225   0.38617   0.00000  Uiso   1.00
O702   O     0.77531   0.13762   0.36828   0.00000  Uiso   1.00
O703   O     0.70277   0.12061   0.37616   0.00000  Uiso   1.00
O704   O     0.75034   0.10891   0.44082   0.00000  Uiso   1.00
H705   H     0.74219   0.14277   0.44733   0.00000  Uiso   1.00
S706   S     0.74481   0.39775   0.61383   0.00000  Uiso   1.00
O707   O     0.77531   0.36238   0.63172   0.00000  Uiso   1.00
O708   O     0.70277   0.37939   0.62384   0.00000  Uiso   1.00
O709   O     0.75034   0.39109   0.55918   0.00000  Uiso   1.00
H710   H     0.74219   0.35723   0.55267   0.00000  Uiso   1.00
S711   S     0.75519   0.39775   0.38617   0.00000  Uiso   1.00
O712   O     0.72469   0.36238   0.36828   0.00000  Uiso   1.00
O713   O     0.79723   0.37939   0.37616   0.00000  Uiso   1.00
O714   O     0.74966   0.39109   0.44082   0.00000  Uiso   1.00
H715   H     0.75781   0.35723   0.44733   0.00000  Uiso   1.00
S716   S     0.75519   0.10225   0.61383   0.00000  Uiso   1.00
O717   O     0.72469   0.13762   0.63172   0.00000  Uiso   1.00
O718   O     0.79723   0.12061   0.62384   0.00000  Uiso   1.00
O719   O     0.74966   0.10891   0.55918   0.00000  Uiso   1.00
H720   H     0.75780   0.14277   0.55268   0.00000  Uiso   1.00
C721   C     0.06031   0.69068   0.50008   0.00000  Uiso   1.00
C722   C     0.43969   0.80932   0.50008   0.00000  Uiso   1.00
C723   C     0.43969   0.69068   0.49992   0.00000  Uiso   1.00
C724   C     0.06031   0.80932   0.49992   0.00000  Uiso   1.00
C725   C     0.31031   0.94068   0.50008   0.00000  Uiso   1.00
C726   C     0.18969   0.55932   0.50008   0.00000  Uiso   1.00
C727   C     0.18969   0.94068   0.49992   0.00000  Uiso   1.00
C728   C     0.31031   0.55932   0.49992   0.00000  Uiso   1.00
C729   C     0.49967   0.79365   0.35759   0.00000  Uiso   1.00
C730   C     0.49967   0.70635   0.64241   0.00000  Uiso   1.00
C731   C     0.00033   0.70635   0.35759   0.00000  Uiso   1.00
C732   C     0.00033   0.79365   0.64241   0.00000  Uiso   1.00
C733   C     0.24967   0.54365   0.35759   0.00000  Uiso   1.00
C734   C     0.24967   0.95635   0.64241   0.00000  Uiso   1.00
C735   C     0.25033   0.95635   0.35759   0.00000  Uiso   1.00
C736   C     0.25033   0.54365   0.64241   0.00000  Uiso   1.00
C737   C     0.39081   0.64125   0.45913   0.00000  Uiso   1.00
C738   C     0.10988   0.85798   0.53982   0.00000  Uiso   1.00
C739   C     0.10919   0.85875   0.45913   0.00000  Uiso   1.00
C740   C     0.39012   0.64202   0.53982   0.00000  Uiso   1.00
C741   C     0.10920   0.64125   0.54087   0.00000  Uiso   1.00
C742   C     0.39012   0.85798   0.46018   0.00000  Uiso   1.00
C743   C     0.39081   0.85875   0.54087   0.00000  Uiso   1.00
C744   C     0.10988   0.64202   0.46018   0.00000  Uiso   1.00
C745   C     0.14081   0.89125   0.45913   0.00000  Uiso   1.00
C746   C     0.35988   0.60798   0.53982   0.00000  Uiso   1.00
C747   C     0.35919   0.60875   0.45913   0.00000  Uiso   1.00
C748   C     0.14012   0.89202   0.53982   0.00000  Uiso   1.00
C749   C     0.35920   0.89125   0.54087   0.00000  Uiso   1.00
C750   C     0.14012   0.60798   0.46018   0.00000  Uiso   1.00
C751   C     0.14081   0.60875   0.54087   0.00000  Uiso   1.00
C752   C     0.35988   0.89202   0.46018   0.00000  Uiso   1.00
C753   C     0.09373   0.84219   0.49959   0.00000  Uiso   1.00
C754   C     0.40627   0.65781   0.49959   0.00000  Uiso   1.00
C755   C     0.40627   0.84219   0.50041   0.00000  Uiso   1.00
C756   C     0.09373   0.65781   0.50041   0.00000  Uiso   1.00
C757   C     0.34373   0.59219   0.49959   0.00000  Uiso   1.00
C758   C     0.15627   0.90781   0.49959   0.00000  Uiso   1.00
C759   C     0.15627   0.59219   0.50041   0.00000  Uiso   1.00
C760   C     0.34373   0.90781   0.50041   0.00000  Uiso   1.00
H761   H     0.40290   0.65335   0.42760   0.00000  Uiso   1.00
H762   H     0.09922   0.84424   0.57123   0.00000  Uiso   1.00
H763   H     0.09710   0.84665   0.42760   0.00000  Uiso   1.00
H764   H     0.40078   0.65576   0.57123   0.00000  Uiso   1.00
H765   H     0.09710   0.65335   0.57240   0.00000  Uiso   1.00
H766   H     0.40078   0.84424   0.42877   0.00000  Uiso   1.00
H767   H     0.40290   0.84666   0.57240   0.00000  Uiso   1.00
H768   H     0.09922   0.65576   0.42877   0.00000  Uiso   1.00
H769   H     0.15290   0.90335   0.42760   0.00000  Uiso   1.00
H770   H     0.34922   0.59424   0.57123   0.00000  Uiso   1.00
H771   H     0.34710   0.59665   0.42760   0.00000  Uiso   1.00
H772   H     0.15078   0.90576   0.57123   0.00000  Uiso   1.00
H773   H     0.34710   0.90335   0.57240   0.00000  Uiso   1.00
H774   H     0.15078   0.59424   0.42877   0.00000  Uiso   1.00
H775   H     0.15290   0.59666   0.57240   0.00000  Uiso   1.00
H776   H     0.34922   0.90576   0.42877   0.00000  Uiso   1.00
N777   N     0.00000   0.75000   0.61907   0.00000  Uiso   1.00
N778   N     0.00000   0.75000   0.38093   0.00000  Uiso   1.00
N779   N     0.25000   0.50000   0.61907   0.00000  Uiso   1.00
N780   N     0.25000   0.50000   0.38093   0.00000  Uiso   1.00
O781   O     0.04581   0.70419   0.53821   0.00000  Uiso   1.00
O782   O     0.45420   0.79581   0.46179   0.00000  Uiso   1.00
O783   O     0.45420   0.79581   0.53821   0.00000  Uiso   1.00
O784   O     0.04581   0.70419   0.46179   0.00000  Uiso   1.00
O785   O     0.45420   0.70419   0.46179   0.00000  Uiso   1.00
O786   O     0.04581   0.79581   0.53821   0.00000  Uiso   1.00
O787   O     0.04581   0.79581   0.46179   0.00000  Uiso   1.00
O788   O     0.45420   0.70419   0.53821   0.00000  Uiso   1.00
O789   O     0.29581   0.95419   0.53821   0.00000  Uiso   1.00
O790   O     0.20420   0.54581   0.46179   0.00000  Uiso   1.00
O791   O     0.20420   0.54581   0.53821   0.00000  Uiso   1.00
O792   O     0.29581   0.95419   0.46179   0.00000  Uiso   1.00
O793   O     0.20420   0.95419   0.46179   0.00000  Uiso   1.00
O794   O     0.29581   0.54581   0.53821   0.00000  Uiso   1.00
O795   O     0.29581   0.54581   0.46179   0.00000  Uiso   1.00
O796   O     0.20420   0.95419   0.53821   0.00000  Uiso   1.00
Zn797  Zn    0.00000   0.75000   0.55104   0.00000  Uiso   1.00
Zn798  Zn    0.00000   0.75000   0.44896   0.00000  Uiso   1.00
Zn799  Zn    0.25000   0.50000   0.55104   0.00000  Uiso   1.00
Zn800  Zn    0.25000   0.50000   0.44896   0.00000  Uiso   1.00
S801   S     0.49481   0.85225   0.38617   0.00000  Uiso   1.00
O802   O     0.02531   0.88762   0.36828   0.00000  Uiso   1.00
O803   O     0.45277   0.87061   0.37616   0.00000  Uiso   1.00
O804   O     0.00034   0.85891   0.44082   0.00000  Uiso   1.00
H805   H     0.49219   0.89277   0.44733   0.00000  Uiso   1.00
S806   S     0.49481   0.64775   0.61383   0.00000  Uiso   1.00
O807   O     0.02531   0.61238   0.63172   0.00000  Uiso   1.00
O808   O     0.45277   0.62939   0.62384   0.00000  Uiso   1.00
O809   O     0.00034   0.64109   0.55918   0.00000  Uiso   1.00
H810   H     0.49219   0.60723   0.55267   0.00000  Uiso   1.00
S811   S     0.00519   0.64775   0.38617   0.00000  Uiso   1.00
O812   O     0.47469   0.61238   0.36828   0.00000  Uiso   1.00
O813   O     0.04723   0.62939   0.37616   0.00000  Uiso   1.00
O814   O     0.49966   0.64109   0.44082   0.00000  Uiso   1.00
H815   H     0.00781   0.60723   0.44733   0.00000  Uiso   1.00
S816   S     0.00519   0.85225   0.61383   0.00000  Uiso   1.00
O817   O     0.47469   0.88762   0.63172   0.00000  Uiso   1.00
O818   O     0.04723   0.87061   0.62384   0.00000  Uiso   1.00
O819   O     0.49966   0.85891   0.55918   0.00000  Uiso   1.00
H820   H     0.00780   0.89277   0.55268   0.00000  Uiso   1.00
S821   S     0.24481   0.60225   0.38617   0.00000  Uiso   1.00
O822   O     0.27531   0.63762   0.36828   0.00000  Uiso   1.00
O823   O     0.20277   0.62061   0.37616   0.00000  Uiso   1.00
O824   O     0.25034   0.60891   0.44082   0.00000  Uiso   1.00
H825   H     0.24219   0.64277   0.44733   0.00000  Uiso   1.00
S826   S     0.24481   0.89775   0.61383   0.00000  Uiso   1.00
O827   O     0.27531   0.86238   0.63172   0.00000  Uiso   1.00
O828   O     0.20277   0.87939   0.62384   0.00000  Uiso   1.00
O829   O     0.25034   0.89109   0.55918   0.00000  Uiso   1.00
H830   H     0.24219   0.85723   0.55267   0.00000  Uiso   1.00
S831   S     0.25519   0.89775   0.38617   0.00000  Uiso   1.00
O832   O     0.22469   0.86238   0.36828   0.00000  Uiso   1.00
O833   O     0.29723   0.87939   0.37616   0.00000  Uiso   1.00
O834   O     0.24966   0.89109   0.44082   0.00000  Uiso   1.00
H835   H     0.25781   0.85723   0.44733   0.00000  Uiso   1.00
S836   S     0.25519   0.60225   0.61383   0.00000  Uiso   1.00
O837   O     0.22469   0.63762   0.63172   0.00000  Uiso   1.00
O838   O     0.29723   0.62061   0.62384   0.00000  Uiso   1.00
O839   O     0.24966   0.60891   0.55918   0.00000  Uiso   1.00
H840   H     0.25780   0.64277   0.55268   0.00000  Uiso   1.00
C841   C     0.56031   0.69068   0.50008   0.00000  Uiso   1.00
C842   C     0.93969   0.80932   0.50008   0.00000  Uiso   1.00
C843   C     0.93969   0.69068   0.49992   0.00000  Uiso   1.00
C844   C     0.56031   0.80932   0.49992   0.00000  Uiso   1.00
C845   C     0.81031   0.94068   0.50008   0.00000  Uiso   1.00
C846   C     0.68969   0.55932   0.50008   0.00000  Uiso   1.00
C847   C     0.68969   0.94068   0.49992   0.00000  Uiso   1.00
C848   C     0.81031   0.55932   0.49992   0.00000  Uiso   1.00
C849   C     0.99967   0.79365   0.35759   0.00000  Uiso   1.00
C850   C     0.99967   0.70635   0.64241   0.00000  Uiso   1.00
C851   C     0.50033   0.70635   0.35759   0.00000  Uiso   1.00
C852   C     0.50033   0.79365   0.64241   0.00000  Uiso   1.00
C853   C     0.74967   0.54365   0.35759   0.00000  Uiso   1.00
C854   C     0.74967   0.95635   0.64241   0.00000  Uiso   1.00
C855   C     0.75033   0.95635   0.35759   0.00000  Uiso   1.00
C856   C     0.75033   0.54365   0.64241   0.00000  Uiso   1.00
C857   C     0.89081   0.64125   0.45913   0.00000  Uiso   1.00
C858   C     0.60988   0.85798   0.53982   0.00000  Uiso   1.00
C859   C     0.60919   0.85875   0.45913   0.00000  Uiso   1.00
C860   C     0.89012   0.64202   0.53982   0.00000  Uiso   1.00
C861   C     0.60920   0.64125   0.54087   0.00000  Uiso   1.00
C862   C     0.89012   0.85798   0.46018   0.00000  Uiso   1.00
C863   C     0.89081   0.85875   0.54087   0.00000  Uiso   1.00
C864   C     0.60988   0.64202   0.46018   0.00000  Uiso   1.00
C865   C     0.64081   0.89125   0.45913   0.00000  Uiso   1.00
C866   C     0.85988   0.60798   0.53982   0.00000  Uiso   1.00
C867   C     0.85919   0.60875   0.45913   0.00000  Uiso   1.00
C868   C     0.64012   0.89202   0.53982   0.00000  Uiso   1.00
C869   C     0.85920   0.89125   0.54087   0.00000  Uiso   1.00
C870   C     0.64012   0.60798   0.46018   0.00000  Uiso   1.00
C871   C     0.64081   0.60875   0.54087   0.00000  Uiso   1.00
C872   C     0.85988   0.89202   0.46018   0.00000  Uiso   1.00
C873   C     0.59373   0.84219   0.49959   0.00000  Uiso   1.00
C874   C     0.90627   0.65781   0.49959   0.00000  Uiso   1.00
C875   C     0.90627   0.84219   0.50041   0.00000  Uiso   1.00
C876   C     0.59373   0.65781   0.50041   0.00000  Uiso   1.00
C877   C     0.84373   0.59219   0.49959   0.00000  Uiso   1.00
C878   C     0.65627   0.90781   0.49959   0.00000  Uiso   1.00
C879   C     0.65627   0.59219   0.50041   0.00000  Uiso   1.00
C880   C     0.84373   0.90781   0.50041   0.00000  Uiso   1.00
H881   H     0.90290   0.65335   0.42760   0.00000  Uiso   1.00
H882   H     0.59922   0.84424   0.57123   0.00000  Uiso   1.00
H883   H     0.59710   0.84665   0.42760   0.00000  Uiso   1.00
H884   H     0.90078   0.65576   0.57123   0.00000  Uiso   1.00
H885   H     0.59710   0.65335   0.57240   0.00000  Uiso   1.00
H886   H     0.90078   0.84424   0.42877   0.00000  Uiso   1.00
H887   H     0.90290   0.84666   0.57240   0.00000  Uiso   1.00
H888   H     0.59922   0.65576   0.42877   0.00000  Uiso   1.00
H889   H     0.65290   0.90335   0.42760   0.00000  Uiso   1.00
H890   H     0.84922   0.59424   0.57123   0.00000  Uiso   1.00
H891   H     0.84710   0.59665   0.42760   0.00000  Uiso   1.00
H892   H     0.65078   0.90576   0.57123   0.00000  Uiso   1.00
H893   H     0.84710   0.90335   0.57240   0.00000  Uiso   1.00
H894   H     0.65078   0.59424   0.42877   0.00000  Uiso   1.00
H895   H     0.65290   0.59666   0.57240   0.00000  Uiso   1.00
H896   H     0.84922   0.90576   0.42877   0.00000  Uiso   1.00
N897   N     0.50000   0.75000   0.61907   0.00000  Uiso   1.00
N898   N     0.50000   0.75000   0.38093   0.00000  Uiso   1.00
N899   N     0.75000   0.50000   0.61907   0.00000  Uiso   1.00
N900   N     0.75000   0.50000   0.38093   0.00000  Uiso   1.00
O901   O     0.54581   0.70419   0.53821   0.00000  Uiso   1.00
O902   O     0.95420   0.79581   0.46179   0.00000  Uiso   1.00
O903   O     0.95420   0.79581   0.53821   0.00000  Uiso   1.00
O904   O     0.54581   0.70419   0.46179   0.00000  Uiso   1.00
O905   O     0.95420   0.70419   0.46179   0.00000  Uiso   1.00
O906   O     0.54581   0.79581   0.53821   0.00000  Uiso   1.00
O907   O     0.54581   0.79581   0.46179   0.00000  Uiso   1.00
O908   O     0.95420   0.70419   0.53821   0.00000  Uiso   1.00
O909   O     0.79581   0.95419   0.53821   0.00000  Uiso   1.00
O910   O     0.70420   0.54581   0.46179   0.00000  Uiso   1.00
O911   O     0.70420   0.54581   0.53821   0.00000  Uiso   1.00
O912   O     0.79581   0.95419   0.46179   0.00000  Uiso   1.00
O913   O     0.70420   0.95419   0.46179   0.00000  Uiso   1.00
O914   O     0.79581   0.54581   0.53821   0.00000  Uiso   1.00
O915   O     0.79581   0.54581   0.46179   0.00000  Uiso   1.00
O916   O     0.70420   0.95419   0.53821   0.00000  Uiso   1.00
Zn917  Zn    0.50000   0.75000   0.55104   0.00000  Uiso   1.00
Zn918  Zn    0.50000   0.75000   0.44896   0.00000  Uiso   1.00
Zn919  Zn    0.75000   0.50000   0.55104   0.00000  Uiso   1.00
Zn920  Zn    0.75000   0.50000   0.44896   0.00000  Uiso   1.00
S921   S     0.99481   0.85225   0.38617   0.00000  Uiso   1.00
O922   O     0.52531   0.88762   0.36828   0.00000  Uiso   1.00
O923   O     0.95277   0.87061   0.37616   0.00000  Uiso   1.00
O924   O     0.50034   0.85891   0.44082   0.00000  Uiso   1.00
H925   H     0.99219   0.89277   0.44733   0.00000  Uiso   1.00
S926   S     0.99481   0.64775   0.61383   0.00000  Uiso   1.00
O927   O     0.52531   0.61238   0.63172   0.00000  Uiso   1.00
O928   O     0.95277   0.62939   0.62384   0.00000  Uiso   1.00
O929   O     0.50034   0.64109   0.55918   0.00000  Uiso   1.00
H930   H     0.99219   0.60723   0.55267   0.00000  Uiso   1.00
S931   S     0.50519   0.64775   0.38617   0.00000  Uiso   1.00
O932   O     0.97469   0.61238   0.36828   0.00000  Uiso   1.00
O933   O     0.54723   0.62939   0.37616   0.00000  Uiso   1.00
O934   O     0.99966   0.64109   0.44082   0.00000  Uiso   1.00
H935   H     0.50781   0.60723   0.44733   0.00000  Uiso   1.00
S936   S     0.50519   0.85225   0.61383   0.00000  Uiso   1.00
O937   O     0.97469   0.88762   0.63172   0.00000  Uiso   1.00
O938   O     0.54723   0.87061   0.62384   0.00000  Uiso   1.00
O939   O     0.99966   0.85891   0.55918   0.00000  Uiso   1.00
H940   H     0.50780   0.89277   0.55268   0.00000  Uiso   1.00
S941   S     0.74481   0.60225   0.38617   0.00000  Uiso   1.00
O942   O     0.77531   0.63762   0.36828   0.00000  Uiso   1.00
O943   O     0.70277   0.62061   0.37616   0.00000  Uiso   1.00
O944   O     0.75034   0.60891   0.44082   0.00000  Uiso   1.00
H945   H     0.74219   0.64277   0.44733   0.00000  Uiso   1.00
S946   S     0.74481   0.89775   0.61383   0.00000  Uiso   1.00
O947   O     0.77531   0.86238   0.63172   0.00000  Uiso   1.00
O948   O     0.70277   0.87939   0.62384   0.00000  Uiso   1.00
O949   O     0.75034   0.89109   0.55918   0.00000  Uiso   1.00
H950   H     0.74219   0.85723   0.55267   0.00000  Uiso   1.00
S951   S     0.75519   0.89775   0.38617   0.00000  Uiso   1.00
O952   O     0.72469   0.86238   0.36828   0.00000  Uiso   1.00
O953   O     0.79723   0.87939   0.37616   0.00000  Uiso   1.00
O954   O     0.74966   0.89109   0.44082   0.00000  Uiso   1.00
H955   H     0.75781   0.85723   0.44733   0.00000  Uiso   1.00
S956   S     0.75519   0.60225   0.61383   0.00000  Uiso   1.00
O957   O     0.72469   0.63762   0.63172   0.00000  Uiso   1.00
O958   O     0.79723   0.62061   0.62384   0.00000  Uiso   1.00
O959   O     0.74966   0.60891   0.55918   0.00000  Uiso   1.00
H960   H     0.75780   0.64277   0.55268   0.00000  Uiso   1.00
C961   C     0.06031   0.19068   0.83341   0.00000  Uiso   1.00
C962   C     0.43969   0.30932   0.83341   0.00000  Uiso   1.00
C963   C     0.43969   0.19068   0.83326   0.00000  Uiso   1.00
C964   C     0.06031   0.30932   0.83326   0.00000  Uiso   1.00
C965   C     0.31031   0.44068   0.83341   0.00000  Uiso   1.00
C966   C     0.18969   0.05932   0.83341   0.00000  Uiso   1.00
C967   C     0.18969   0.44068   0.83326   0.00000  Uiso   1.00
C968   C     0.31031   0.05932   0.83326   0.00000  Uiso   1.00
C969   C     0.49967   0.29365   0.69092   0.00000  Uiso   1.00
C970   C     0.49967   0.20635   0.97574   0.00000  Uiso   1.00
C971   C     0.00033   0.20635   0.69092   0.00000  Uiso   1.00
C972   C     0.00033   0.29365   0.97574   0.00000  Uiso   1.00
C973   C     0.24967   0.04365   0.69092   0.00000  Uiso   1.00
C974   C     0.24967   0.45635   0.97574   0.00000  Uiso   1.00
C975   C     0.25033   0.45635   0.69092   0.00000  Uiso   1.00
C976   C     0.25033   0.04365   0.97574   0.00000  Uiso   1.00
C977   C     0.39081   0.14125   0.79246   0.00000  Uiso   1.00
C978   C     0.10988   0.35798   0.87315   0.00000  Uiso   1.00
C979   C     0.10919   0.35875   0.79246   0.00000  Uiso   1.00
C980   C     0.39012   0.14202   0.87315   0.00000  Uiso   1.00
C981   C     0.10920   0.14125   0.87421   0.00000  Uiso   1.00
C982   C     0.39012   0.35798   0.79351   0.00000  Uiso   1.00
C983   C     0.39081   0.35875   0.87421   0.00000  Uiso   1.00
C984   C     0.10988   0.14202   0.79351   0.00000  Uiso   1.00
C985   C     0.14081   0.39125   0.79246   0.00000  Uiso   1.00
C986   C     0.35988   0.10798   0.87315   0.00000  Uiso   1.00
C987   C     0.35919   0.10875   0.79246   0.00000  Uiso   1.00
C988   C     0.14012   0.39202   0.87315   0.00000  Uiso   1.00
C989   C     0.35920   0.39125   0.87421   0.00000  Uiso   1.00
C990   C     0.14012   0.10798   0.79351   0.00000  Uiso   1.00
C991   C     0.14081   0.10875   0.87421   0.00000  Uiso   1.00
C992   C     0.35988   0.39202   0.79351   0.00000  Uiso   1.00
C993   C     0.09373   0.34219   0.83293   0.00000  Uiso   1.00
C994   C     0.40627   0.15781   0.83293   0.00000  Uiso   1.00
C995   C     0.40627   0.34219   0.83374   0.00000  Uiso   1.00
C996   C     0.09373   0.15781   0.83374   0.00000  Uiso   1.00
C997   C     0.34373   0.09219   0.83293   0.00000  Uiso   1.00
C998   C     0.15627   0.40781   0.83293   0.00000  Uiso   1.00
C999   C     0.15627   0.09219   0.83374   0.00000  Uiso   1.00
C1000  C     0.34373   0.40781   0.83374   0.00000  Uiso   1.00
H1001  H     0.40290   0.15335   0.76094   0.00000  Uiso   1.00
H1002  H     0.09922   0.34424   0.90456   0.00000  Uiso   1.00
H1003  H     0.09710   0.34665   0.76094   0.00000  Uiso   1.00
H1004  H     0.40078   0.15576   0.90456   0.00000  Uiso   1.00
H1005  H     0.09710   0.15335   0.90573   0.00000  Uiso   1.00
H1006  H     0.40078   0.34424   0.76210   0.00000  Uiso   1.00
H1007  H     0.40290   0.34666   0.90573   0.00000  Uiso   1.00
H1008  H     0.09922   0.15576   0.76210   0.00000  Uiso   1.00
H1009  H     0.15290   0.40335   0.76094   0.00000  Uiso   1.00
H1010  H     0.34922   0.09424   0.90456   0.00000  Uiso   1.00
H1011  H     0.34710   0.09665   0.76094   0.00000  Uiso   1.00
H1012  H     0.15078   0.40576   0.90456   0.00000  Uiso   1.00
H1013  H     0.34710   0.40335   0.90573   0.00000  Uiso   1.00
H1014  H     0.15078   0.09424   0.76210   0.00000  Uiso   1.00
H1015  H     0.15290   0.09666   0.90573   0.00000  Uiso   1.00
H1016  H     0.34922   0.40576   0.76210   0.00000  Uiso   1.00
N1017  N     0.00000   0.25000   0.95240   0.00000  Uiso   1.00
N1018  N     0.00000   0.25000   0.71427   0.00000  Uiso   1.00
N1019  N     0.25000   0.00000   0.95240   0.00000  Uiso   1.00
N1020  N     0.25000   0.00000   0.71427   0.00000  Uiso   1.00
O1021  O     0.04581   0.20419   0.87154   0.00000  Uiso   1.00
O1022  O     0.45420   0.29581   0.79513   0.00000  Uiso   1.00
O1023  O     0.45420   0.29581   0.87154   0.00000  Uiso   1.00
O1024  O     0.04581   0.20419   0.79513   0.00000  Uiso   1.00
O1025  O     0.45420   0.20419   0.79513   0.00000  Uiso   1.00
O1026  O     0.04581   0.29581   0.87154   0.00000  Uiso   1.00
O1027  O     0.04581   0.29581   0.79513   0.00000  Uiso   1.00
O1028  O     0.45420   0.20419   0.87154   0.00000  Uiso   1.00
O1029  O     0.29581   0.45419   0.87154   0.00000  Uiso   1.00
O1030  O     0.20420   0.04581   0.79513   0.00000  Uiso   1.00
O1031  O     0.20420   0.04581   0.87154   0.00000  Uiso   1.00
O1032  O     0.29581   0.45419   0.79513   0.00000  Uiso   1.00
O1033  O     0.20420   0.45419   0.79513   0.00000  Uiso   1.00
O1034  O     0.29581   0.04581   0.87154   0.00000  Uiso   1.00
O1035  O     0.29581   0.04581   0.79513   0.00000  Uiso   1.00
O1036  O     0.20420   0.45419   0.87154   0.00000  Uiso   1.00
Zn1037 Zn    0.00000   0.25000   0.88437   0.00000  Uiso   1.00
Zn1038 Zn    0.00000   0.25000   0.78229   0.00000  Uiso   1.00
Zn1039 Zn    0.25000   0.00000   0.88437   0.00000  Uiso   1.00
Zn1040 Zn    0.25000   0.00000   0.78229   0.00000  Uiso   1.00
S1041  S     0.49481   0.35225   0.71950   0.00000  Uiso   1.00
O1042  O     0.02531   0.38762   0.70161   0.00000  Uiso   1.00
O1043  O     0.45277   0.37061   0.70950   0.00000  Uiso   1.00
O1044  O     0.00034   0.35891   0.77416   0.00000  Uiso   1.00
H1045  H     0.49219   0.39277   0.78066   0.00000  Uiso   1.00
S1046  S     0.49481   0.14775   0.94716   0.00000  Uiso   1.00
O1047  O     0.02531   0.11238   0.96505   0.00000  Uiso   1.00
O1048  O     0.45277   0.12939   0.95717   0.00000  Uiso   1.00
O1049  O     0.00034   0.14109   0.89251   0.00000  Uiso   1.00
H1050  H     0.49219   0.10723   0.88601   0.00000  Uiso   1.00
S1051  S     0.00519   0.14775   0.71950   0.00000  Uiso   1.00
O1052  O     0.47469   0.11238   0.70161   0.00000  Uiso   1.00
O1053  O     0.04723   0.12939   0.70950   0.00000  Uiso   1.00
O1054  O     0.49966   0.14109   0.77416   0.00000  Uiso   1.00
H1055  H     0.00781   0.10723   0.78066   0.00000  Uiso   1.00
S1056  S     0.00519   0.35225   0.94716   0.00000  Uiso   1.00
O1057  O     0.47469   0.38762   0.96505   0.00000  Uiso   1.00
O1058  O     0.04723   0.37061   0.95717   0.00000  Uiso   1.00
O1059  O     0.49966   0.35891   0.89251   0.00000  Uiso   1.00
H1060  H     0.00780   0.39277   0.88601   0.00000  Uiso   1.00
S1061  S     0.24481   0.10225   0.71950   0.00000  Uiso   1.00
O1062  O     0.27531   0.13762   0.70161   0.00000  Uiso   1.00
O1063  O     0.20277   0.12061   0.70950   0.00000  Uiso   1.00
O1064  O     0.25034   0.10891   0.77416   0.00000  Uiso   1.00
H1065  H     0.24219   0.14277   0.78066   0.00000  Uiso   1.00
S1066  S     0.24481   0.39775   0.94716   0.00000  Uiso   1.00
O1067  O     0.27531   0.36238   0.96505   0.00000  Uiso   1.00
O1068  O     0.20277   0.37939   0.95717   0.00000  Uiso   1.00
O1069  O     0.25034   0.39109   0.89251   0.00000  Uiso   1.00
H1070  H     0.24219   0.35723   0.88601   0.00000  Uiso   1.00
S1071  S     0.25519   0.39775   0.71950   0.00000  Uiso   1.00
O1072  O     0.22469   0.36238   0.70161   0.00000  Uiso   1.00
O1073  O     0.29723   0.37939   0.70950   0.00000  Uiso   1.00
O1074  O     0.24966   0.39109   0.77416   0.00000  Uiso   1.00
H1075  H     0.25781   0.35723   0.78066   0.00000  Uiso   1.00
S1076  S     0.25519   0.10225   0.94716   0.00000  Uiso   1.00
O1077  O     0.22469   0.13762   0.96505   0.00000  Uiso   1.00
O1078  O     0.29723   0.12061   0.95717   0.00000  Uiso   1.00
O1079  O     0.24966   0.10891   0.89251   0.00000  Uiso   1.00
H1080  H     0.25780   0.14277   0.88601   0.00000  Uiso   1.00
C1081  C     0.56031   0.19068   0.83341   0.00000  Uiso   1.00
C1082  C     0.93969   0.30932   0.83341   0.00000  Uiso   1.00
C1083  C     0.93969   0.19068   0.83326   0.00000  Uiso   1.00
C1084  C     0.56031   0.30932   0.83326   0.00000  Uiso   1.00
C1085  C     0.81031   0.44068   0.83341   0.00000  Uiso   1.00
C1086  C     0.68969   0.05932   0.83341   0.00000  Uiso   1.00
C1087  C     0.68969   0.44068   0.83326   0.00000  Uiso   1.00
C1088  C     0.81031   0.05932   0.83326   0.00000  Uiso   1.00
C1089  C     0.99967   0.29365   0.69092   0.00000  Uiso   1.00
C1090  C     0.99967   0.20635   0.97574   0.00000  Uiso   1.00
C1091  C     0.50033   0.20635   0.69092   0.00000  Uiso   1.00
C1092  C     0.50033   0.29365   0.97574   0.00000  Uiso   1.00
C1093  C     0.74967   0.04365   0.69092   0.00000  Uiso   1.00
C1094  C     0.74967   0.45635   0.97574   0.00000  Uiso   1.00
C1095  C     0.75033   0.45635   0.69092   0.00000  Uiso   1.00
C1096  C     0.75033   0.04365   0.97574   0.00000  Uiso   1.00
C1097  C     0.89081   0.14125   0.79246   0.00000  Uiso   1.00
C1098  C     0.60988   0.35798   0.87315   0.00000  Uiso   1.00
C1099  C     0.60919   0.35875   0.79246   0.00000  Uiso   1.00
C1100  C     0.89012   0.14202   0.87315   0.00000  Uiso   1.00
C1101  C     0.60920   0.14125   0.87421   0.00000  Uiso   1.00
C1102  C     0.89012   0.35798   0.79351   0.00000  Uiso   1.00
C1103  C     0.89081   0.35875   0.87421   0.00000  Uiso   1.00
C1104  C     0.60988   0.14202   0.79351   0.00000  Uiso   1.00
C1105  C     0.64081   0.39125   0.79246   0.00000  Uiso   1.00
C1106  C     0.85988   0.10798   0.87315   0.00000  Uiso   1.00
C1107  C     0.85919   0.10875   0.79246   0.00000  Uiso   1.00
C1108  C     0.64012   0.39202   0.87315   0.00000  Uiso   1.00
C1109  C     0.85920   0.39125   0.87421   0.00000  Uiso   1.00
C1110  C     0.64012   0.10798   0.79351   0.00000  Uiso   1.00
C1111  C     0.64081   0.10875   0.87421   0.00000  Uiso   1.00
C1112  C     0.85988   0.39202   0.79351   0.00000  Uiso   1.00
C1113  C     0.59373   0.34219   0.83293   0.00000  Uiso   1.00
C1114  C     0.90627   0.15781   0.83293   0.00000  Uiso   1.00
C1115  C     0.90627   0.34219   0.83374   0.00000  Uiso   1.00
C1116  C     0.59373   0.15781   0.83374   0.00000  Uiso   1.00
C1117  C     0.84373   0.09219   0.83293   0.00000  Uiso   1.00
C1118  C     0.65627   0.40781   0.83293   0.00000  Uiso   1.00
C1119  C     0.65627   0.09219   0.83374   0.00000  Uiso   1.00
C1120  C     0.84373   0.40781   0.83374   0.00000  Uiso   1.00
H1121  H     0.90290   0.15335   0.76094   0.00000  Uiso   1.00
H1122  H     0.59922   0.34424   0.90456   0.00000  Uiso   1.00
H1123  H     0.59710   0.34665   0.76094   0.00000  Uiso   1.00
H1124  H     0.90078   0.15576   0.90456   0.00000  Uiso   1.00
H1125  H     0.59710   0.15335   0.90573   0.00000  Uiso   1.00
H1126  H     0.90078   0.34424   0.76210   0.00000  Uiso   1.00
H1127  H     0.90290   0.34666   0.90573   0.00000  Uiso   1.00
H1128  H     0.59922   0.15576   0.76210   0.00000  Uiso   1.00
H1129  H     0.65290   0.40335   0.76094   0.00000  Uiso   1.00
H1130  H     0.84922   0.09424   0.90456   0.00000  Uiso   1.00
H1131  H     0.84710   0.09665   0.76094   0.00000  Uiso   1.00
H1132  H     0.65078   0.40576   0.90456   0.00000  Uiso   1.00
H1133  H     0.84710   0.40335   0.90573   0.00000  Uiso   1.00
H1134  H     0.65078   0.09424   0.76210   0.00000  Uiso   1.00
H1135  H     0.65290   0.09666   0.90573   0.00000  Uiso   1.00
H1136  H     0.84922   0.40576   0.76210   0.00000  Uiso   1.00
N1137  N     0.50000   0.25000   0.95240   0.00000  Uiso   1.00
N1138  N     0.50000   0.25000   0.71427   0.00000  Uiso   1.00
N1139  N     0.75000   0.00000   0.95240   0.00000  Uiso   1.00
N1140  N     0.75000   0.00000   0.71427   0.00000  Uiso   1.00
O1141  O     0.54581   0.20419   0.87154   0.00000  Uiso   1.00
O1142  O     0.95420   0.29581   0.79513   0.00000  Uiso   1.00
O1143  O     0.95420   0.29581   0.87154   0.00000  Uiso   1.00
O1144  O     0.54581   0.20419   0.79513   0.00000  Uiso   1.00
O1145  O     0.95420   0.20419   0.79513   0.00000  Uiso   1.00
O1146  O     0.54581   0.29581   0.87154   0.00000  Uiso   1.00
O1147  O     0.54581   0.29581   0.79513   0.00000  Uiso   1.00
O1148  O     0.95420   0.20419   0.87154   0.00000  Uiso   1.00
O1149  O     0.79581   0.45419   0.87154   0.00000  Uiso   1.00
O1150  O     0.70420   0.04581   0.79513   0.00000  Uiso   1.00
O1151  O     0.70420   0.04581   0.87154   0.00000  Uiso   1.00
O1152  O     0.79581   0.45419   0.79513   0.00000  Uiso   1.00
O1153  O     0.70420   0.45419   0.79513   0.00000  Uiso   1.00
O1154  O     0.79581   0.04581   0.87154   0.00000  Uiso   1.00
O1155  O     0.79581   0.04581   0.79513   0.00000  Uiso   1.00
O1156  O     0.70420   0.45419   0.87154   0.00000  Uiso   1.00
Zn1157 Zn    0.50000   0.25000   0.88437   0.00000  Uiso   1.00
Zn1158 Zn    0.50000   0.25000   0.78229   0.00000  Uiso   1.00
Zn1159 Zn    0.75000   0.00000   0.88437   0.00000  Uiso   1.00
Zn1160 Zn    0.75000   0.00000   0.78229   0.00000  Uiso   1.00
S1161  S     0.99481   0.35225   0.71950   0.00000  Uiso   1.00
O1162  O     0.52531   0.38762   0.70161   0.00000  Uiso   1.00
O1163  O     0.95277   0.37061   0.70950   0.00000  Uiso   1.00
O1164  O     0.50034   0.35891   0.77416   0.00000  Uiso   1.00
H1165  H     0.99219   0.39277   0.78066   0.00000  Uiso   1.00
S1166  S     0.99481   0.14775   0.94716   0.00000  Uiso   1.00
O1167  O     0.52531   0.11238   0.96505   0.00000  Uiso   1.00
O1168  O     0.95277   0.12939   0.95717   0.00000  Uiso   1.00
O1169  O     0.50034   0.14109   0.89251   0.00000  Uiso   1.00
H1170  H     0.99219   0.10723   0.88601   0.00000  Uiso   1.00
S1171  S     0.50519   0.14775   0.71950   0.00000  Uiso   1.00
O1172  O     0.97469   0.11238   0.70161   0.00000  Uiso   1.00
O1173  O     0.54723   0.12939   0.70950   0.00000  Uiso   1.00
O1174  O     0.99966   0.14109   0.77416   0.00000  Uiso   1.00
H1175  H     0.50781   0.10723   0.78066   0.00000  Uiso   1.00
S1176  S     0.50519   0.35225   0.94716   0.00000  Uiso   1.00
O1177  O     0.97469   0.38762   0.96505   0.00000  Uiso   1.00
O1178  O     0.54723   0.37061   0.95717   0.00000  Uiso   1.00
O1179  O     0.99966   0.35891   0.89251   0.00000  Uiso   1.00
H1180  H     0.50780   0.39277   0.88601   0.00000  Uiso   1.00
S1181  S     0.74481   0.10225   0.71950   0.00000  Uiso   1.00
O1182  O     0.77531   0.13762   0.70161   0.00000  Uiso   1.00
O1183  O     0.70277   0.12061   0.70950   0.00000  Uiso   1.00
O1184  O     0.75034   0.10891   0.77416   0.00000  Uiso   1.00
H1185  H     0.74219   0.14277   0.78066   0.00000  Uiso   1.00
S1186  S     0.74481   0.39775   0.94716   0.00000  Uiso   1.00
O1187  O     0.77531   0.36238   0.96505   0.00000  Uiso   1.00
O1188  O     0.70277   0.37939   0.95717   0.00000  Uiso   1.00
O1189  O     0.75034   0.39109   0.89251   0.00000  Uiso   1.00
H1190  H     0.74219   0.35723   0.88601   0.00000  Uiso   1.00
S1191  S     0.75519   0.39775   0.71950   0.00000  Uiso   1.00
O1192  O     0.72469   0.36238   0.70161   0.00000  Uiso   1.00
O1193  O     0.79723   0.37939   0.70950   0.00000  Uiso   1.00
O1194  O     0.74966   0.39109   0.77416   0.00000  Uiso   1.00
H1195  H     0.75781   0.35723   0.78066   0.00000  Uiso   1.00
S1196  S     0.75519   0.10225   0.94716   0.00000  Uiso   1.00
O1197  O     0.72469   0.13762   0.96505   0.00000  Uiso   1.00
O1198  O     0.79723   0.12061   0.95717   0.00000  Uiso   1.00
O1199  O     0.74966   0.10891   0.89251   0.00000  Uiso   1.00
H1200  H     0.75780   0.14277   0.88601   0.00000  Uiso   1.00
C1201  C     0.06031   0.69068   0.83341   0.00000  Uiso   1.00
C1202  C     0.43969   0.80932   0.83341   0.00000  Uiso   1.00
C1203  C     0.43969   0.69068   0.83326   0.00000  Uiso   1.00
C1204  C     0.06031   0.80932   0.83326   0.00000  Uiso   1.00
C1205  C     0.31031   0.94068   0.83341   0.00000  Uiso   1.00
C1206  C     0.18969   0.55932   0.83341   0.00000  Uiso   1.00
C1207  C     0.18969   0.94068   0.83326   0.00000  Uiso   1.00
C1208  C     0.31031   0.55932   0.83326   0.00000  Uiso   1.00
C1209  C     0.49967   0.79365   0.69092   0.00000  Uiso   1.00
C1210  C     0.49967   0.70635   0.97574   0.00000  Uiso   1.00
C1211  C     0.00033   0.70635   0.69092   0.00000  Uiso   1.00
C1212  C     0.00033   0.79365   0.97574   0.00000  Uiso   1.00
C1213  C     0.24967   0.54365   0.69092   0.00000  Uiso   1.00
C1214  C     0.24967   0.95635   0.97574   0.00000  Uiso   1.00
C1215  C     0.25033   0.95635   0.69092   0.00000  Uiso   1.00
C1216  C     0.25033   0.54365   0.97574   0.00000  Uiso   1.00
C1217  C     0.39081   0.64125   0.79246   0.00000  Uiso   1.00
C1218  C     0.10988   0.85798   0.87315   0.00000  Uiso   1.00
C1219  C     0.10919   0.85875   0.79246   0.00000  Uiso   1.00
C1220  C     0.39012   0.64202   0.87315   0.00000  Uiso   1.00
C1221  C     0.10920   0.64125   0.87421   0.00000  Uiso   1.00
C1222  C     0.39012   0.85798   0.79351   0.00000  Uiso   1.00
C1223  C     0.39081   0.85875   0.87421   0.00000  Uiso   1.00
C1224  C     0.10988   0.64202   0.79351   0.00000  Uiso   1.00
C1225  C     0.14081   0.89125   0.79246   0.00000  Uiso   1.00
C1226  C     0.35988   0.60798   0.87315   0.00000  Uiso   1.00
C1227  C     0.35919   0.60875   0.79246   0.00000  Uiso   1.00
C1228  C     0.14012   0.89202   0.87315   0.00000  Uiso   1.00
C1229  C     0.35920   0.89125   0.87421   0.00000  Uiso   1.00
C1230  C     0.14012   0.60798   0.79351   0.00000  Uiso   1.00
C1231  C     0.14081   0.60875   0.87421   0.00000  Uiso   1.00
C1232  C     0.35988   0.89202   0.79351   0.00000  Uiso   1.00
C1233  C     0.09373   0.84219   0.83293   0.00000  Uiso   1.00
C1234  C     0.40627   0.65781   0.83293   0.00000  Uiso   1.00
C1235  C     0.40627   0.84219   0.83374   0.00000  Uiso   1.00
C1236  C     0.09373   0.65781   0.83374   0.00000  Uiso   1.00
C1237  C     0.34373   0.59219   0.83293   0.00000  Uiso   1.00
C1238  C     0.15627   0.90781   0.83293   0.00000  Uiso   1.00
C1239  C     0.15627   0.59219   0.83374   0.00000  Uiso   1.00
C1240  C     0.34373   0.90781   0.83374   0.00000  Uiso   1.00
H1241  H     0.40290   0.65335   0.76094   0.00000  Uiso   1.00
H1242  H     0.09922   0.84424   0.90456   0.00000  Uiso   1.00
H1243  H     0.09710   0.84665   0.76094   0.00000  Uiso   1.00
H1244  H     0.40078   0.65576   0.90456   0.00000  Uiso   1.00
H1245  H     0.09710   0.65335   0.90573   0.00000  Uiso   1.00
H1246  H     0.40078   0.84424   0.76210   0.00000  Uiso   1.00
H1247  H     0.40290   0.84666   0.90573   0.00000  Uiso   1.00
H1248  H     0.09922   0.65576   0.76210   0.00000  Uiso   1.00
H1249  H     0.15290   0.90335   0.76094   0.00000  Uiso   1.00
H1250  H     0.34922   0.59424   0.90456   0.00000  Uiso   1.00
H1251  H     0.34710   0.59665   0.76094   0.00000  Uiso   1.00
H1252  H     0.15078   0.90576   0.90456   0.00000  Uiso   1.00
H1253  H     0.34710   0.90335   0.90573   0.00000  Uiso   1.00
H1254  H     0.15078   0.59424   0.76210   0.00000  Uiso   1.00
H1255  H     0.15290   0.59666   0.90573   0.00000  Uiso   1.00
H1256  H     0.34922   0.90576   0.76210   0.00000  Uiso   1.00
N1257  N     0.00000   0.75000   0.95240   0.00000  Uiso   1.00
N1258  N     0.00000   0.75000   0.71427   0.00000  Uiso   1.00
N1259  N     0.25000   0.50000   0.95240   0.00000  Uiso   1.00
N1260  N     0.25000   0.50000   0.71427   0.00000  Uiso   1.00
O1261  O     0.04581   0.70419   0.87154   0.00000  Uiso   1.00
O1262  O     0.45420   0.79581   0.79513   0.00000  Uiso   1.00
O1263  O     0.45420   0.79581   0.87154   0.00000  Uiso   1.00
O1264  O     0.04581   0.70419   0.79513   0.00000  Uiso   1.00
O1265  O     0.45420   0.70419   0.79513   0.00000  Uiso   1.00
O1266  O     0.04581   0.79581   0.87154   0.00000  Uiso   1.00
O1267  O     0.04581   0.79581   0.79513   0.00000  Uiso   1.00
O1268  O     0.45420   0.70419   0.87154   0.00000  Uiso   1.00
O1269  O     0.29581   0.95419   0.87154   0.00000  Uiso   1.00
O1270  O     0.20420   0.54581   0.79513   0.00000  Uiso   1.00
O1271  O     0.20420   0.54581   0.87154   0.00000  Uiso   1.00
O1272  O     0.29581   0.95419   0.79513   0.00000  Uiso   1.00
O1273  O     0.20420   0.95419   0.79513   0.00000  Uiso   1.00
O1274  O     0.29581   0.54581   0.87154   0.00000  Uiso   1.00
O1275  O     0.29581   0.54581   0.79513   0.00000  Uiso   1.00
O1276  O     0.20420   0.95419   0.87154   0.00000  Uiso   1.00
Zn1277 Zn    0.00000   0.75000   0.88437   0.00000  Uiso   1.00
Zn1278 Zn    0.00000   0.75000   0.78229   0.00000  Uiso   1.00
Zn1279 Zn    0.25000   0.50000   0.88437   0.00000  Uiso   1.00
Zn1280 Zn    0.25000   0.50000   0.78229   0.00000  Uiso   1.00
S1281  S     0.49481   0.85225   0.71950   0.00000  Uiso   1.00
O1282  O     0.02531   0.88762   0.70161   0.00000  Uiso   1.00
O1283  O     0.45277   0.87061   0.70950   0.00000  Uiso   1.00
O1284  O     0.00034   0.85891   0.77416   0.00000  Uiso   1.00
H1285  H     0.49219   0.89277   0.78066   0.00000  Uiso   1.00
S1286  S     0.49481   0.64775   0.94716   0.00000  Uiso   1.00
O1287  O     0.02531   0.61238   0.96505   0.00000  Uiso   1.00
O1288  O     0.45277   0.62939   0.95717   0.00000  Uiso   1.00
O1289  O     0.00034   0.64109   0.89251   0.00000  Uiso   1.00
H1290  H     0.49219   0.60723   0.88601   0.00000  Uiso   1.00
S1291  S     0.00519   0.64775   0.71950   0.00000  Uiso   1.00
O1292  O     0.47469   0.61238   0.70161   0.00000  Uiso   1.00
O1293  O     0.04723   0.62939   0.70950   0.00000  Uiso   1.00
O1294  O     0.49966   0.64109   0.77416   0.00000  Uiso   1.00
H1295  H     0.00781   0.60723   0.78066   0.00000  Uiso   1.00
S1296  S     0.00519   0.85225   0.94716   0.00000  Uiso   1.00
O1297  O     0.47469   0.88762   0.96505   0.00000  Uiso   1.00
O1298  O     0.04723   0.87061   0.95717   0.00000  Uiso   1.00
O1299  O     0.49966   0.85891   0.89251   0.00000  Uiso   1.00
H1300  H     0.00780   0.89277   0.88601   0.00000  Uiso   1.00
S1301  S     0.24481   0.60225   0.71950   0.00000  Uiso   1.00
O1302  O     0.27531   0.63762   0.70161   0.00000  Uiso   1.00
O1303  O     0.20277   0.62061   0.70950   0.00000  Uiso   1.00
O1304  O     0.25034   0.60891   0.77416   0.00000  Uiso   1.00
H1305  H     0.24219   0.64277   0.78066   0.00000  Uiso   1.00
S1306  S     0.24481   0.89775   0.94716   0.00000  Uiso   1.00
O1307  O     0.27531   0.86238   0.96505   0.00000  Uiso   1.00
O1308  O     0.20277   0.87939   0.95717   0.00000  Uiso   1.00
O1309  O     0.25034   0.89109   0.89251   0.00000  Uiso   1.00
H1310  H     0.24219   0.85723   0.88601   0.00000  Uiso   1.00
S1311  S     0.25519   0.89775   0.71950   0.00000  Uiso   1.00
O1312  O     0.22469   0.86238   0.70161   0.00000  Uiso   1.00
O1313  O     0.29723   0.87939   0.70950   0.00000  Uiso   1.00
O1314  O     0.24966   0.89109   0.77416   0.00000  Uiso   1.00
H1315  H     0.25781   0.85723   0.78066   0.00000  Uiso   1.00
S1316  S     0.25519   0.60225   0.94716   0.00000  Uiso   1.00
O1317  O     0.22469   0.63762   0.96505   0.00000  Uiso   1.00
O1318  O     0.29723   0.62061   0.95717   0.00000  Uiso   1.00
O1319  O     0.24966   0.60891   0.89251   0.00000  Uiso   1.00
H1320  H     0.25780   0.64277   0.88601   0.00000  Uiso   1.00
C1321  C     0.56031   0.69068   0.83341   0.00000  Uiso   1.00
C1322  C     0.93969   0.80932   0.83341   0.00000  Uiso   1.00
C1323  C     0.93969   0.69068   0.83326   0.00000  Uiso   1.00
C1324  C     0.56031   0.80932   0.83326   0.00000  Uiso   1.00
C1325  C     0.81031   0.94068   0.83341   0.00000  Uiso   1.00
C1326  C     0.68969   0.55932   0.83341   0.00000  Uiso   1.00
C1327  C     0.68969   0.94068   0.83326   0.00000  Uiso   1.00
C1328  C     0.81031   0.55932   0.83326   0.00000  Uiso   1.00
C1329  C     0.99967   0.79365   0.69092   0.00000  Uiso   1.00
C1330  C     0.99967   0.70635   0.97574   0.00000  Uiso   1.00
C1331  C     0.50033   0.70635   0.69092   0.00000  Uiso   1.00
C1332  C     0.50033   0.79365   0.97574   0.00000  Uiso   1.00
C1333  C     0.74967   0.54365   0.69092   0.00000  Uiso   1.00
C1334  C     0.74967   0.95635   0.97574   0.00000  Uiso   1.00
C1335  C     0.75033   0.95635   0.69092   0.00000  Uiso   1.00
C1336  C     0.75033   0.54365   0.97574   0.00000  Uiso   1.00
C1337  C     0.89081   0.64125   0.79246   0.00000  Uiso   1.00
C1338  C     0.60988   0.85798   0.87315   0.00000  Uiso   1.00
C1339  C     0.60919   0.85875   0.79246   0.00000  Uiso   1.00
C1340  C     0.89012   0.64202   0.87315   0.00000  Uiso   1.00
C1341  C     0.60920   0.64125   0.87421   0.00000  Uiso   1.00
C1342  C     0.89012   0.85798   0.79351   0.00000  Uiso   1.00
C1343  C     0.89081   0.85875   0.87421   0.00000  Uiso   1.00
C1344  C     0.60988   0.64202   0.79351   0.00000  Uiso   1.00
C1345  C     0.64081   0.89125   0.79246   0.00000  Uiso   1.00
C1346  C     0.85988   0.60798   0.87315   0.00000  Uiso   1.00
C1347  C     0.85919   0.60875   0.79246   0.00000  Uiso   1.00
C1348  C     0.64012   0.89202   0.87315   0.00000  Uiso   1.00
C1349  C     0.85920   0.89125   0.87421   0.00000  Uiso   1.00
C1350  C     0.64012   0.60798   0.79351   0.00000  Uiso   1.00
C1351  C     0.64081   0.60875   0.87421   0.00000  Uiso   1.00
C1352  C     0.85988   0.89202   0.79351   0.00000  Uiso   1.00
C1353  C     0.59373   0.84219   0.83293   0.00000  Uiso   1.00
C1354  C     0.90627   0.65781   0.83293   0.00000  Uiso   1.00
C1355  C     0.90627   0.84219   0.83374   0.00000  Uiso   1.00
C1356  C     0.59373   0.65781   0.83374   0.00000  Uiso   1.00
C1357  C     0.84373   0.59219   0.83293   0.00000  Uiso   1.00
C1358  C     0.65627   0.90781   0.83293   0.00000  Uiso   1.00
C1359  C     0.65627   0.59219   0.83374   0.00000  Uiso   1.00
C1360  C     0.84373   0.90781   0.83374   0.00000  Uiso   1.00
H1361  H     0.90290   0.65335   0.76094   0.00000  Uiso   1.00
H1362  H     0.59922   0.84424   0.90456   0.00000  Uiso   1.00
H1363  H     0.59710   0.84665   0.76094   0.00000  Uiso   1.00
H1364  H     0.90078   0.65576   0.90456   0.00000  Uiso   1.00
H1365  H     0.59710   0.65335   0.90573   0.00000  Uiso   1.00
H1366  H     0.90078   0.84424   0.76210   0.00000  Uiso   1.00
H1367  H     0.90290   0.84666   0.90573   0.00000  Uiso   1.00
H1368  H     0.59922   0.65576   0.76210   0.00000  Uiso   1.00
H1369  H     0.65290   0.90335   0.76094   0.00000  Uiso   1.00
H1370  H     0.84922   0.59424   0.90456   0.00000  Uiso   1.00
H1371  H     0.84710   0.59665   0.76094   0.00000  Uiso   1.00
H1372  H     0.65078   0.90576   0.90456   0.00000  Uiso   1.00
H1373  H     0.84710   0.90335   0.90573   0.00000  Uiso   1.00
H1374  H     0.65078   0.59424   0.76210   0.00000  Uiso   1.00
H1375  H     0.65290   0.59666   0.90573   0.00000  Uiso   1.00
H1376  H     0.84922   0.90576   0.76210   0.00000  Uiso   1.00
N1377  N     0.50000   0.75000   0.95240   0.00000  Uiso   1.00
N1378  N     0.50000   0.75000   0.71427   0.00000  Uiso   1.00
N1379  N     0.75000   0.50000   0.95240   0.00000  Uiso   1.00
N1380  N     0.75000   0.50000   0.71427   0.00000  Uiso   1.00
O1381  O     0.54581   0.70419   0.87154   0.00000  Uiso   1.00
O1382  O     0.95420   0.79581   0.79513   0.00000  Uiso   1.00
O1383  O     0.95420   0.79581   0.87154   0.00000  Uiso   1.00
O1384  O     0.54581   0.70419   0.79513   0.00000  Uiso   1.00
O1385  O     0.95420   0.70419   0.79513   0.00000  Uiso   1.00
O1386  O     0.54581   0.79581   0.87154   0.00000  Uiso   1.00
O1387  O     0.54581   0.79581   0.79513   0.00000  Uiso   1.00
O1388  O     0.95420   0.70419   0.87154   0.00000  Uiso   1.00
O1389  O     0.79581   0.95419   0.87154   0.00000  Uiso   1.00
O1390  O     0.70420   0.54581   0.79513   0.00000  Uiso   1.00
O1391  O     0.70420   0.54581   0.87154   0.00000  Uiso   1.00
O1392  O     0.79581   0.95419   0.79513   0.00000  Uiso   1.00
O1393  O     0.70420   0.95419   0.79513   0.00000  Uiso   1.00
O1394  O     0.79581   0.54581   0.87154   0.00000  Uiso   1.00
O1395  O     0.79581   0.54581   0.79513   0.00000  Uiso   1.00
O1396  O     0.70420   0.95419   0.87154   0.00000  Uiso   1.00
Zn1397 Zn    0.50000   0.75000   0.88437   0.00000  Uiso   1.00
Zn1398 Zn    0.50000   0.75000   0.78229   0.00000  Uiso   1.00
Zn1399 Zn    0.75000   0.50000   0.88437   0.00000  Uiso   1.00
Zn1400 Zn    0.75000   0.50000   0.78229   0.00000  Uiso   1.00
S1401  S     0.99481   0.85225   0.71950   0.00000  Uiso   1.00
O1402  O     0.52531   0.88762   0.70161   0.00000  Uiso   1.00
O1403  O     0.95277   0.87061   0.70950   0.00000  Uiso   1.00
O1404  O     0.50034   0.85891   0.77416   0.00000  Uiso   1.00
H1405  H     0.99219   0.89277   0.78066   0.00000  Uiso   1.00
S1406  S     0.99481   0.64775   0.94716   0.00000  Uiso   1.00
O1407  O     0.52531   0.61238   0.96505   0.00000  Uiso   1.00
O1408  O     0.95277   0.62939   0.95717   0.00000  Uiso   1.00
O1409  O     0.50034   0.64109   0.89251   0.00000  Uiso   1.00
H1410  H     0.99219   0.60723   0.88601   0.00000  Uiso   1.00
S1411  S     0.50519   0.64775   0.71950   0.00000  Uiso   1.00
O1412  O     0.97469   0.61238   0.70161   0.00000  Uiso   1.00
O1413  O     0.54723   0.62939   0.70950   0.00000  Uiso   1.00
O1414  O     0.99966   0.64109   0.77416   0.00000  Uiso   1.00
H1415  H     0.50781   0.60723   0.78066   0.00000  Uiso   1.00
S1416  S     0.50519   0.85225   0.94716   0.00000  Uiso   1.00
O1417  O     0.97469   0.88762   0.96505   0.00000  Uiso   1.00
O1418  O     0.54723   0.87061   0.95717   0.00000  Uiso   1.00
O1419  O     0.99966   0.85891   0.89251   0.00000  Uiso   1.00
H1420  H     0.50780   0.89277   0.88601   0.00000  Uiso   1.00
S1421  S     0.74481   0.60225   0.71950   0.00000  Uiso   1.00
O1422  O     0.77531   0.63762   0.70161   0.00000  Uiso   1.00
O1423  O     0.70277   0.62061   0.70950   0.00000  Uiso   1.00
O1424  O     0.75034   0.60891   0.77416   0.00000  Uiso   1.00
H1425  H     0.74219   0.64277   0.78066   0.00000  Uiso   1.00
S1426  S     0.74481   0.89775   0.94716   0.00000  Uiso   1.00
O1427  O     0.77531   0.86238   0.96505   0.00000  Uiso   1.00
O1428  O     0.70277   0.87939   0.95717   0.00000  Uiso   1.00
O1429  O     0.75034   0.89109   0.89251   0.00000  Uiso   1.00
H1430  H     0.74219   0.85723   0.88601   0.00000  Uiso   1.00
S1431  S     0.75519   0.89775   0.71950   0.00000  Uiso   1.00
O1432  O     0.72469   0.86238   0.70161   0.00000  Uiso   1.00
O1433  O     0.79723   0.87939   0.70950   0.00000  Uiso   1.00
O1434  O     0.74966   0.89109   0.77416   0.00000  Uiso   1.00
H1435  H     0.75781   0.85723   0.78066   0.00000  Uiso   1.00
S1436  S     0.75519   0.60225   0.94716   0.00000  Uiso   1.00
O1437  O     0.72469   0.63762   0.96505   0.00000  Uiso   1.00
O1438  O     0.79723   0.62061   0.95717   0.00000  Uiso   1.00
O1439  O     0.74966   0.60891   0.89251   0.00000  Uiso   1.00
H1440  H     0.75780   0.64277   0.88601   0.00000  Uiso   1.00
loop_
_geom_bond_atom_site_label_1
_geom_bond_atom_site_label_2
_geom_bond_distance
_geom_bond_site_symmetry_2
_ccdc_geom_bond_type
C1     O64     1.304   .     A
C1     O61     1.300   .     A
C1     C36     1.424   .     S
C2     C35     1.424   .     S
C2     O63     1.300   .     A
C2     O62     1.304   .     A
C3     O68     1.304   .     A
C3     O65     1.300   .     A
C3     C34     1.424   .     S
C4     C33     1.424   .     S
C4     O67     1.300   .     A
C4     O66     1.304   .     A
C5     O72     1.304   .     A
C5     O69     1.300   .     A
C5     C40     1.424   .     S
C6     O71     1.300   .     A
C6     O70     1.304   .     A
C6     C39     1.424   .     S
C7     O73     1.300   .     A
C7     C38     1.424   .     S
C7     O76     1.304   .     A
C8     O75     1.300   .     A
C8     O74     1.304   .     A
C8     C37     1.424   .     S
C9     N178    1.395   .     A
C9     S81     1.839   .     S
C9     C1092   1.464   1_554 S
C10    S86     1.839   .     S
C10    C611    1.464   .     S
C10    N177    1.395   .     S
C11    S91     1.839   .     S
C11    C1090   1.464   1_454 S
C11    N58     1.395   .     S
C12    N57     1.395   .     A
C12    S96     1.839   .     S
C12    C609    1.464   1_455 S
C13    N60     1.395   .     A
C13    S101    1.839   .     S
C13    C976    1.464   1_554 S
C14    S106    1.839   .     S
C14    C495    1.464   .     S
C14    N299    1.395   .     S
C15    S111    1.839   .     S
C15    C974    1.464   1_554 S
C15    N300    1.395   .     S
C16    S116    1.839   .     S
C16    N59     1.395   .     A
C16    C493    1.464   .     S
C17    H41     1.083   .     S
C17    C27     1.372   .     A
C17    C34     1.399   .     A
C18    C28     1.367   .     A
C18    H42     1.079   .     S
C18    C33     1.394   .     A
C19    H43     1.083   .     S
C19    C33     1.399   .     A
C19    C25     1.372   .     A
C20    C34     1.394   .     A
C20    H44     1.079   .     S
C20    C26     1.367   .     A
C21    C31     1.372   .     A
C21    H45     1.083   .     S
C21    C36     1.399   .     A
C22    C32     1.367   .     A
C22    C35     1.394   .     A
C22    H46     1.079   .     S
C23    C29     1.372   .     A
C23    H47     1.083   .     S
C23    C35     1.399   .     A
C24    C36     1.394   .     A
C24    H48     1.079   .     S
C24    C30     1.367   .     A
C25    C38     1.399   .     A
C25    H49     1.083   .     S
C26    H50     1.079   .     S
C26    C37     1.394   .     A
C27    H51     1.083   .     S
C27    C37     1.399   .     A
C28    C38     1.394   .     A
C28    H52     1.079   .     S
C29    H53     1.083   .     S
C29    C40     1.399   .     A
C30    H54     1.079   .     S
C30    C39     1.394   .     A
C31    C39     1.399   .     A
C31    H55     1.083   .     S
C32    C40     1.394   .     A
C32    H56     1.079   .     S
N57    Zn77    2.052   .     S
N57    C130    1.395   1_455 S
N58    C129    1.395   1_455 A
N58    Zn78    2.052   .     S
N59    Zn79    2.052   .     S
N59    C254    1.395   1_545 S
N60    Zn80    2.052   .     S
N60    C255    1.395   1_545 S
O61    Zn77    2.003   .     S
O62    Zn198   2.003   .     S
O63    Zn197   2.003   .     S
O64    Zn78    2.003   .     S
O65    Zn198   2.003   .     S
O66    Zn77    2.003   .     S
O67    Zn78    2.003   .     S
O68    Zn197   2.003   .     S
O69    Zn319   2.003   .     S
O70    Zn80    2.003   .     S
O71    Zn79    2.003   .     S
O72    Zn320   2.003   .     S
O73    Zn320   2.003   .     S
O74    Zn79    2.003   .     S
O75    Zn80    2.003   .     S
O76    Zn319   2.003   .     S
Zn77   O183    2.003   1_455 S
Zn77   O188    2.003   1_455 S
Zn78   O182    2.003   1_455 S
Zn78   O185    2.003   1_455 S
Zn79   O316    2.003   1_545 S
Zn79   O309    2.003   1_545 S
Zn80   O313    2.003   1_545 S
Zn80   O312    2.003   1_545 S
S81    O83     1.502   .     D
S81    O202    1.499   .     S
S81    O204    1.669   .     S
O82    S201    1.499   1_455 S
O84    S201    1.669   1_455 S
O84    H205    0.991   1_455 S
H85    O204    0.991   .     S
S86    O88     1.502   .     D
S86    O207    1.499   .     S
S86    O209    1.669   .     S
O87    S206    1.499   1_455 S
O89    S206    1.669   1_455 S
O89    H210    0.991   1_455 S
H90    O209    0.991   .     S
S91    O93     1.502   .     D
S91    O212    1.499   1_455 S
S91    O214    1.669   1_455 S
O92    S211    1.499   .     S
O94    S211    1.669   .     S
O94    H215    0.991   .     S
H95    O214    0.991   1_455 S
S96    O98     1.502   .     D
S96    O217    1.499   1_455 S
S96    O219    1.669   1_455 S
O97    S216    1.499   .     S
O99    S216    1.669   .     S
O99    H220    0.991   .     S
H100   O219    0.991   1_455 S
S101   O102    1.499   .     D
S101   O103    1.502   .     D
S101   O104    1.669   .     S
O104   H105    0.991   .     S
S106   O107    1.499   .     D
S106   O108    1.502   .     D
S106   O109    1.669   .     S
O109   H110    0.991   .     S
S111   O112    1.499   .     D
S111   O113    1.502   .     D
S111   O114    1.669   .     S
O114   H115    0.991   .     S
S116   O117    1.499   .     D
S116   O119    1.669   .     S
S116   O118    1.502   .     D
O119   H120    0.991   .     S
C121   O184    1.304   .     A
C121   O181    1.300   .     A
C121   C156    1.424   .     S
C122   C155    1.424   .     S
C122   O183    1.300   .     A
C122   O182    1.304   .     A
C123   O188    1.304   .     A
C123   O185    1.300   .     A
C123   C154    1.424   .     S
C124   C153    1.424   .     S
C124   O187    1.300   .     A
C124   O186    1.304   .     A
C125   O192    1.304   .     A
C125   O189    1.300   .     A
C125   C160    1.424   .     S
C126   O191    1.300   .     A
C126   O190    1.304   .     A
C126   C159    1.424   .     S
C127   O193    1.300   .     A
C127   C158    1.424   .     S
C127   O196    1.304   .     A
C128   O195    1.300   .     A
C128   O194    1.304   .     A
C128   C157    1.424   .     S
C129   N58     1.395   1_655 A
C129   S201    1.839   .     S
C129   C972    1.464   1_654 S
C130   S206    1.839   .     S
C130   C491    1.464   1_655 S
C130   N57     1.395   1_655 S
C131   S211    1.839   .     S
C131   C970    1.464   1_554 S
C131   N178    1.395   .     S
C132   N177    1.395   .     A
C132   S216    1.839   .     S
C132   C489    1.464   .     S
C133   N180    1.395   .     A
C133   S221    1.839   .     S
C133   C1096   1.464   1_554 S
C134   S226    1.839   .     S
C134   C615    1.464   .     S
C134   N419    1.395   .     S
C135   S231    1.839   .     S
C135   C1094   1.464   1_554 S
C135   N420    1.395   .     S
C136   S236    1.839   .     S
C136   N179    1.395   .     A
C136   C613    1.464   .     S
C137   H161    1.083   .     S
C137   C147    1.372   .     A
C137   C154    1.399   .     A
C138   C148    1.367   .     A
C138   H162    1.079   .     S
C138   C153    1.394   .     A
C139   H163    1.083   .     S
C139   C153    1.399   .     A
C139   C145    1.372   .     A
C140   C154    1.394   .     A
C140   H164    1.079   .     S
C140   C146    1.367   .     A
C141   C151    1.372   .     A
C141   H165    1.083   .     S
C141   C156    1.399   .     A
C142   C152    1.367   .     A
C142   C155    1.394   .     A
C142   H166    1.079   .     S
C143   C149    1.372   .     A
C143   H167    1.083   .     S
C143   C155    1.399   .     A
C144   C156    1.394   .     A
C144   H168    1.079   .     S
C144   C150    1.367   .     A
C145   C158    1.399   .     A
C145   H169    1.083   .     S
C146   H170    1.079   .     S
C146   C157    1.394   .     A
C147   H171    1.083   .     S
C147   C157    1.399   .     A
C148   C158    1.394   .     A
C148   H172    1.079   .     S
C149   H173    1.083   .     S
C149   C160    1.399   .     A
C150   H174    1.079   .     S
C150   C159    1.394   .     A
C151   C159    1.399   .     A
C151   H175    1.083   .     S
C152   C160    1.394   .     A
C152   H176    1.079   .     S
N177   Zn197   2.052   .     S
N178   Zn198   2.052   .     S
N179   Zn199   2.052   .     S
N179   C374    1.395   1_545 S
N180   Zn200   2.052   .     S
N180   C375    1.395   1_545 S
O181   Zn197   2.003   .     S
O182   Zn78    2.003   1_655 S
O183   Zn77    2.003   1_655 S
O184   Zn198   2.003   .     S
O185   Zn78    2.003   1_655 S
O186   Zn197   2.003   .     S
O187   Zn198   2.003   .     S
O188   Zn77    2.003   1_655 S
O189   Zn439   2.003   .     S
O190   Zn200   2.003   .     S
O191   Zn199   2.003   .     S
O192   Zn440   2.003   .     S
O193   Zn440   2.003   .     S
O194   Zn199   2.003   .     S
O195   Zn200   2.003   .     S
O196   Zn439   2.003   .     S
Zn199  O436    2.003   1_545 S
Zn199  O429    2.003   1_545 S
Zn200  O433    2.003   1_545 S
Zn200  O432    2.003   1_545 S
S201   O203    1.502   .     D
S201   O82     1.499   1_655 S
S201   O84     1.669   1_655 S
H205   O84     0.991   1_655 S
S206   O208    1.502   .     D
S206   O87     1.499   1_655 S
S206   O89     1.669   1_655 S
H210   O89     0.991   1_655 S
S211   O213    1.502   .     D
O212   S91     1.499   1_655 S
O214   S91     1.669   1_655 S
O214   H95     0.991   1_655 S
S216   O218    1.502   .     D
O217   S96     1.499   1_655 S
O219   S96     1.669   1_655 S
O219   H100    0.991   1_655 S
S221   O222    1.499   .     D
S221   O223    1.502   .     D
S221   O224    1.669   .     S
O224   H225    0.991   .     S
S226   O227    1.499   .     D
S226   O228    1.502   .     D
S226   O229    1.669   .     S
O229   H230    0.991   .     S
S231   O232    1.499   .     D
S231   O233    1.502   .     D
S231   O234    1.669   .     S
O234   H235    0.991   .     S
S236   O237    1.499   .     D
S236   O239    1.669   .     S
S236   O238    1.502   .     D
O239   H240    0.991   .     S
C241   O304    1.304   .     A
C241   O301    1.300   .     A
C241   C276    1.424   .     S
C242   C275    1.424   .     S
C242   O303    1.300   .     A
C242   O302    1.304   .     A
C243   O308    1.304   .     A
C243   O305    1.300   .     A
C243   C274    1.424   .     S
C244   C273    1.424   .     S
C244   O307    1.300   .     A
C244   O306    1.304   .     A
C245   O312    1.304   .     A
C245   O309    1.300   .     A
C245   C280    1.424   .     S
C246   O311    1.300   .     A
C246   O310    1.304   .     A
C246   C279    1.424   .     S
C247   O313    1.300   .     A
C247   C278    1.424   .     S
C247   O316    1.304   .     A
C248   O315    1.300   .     A
C248   O314    1.304   .     A
C248   C277    1.424   .     S
C249   N418    1.395   .     A
C249   S321    1.839   .     S
C249   C1332   1.464   1_554 S
C250   S326    1.839   .     S
C250   C851    1.464   .     S
C250   N417    1.395   .     S
C251   S331    1.839   .     S
C251   C1330   1.464   1_454 S
C251   N298    1.395   .     S
C252   N297    1.395   .     A
C252   S336    1.839   .     S
C252   C849    1.464   1_455 S
C253   N300    1.395   .     A
C253   S341    1.839   .     S
C253   C1216   1.464   1_554 S
C254   S346    1.839   .     S
C254   C735    1.464   .     S
C254   N59     1.395   1_565 S
C255   S351    1.839   .     S
C255   C1214   1.464   1_554 S
C255   N60     1.395   1_565 S
C256   S356    1.839   .     S
C256   N299    1.395   .     A
C256   C733    1.464   .     S
C257   H281    1.083   .     S
C257   C267    1.372   .     A
C257   C274    1.399   .     A
C258   C268    1.367   .     A
C258   H282    1.079   .     S
C258   C273    1.394   .     A
C259   H283    1.083   .     S
C259   C273    1.399   .     A
C259   C265    1.372   .     A
C260   C274    1.394   .     A
C260   H284    1.079   .     S
C260   C266    1.367   .     A
C261   C271    1.372   .     A
C261   H285    1.083   .     S
C261   C276    1.399   .     A
C262   C272    1.367   .     A
C262   C275    1.394   .     A
C262   H286    1.079   .     S
C263   C269    1.372   .     A
C263   H287    1.083   .     S
C263   C275    1.399   .     A
C264   C276    1.394   .     A
C264   H288    1.079   .     S
C264   C270    1.367   .     A
C265   C278    1.399   .     A
C265   H289    1.083   .     S
C266   H290    1.079   .     S
C266   C277    1.394   .     A
C267   H291    1.083   .     S
C267   C277    1.399   .     A
C268   C278    1.394   .     A
C268   H292    1.079   .     S
C269   H293    1.083   .     S
C269   C280    1.399   .     A
C270   H294    1.079   .     S
C270   C279    1.394   .     A
C271   C279    1.399   .     A
C271   H295    1.083   .     S
C272   C280    1.394   .     A
C272   H296    1.079   .     S
N297   Zn317   2.052   .     S
N297   C370    1.395   1_455 S
N298   C369    1.395   1_455 A
N298   Zn318   2.052   .     S
N299   Zn319   2.052   .     S
N300   Zn320   2.052   .     S
O301   Zn317   2.003   .     S
O302   Zn438   2.003   .     S
O303   Zn437   2.003   .     S
O304   Zn318   2.003   .     S
O305   Zn438   2.003   .     S
O306   Zn317   2.003   .     S
O307   Zn318   2.003   .     S
O308   Zn437   2.003   .     S
O309   Zn79    2.003   1_565 S
O310   Zn320   2.003   .     S
O311   Zn319   2.003   .     S
O312   Zn80    2.003   1_565 S
O313   Zn80    2.003   1_565 S
O314   Zn319   2.003   .     S
O315   Zn320   2.003   .     S
O316   Zn79    2.003   1_565 S
Zn317  O423    2.003   1_455 S
Zn317  O428    2.003   1_455 S
Zn318  O422    2.003   1_455 S
Zn318  O425    2.003   1_455 S
S321   O323    1.502   .     D
S321   O442    1.499   .     S
S321   O444    1.669   .     S
O322   S441    1.499   1_455 S
O324   S441    1.669   1_455 S
O324   H445    0.991   1_455 S
H325   O444    0.991   .     S
S326   O328    1.502   .     D
S326   O447    1.499   .     S
S326   O449    1.669   .     S
O327   S446    1.499   1_455 S
O329   S446    1.669   1_455 S
O329   H450    0.991   1_455 S
H330   O449    0.991   .     S
S331   O333    1.502   .     D
S331   O452    1.499   1_455 S
S331   O454    1.669   1_455 S
O332   S451    1.499   .     S
O334   S451    1.669   .     S
O334   H455    0.991   .     S
H335   O454    0.991   1_455 S
S336   O338    1.502   .     D
S336   O457    1.499   1_455 S
S336   O459    1.669   1_455 S
O337   S456    1.499   .     S
O339   S456    1.669   .     S
O339   H460    0.991   .     S
H340   O459    0.991   1_455 S
S341   O342    1.499   .     D
S341   O343    1.502   .     D
S341   O344    1.669   .     S
O344   H345    0.991   .     S
S346   O347    1.499   .     D
S346   O348    1.502   .     D
S346   O349    1.669   .     S
O349   H350    0.991   .     S
S351   O352    1.499   .     D
S351   O353    1.502   .     D
S351   O354    1.669   .     S
O354   H355    0.991   .     S
S356   O357    1.499   .     D
S356   O359    1.669   .     S
S356   O358    1.502   .     D
O359   H360    0.991   .     S
C361   O424    1.304   .     A
C361   O421    1.300   .     A
C361   C396    1.424   .     S
C362   C395    1.424   .     S
C362   O423    1.300   .     A
C362   O422    1.304   .     A
C363   O428    1.304   .     A
C363   O425    1.300   .     A
C363   C394    1.424   .     S
C364   C393    1.424   .     S
C364   O427    1.300   .     A
C364   O426    1.304   .     A
C365   O432    1.304   .     A
C365   O429    1.300   .     A
C365   C400    1.424   .     S
C366   O431    1.300   .     A
C366   O430    1.304   .     A
C366   C399    1.424   .     S
C367   O433    1.300   .     A
C367   C398    1.424   .     S
C367   O436    1.304   .     A
C368   O435    1.300   .     A
C368   O434    1.304   .     A
C368   C397    1.424   .     S
C369   N298    1.395   1_655 A
C369   S441    1.839   .     S
C369   C1212   1.464   1_654 S
C370   S446    1.839   .     S
C370   C731    1.464   1_655 S
C370   N297    1.395   1_655 S
C371   S451    1.839   .     S
C371   C1210   1.464   1_554 S
C371   N418    1.395   .     S
C372   N417    1.395   .     A
C372   S456    1.839   .     S
C372   C729    1.464   .     S
C373   N420    1.395   .     A
C373   S461    1.839   .     S
C373   C1336   1.464   1_554 S
C374   S466    1.839   .     S
C374   C855    1.464   .     S
C374   N179    1.395   1_565 S
C375   S471    1.839   .     S
C375   C1334   1.464   1_554 S
C375   N180    1.395   1_565 S
C376   S476    1.839   .     S
C376   N419    1.395   .     A
C376   C853    1.464   .     S
C377   H401    1.083   .     S
C377   C387    1.372   .     A
C377   C394    1.399   .     A
C378   C388    1.367   .     A
C378   H402    1.079   .     S
C378   C393    1.394   .     A
C379   H403    1.083   .     S
C379   C393    1.399   .     A
C379   C385    1.372   .     A
C380   C394    1.394   .     A
C380   H404    1.079   .     S
C380   C386    1.367   .     A
C381   C391    1.372   .     A
C381   H405    1.083   .     S
C381   C396    1.399   .     A
C382   C392    1.367   .     A
C382   C395    1.394   .     A
C382   H406    1.079   .     S
C383   C389    1.372   .     A
C383   H407    1.083   .     S
C383   C395    1.399   .     A
C384   C396    1.394   .     A
C384   H408    1.079   .     S
C384   C390    1.367   .     A
C385   C398    1.399   .     A
C385   H409    1.083   .     S
C386   H410    1.079   .     S
C386   C397    1.394   .     A
C387   H411    1.083   .     S
C387   C397    1.399   .     A
C388   C398    1.394   .     A
C388   H412    1.079   .     S
C389   H413    1.083   .     S
C389   C400    1.399   .     A
C390   H414    1.079   .     S
C390   C399    1.394   .     A
C391   C399    1.399   .     A
C391   H415    1.083   .     S
C392   C400    1.394   .     A
C392   H416    1.079   .     S
N417   Zn437   2.052   .     S
N418   Zn438   2.052   .     S
N419   Zn439   2.052   .     S
N420   Zn440   2.052   .     S
O421   Zn437   2.003   .     S
O422   Zn318   2.003   1_655 S
O423   Zn317   2.003   1_655 S
O424   Zn438   2.003   .     S
O425   Zn318   2.003   1_655 S
O426   Zn437   2.003   .     S
O427   Zn438   2.003   .     S
O428   Zn317   2.003   1_655 S
O429   Zn199   2.003   1_565 S
O430   Zn440   2.003   .     S
O431   Zn439   2.003   .     S
O432   Zn200   2.003   1_565 S
O433   Zn200   2.003   1_565 S
O434   Zn439   2.003   .     S
O435   Zn440   2.003   .     S
O436   Zn199   2.003   1_565 S
S441   O443    1.502   .     D
S441   O322    1.499   1_655 S
S441   O324    1.669   1_655 S
H445   O324    0.991   1_655 S
S446   O448    1.502   .     D
S446   O327    1.499   1_655 S
S446   O329    1.669   1_655 S
H450   O329    0.991   1_655 S
S451   O453    1.502   .     D
O452   S331    1.499   1_655 S
O454   S331    1.669   1_655 S
O454   H335    0.991   1_655 S
S456   O458    1.502   .     D
O457   S336    1.499   1_655 S
O459   S336    1.669   1_655 S
O459   H340    0.991   1_655 S
S461   O462    1.499   .     D
S461   O463    1.502   .     D
S461   O464    1.669   .     S
O464   H465    0.991   .     S
S466   O467    1.499   .     D
S466   O468    1.502   .     D
S466   O469    1.669   .     S
O469   H470    0.991   .     S
S471   O472    1.499   .     D
S471   O473    1.502   .     D
S471   O474    1.669   .     S
O474   H475    0.991   .     S
S476   O477    1.499   .     D
S476   O479    1.669   .     S
S476   O478    1.502   .     D
O479   H480    0.991   .     S
C481   O544    1.304   .     A
C481   O541    1.300   .     A
C481   C516    1.424   .     S
C482   C515    1.424   .     S
C482   O543    1.300   .     A
C482   O542    1.304   .     A
C483   O548    1.304   .     A
C483   O545    1.300   .     A
C483   C514    1.424   .     S
C484   C513    1.424   .     S
C484   O547    1.300   .     A
C484   O546    1.304   .     A
C485   O552    1.304   .     A
C485   O549    1.300   .     A
C485   C520    1.424   .     S
C486   O551    1.300   .     A
C486   O550    1.304   .     A
C486   C519    1.424   .     S
C487   O553    1.300   .     A
C487   C518    1.424   .     S
C487   O556    1.304   .     A
C488   O555    1.300   .     A
C488   O554    1.304   .     A
C488   C517    1.424   .     S
C489   N658    1.395   .     A
C489   S561    1.839   .     S
C490   S566    1.839   .     S
C490   C1091   1.464   .     S
C490   N657    1.395   .     S
C491   S571    1.839   .     S
C491   C130    1.464   1_455 S
C491   N538    1.395   .     S
C492   N537    1.395   .     A
C492   S576    1.839   .     S
C492   C1089   1.464   1_455 S
C493   N540    1.395   .     A
C493   S581    1.839   .     S
C494   S586    1.839   .     S
C494   C975    1.464   .     S
C494   N779    1.395   .     S
C495   S591    1.839   .     S
C495   N780    1.395   .     S
C496   S596    1.839   .     S
C496   N539    1.395   .     A
C496   C973    1.464   .     S
C497   H521    1.083   .     S
C497   C507    1.372   .     A
C497   C514    1.399   .     A
C498   C508    1.367   .     A
C498   H522    1.079   .     S
C498   C513    1.394   .     A
C499   H523    1.083   .     S
C499   C513    1.399   .     A
C499   C505    1.372   .     A
C500   C514    1.394   .     A
C500   H524    1.079   .     S
C500   C506    1.367   .     A
C501   C511    1.372   .     A
C501   H525    1.083   .     S
C501   C516    1.399   .     A
C502   C512    1.367   .     A
C502   C515    1.394   .     A
C502   H526    1.079   .     S
C503   C509    1.372   .     A
C503   H527    1.083   .     S
C503   C515    1.399   .     A
C504   C516    1.394   .     A
C504   H528    1.079   .     S
C504   C510    1.367   .     A
C505   C518    1.399   .     A
C505   H529    1.083   .     S
C506   H530    1.079   .     S
C506   C517    1.394   .     A
C507   H531    1.083   .     S
C507   C517    1.399   .     A
C508   C518    1.394   .     A
C508   H532    1.079   .     S
C509   H533    1.083   .     S
C509   C520    1.399   .     A
C510   H534    1.079   .     S
C510   C519    1.394   .     A
C511   C519    1.399   .     A
C511   H535    1.083   .     S
C512   C520    1.394   .     A
C512   H536    1.079   .     S
N537   Zn557   2.052   .     S
N537   C610    1.395   1_455 S
N538   C609    1.395   1_455 A
N538   Zn558   2.052   .     S
N539   Zn559   2.052   .     S
N539   C734    1.395   1_545 S
N540   Zn560   2.052   .     S
N540   C735    1.395   1_545 S
O541   Zn557   2.003   .     S
O542   Zn678   2.003   .     S
O543   Zn677   2.003   .     S
O544   Zn558   2.003   .     S
O545   Zn678   2.003   .     S
O546   Zn557   2.003   .     S
O547   Zn558   2.003   .     S
O548   Zn677   2.003   .     S
O549   Zn799   2.003   .     S
O550   Zn560   2.003   .     S
O551   Zn559   2.003   .     S
O552   Zn800   2.003   .     S
O553   Zn800   2.003   .     S
O554   Zn559   2.003   .     S
O555   Zn560   2.003   .     S
O556   Zn799   2.003   .     S
Zn557  O663    2.003   1_455 S
Zn557  O668    2.003   1_455 S
Zn558  O662    2.003   1_455 S
Zn558  O665    2.003   1_455 S
Zn559  O796    2.003   1_545 S
Zn559  O789    2.003   1_545 S
Zn560  O793    2.003   1_545 S
Zn560  O792    2.003   1_545 S
S561   O563    1.502   .     D
S561   O682    1.499   .     S
S561   O684    1.669   .     S
O562   S681    1.499   1_455 S
O564   S681    1.669   1_455 S
O564   H685    0.991   1_455 S
H565   O684    0.991   .     S
S566   O568    1.502   .     D
S566   O687    1.499   .     S
S566   O689    1.669   .     S
O567   S686    1.499   1_455 S
O569   S686    1.669   1_455 S
O569   H690    0.991   1_455 S
H570   O689    0.991   .     S
S571   O573    1.502   .     D
S571   O692    1.499   1_455 S
S571   O694    1.669   1_455 S
O572   S691    1.499   .     S
O574   S691    1.669   .     S
O574   H695    0.991   .     S
H575   O694    0.991   1_455 S
S576   O578    1.502   .     D
S576   O697    1.499   1_455 S
S576   O699    1.669   1_455 S
O577   S696    1.499   .     S
O579   S696    1.669   .     S
O579   H700    0.991   .     S
H580   O699    0.991   1_455 S
S581   O582    1.499   .     D
S581   O583    1.502   .     D
S581   O584    1.669   .     S
O584   H585    0.991   .     S
S586   O587    1.499   .     D
S586   O588    1.502   .     D
S586   O589    1.669   .     S
O589   H590    0.991   .     S
S591   O592    1.499   .     D
S591   O593    1.502   .     D
S591   O594    1.669   .     S
O594   H595    0.991   .     S
S596   O597    1.499   .     D
S596   O599    1.669   .     S
S596   O598    1.502   .     D
O599   H600    0.991   .     S
C601   O664    1.304   .     A
C601   O661    1.300   .     A
C601   C636    1.424   .     S
C602   C635    1.424   .     S
C602   O663    1.300   .     A
C602   O662    1.304   .     A
C603   O668    1.304   .     A
C603   O665    1.300   .     A
C603   C634    1.424   .     S
C604   C633    1.424   .     S
C604   O667    1.300   .     A
C604   O666    1.304   .     A
C605   O672    1.304   .     A
C605   O669    1.300   .     A
C605   C640    1.424   .     S
C606   O671    1.300   .     A
C606   O670    1.304   .     A
C606   C639    1.424   .     S
C607   O673    1.300   .     A
C607   C638    1.424   .     S
C607   O676    1.304   .     A
C608   O675    1.300   .     A
C608   O674    1.304   .     A
C608   C637    1.424   .     S
C609   N538    1.395   1_655 A
C609   S681    1.839   .     S
C609   C12     1.464   1_655 S
C610   S686    1.839   .     S
C610   C971    1.464   1_655 S
C610   N537    1.395   1_655 S
C611   S691    1.839   .     S
C611   N658    1.395   .     S
C612   N657    1.395   .     A
C612   S696    1.839   .     S
C612   C969    1.464   .     S
C613   N660    1.395   .     A
C613   S701    1.839   .     S
C614   S706    1.839   .     S
C614   C1095   1.464   .     S
C614   N899    1.395   .     S
C615   S711    1.839   .     S
C615   N900    1.395   .     S
C616   S716    1.839   .     S
C616   N659    1.395   .     A
C616   C1093   1.464   .     S
C617   H641    1.083   .     S
C617   C627    1.372   .     A
C617   C634    1.399   .     A
C618   C628    1.367   .     A
C618   H642    1.079   .     S
C618   C633    1.394   .     A
C619   H643    1.083   .     S
C619   C633    1.399   .     A
C619   C625    1.372   .     A
C620   C634    1.394   .     A
C620   H644    1.079   .     S
C620   C626    1.367   .     A
C621   C631    1.372   .     A
C621   H645    1.083   .     S
C621   C636    1.399   .     A
C622   C632    1.367   .     A
C622   C635    1.394   .     A
C622   H646    1.079   .     S
C623   C629    1.372   .     A
C623   H647    1.083   .     S
C623   C635    1.399   .     A
C624   C636    1.394   .     A
C624   H648    1.079   .     S
C624   C630    1.367   .     A
C625   C638    1.399   .     A
C625   H649    1.083   .     S
C626   H650    1.079   .     S
C626   C637    1.394   .     A
C627   H651    1.083   .     S
C627   C637    1.399   .     A
C628   C638    1.394   .     A
C628   H652    1.079   .     S
C629   H653    1.083   .     S
C629   C640    1.399   .     A
C630   H654    1.079   .     S
C630   C639    1.394   .     A
C631   C639    1.399   .     A
C631   H655    1.083   .     S
C632   C640    1.394   .     A
C632   H656    1.079   .     S
N657   Zn677   2.052   .     S
N658   Zn678   2.052   .     S
N659   Zn679   2.052   .     S
N659   C854    1.395   1_545 S
N660   Zn680   2.052   .     S
N660   C855    1.395   1_545 S
O661   Zn677   2.003   .     S
O662   Zn558   2.003   1_655 S
O663   Zn557   2.003   1_655 S
O664   Zn678   2.003   .     S
O665   Zn558   2.003   1_655 S
O666   Zn677   2.003   .     S
O667   Zn678   2.003   .     S
O668   Zn557   2.003   1_655 S
O669   Zn919   2.003   .     S
O670   Zn680   2.003   .     S
O671   Zn679   2.003   .     S
O672   Zn920   2.003   .     S
O673   Zn920   2.003   .     S
O674   Zn679   2.003   .     S
O675   Zn680   2.003   .     S
O676   Zn919   2.003   .     S
Zn679  O916    2.003   1_545 S
Zn679  O909    2.003   1_545 S
Zn680  O913    2.003   1_545 S
Zn680  O912    2.003   1_545 S
S681   O683    1.502   .     D
S681   O562    1.499   1_655 S
S681   O564    1.669   1_655 S
H685   O564    0.991   1_655 S
S686   O688    1.502   .     D
S686   O567    1.499   1_655 S
S686   O569    1.669   1_655 S
H690   O569    0.991   1_655 S
S691   O693    1.502   .     D
O692   S571    1.499   1_655 S
O694   S571    1.669   1_655 S
O694   H575    0.991   1_655 S
S696   O698    1.502   .     D
O697   S576    1.499   1_655 S
O699   S576    1.669   1_655 S
O699   H580    0.991   1_655 S
S701   O702    1.499   .     D
S701   O703    1.502   .     D
S701   O704    1.669   .     S
O704   H705    0.991   .     S
S706   O707    1.499   .     D
S706   O708    1.502   .     D
S706   O709    1.669   .     S
O709   H710    0.991   .     S
S711   O712    1.499   .     D
S711   O713    1.502   .     D
S711   O714    1.669   .     S
O714   H715    0.991   .     S
S716   O717    1.499   .     D
S716   O719    1.669   .     S
S716   O718    1.502   .     D
O719   H720    0.991   .     S
C721   O784    1.304   .     A
C721   O781    1.300   .     A
C721   C756    1.424   .     S
C722   C755    1.424   .     S
C722   O783    1.300   .     A
C722   O782    1.304   .     A
C723   O788    1.304   .     A
C723   O785    1.300   .     A
C723   C754    1.424   .     S
C724   C753    1.424   .     S
C724   O787    1.300   .     A
C724   O786    1.304   .     A
C725   O792    1.304   .     A
C725   O789    1.300   .     A
C725   C760    1.424   .     S
C726   O791    1.300   .     A
C726   O790    1.304   .     A
C726   C759    1.424   .     S
C727   O793    1.300   .     A
C727   C758    1.424   .     S
C727   O796    1.304   .     A
C728   O795    1.300   .     A
C728   O794    1.304   .     A
C728   C757    1.424   .     S
C729   N898    1.395   .     A
C729   S801    1.839   .     S
C730   S806    1.839   .     S
C730   C1331   1.464   .     S
C730   N897    1.395   .     S
C731   S811    1.839   .     S
C731   C370    1.464   1_455 S
C731   N778    1.395   .     S
C732   N777    1.395   .     A
C732   S816    1.839   .     S
C732   C1329   1.464   1_455 S
C733   N780    1.395   .     A
C733   S821    1.839   .     S
C734   S826    1.839   .     S
C734   C1215   1.464   .     S
C734   N539    1.395   1_565 S
C735   S831    1.839   .     S
C735   N540    1.395   1_565 S
C736   S836    1.839   .     S
C736   N779    1.395   .     A
C736   C1213   1.464   .     S
C737   H761    1.083   .     S
C737   C747    1.372   .     A
C737   C754    1.399   .     A
C738   C748    1.367   .     A
C738   H762    1.079   .     S
C738   C753    1.394   .     A
C739   H763    1.083   .     S
C739   C753    1.399   .     A
C739   C745    1.372   .     A
C740   C754    1.394   .     A
C740   H764    1.079   .     S
C740   C746    1.367   .     A
C741   C751    1.372   .     A
C741   H765    1.083   .     S
C741   C756    1.399   .     A
C742   C752    1.367   .     A
C742   C755    1.394   .     A
C742   H766    1.079   .     S
C743   C749    1.372   .     A
C743   H767    1.083   .     S
C743   C755    1.399   .     A
C744   C756    1.394   .     A
C744   H768    1.079   .     S
C744   C750    1.367   .     A
C745   C758    1.399   .     A
C745   H769    1.083   .     S
C746   H770    1.079   .     S
C746   C757    1.394   .     A
C747   H771    1.083   .     S
C747   C757    1.399   .     A
C748   C758    1.394   .     A
C748   H772    1.079   .     S
C749   H773    1.083   .     S
C749   C760    1.399   .     A
C750   H774    1.079   .     S
C750   C759    1.394   .     A
C751   C759    1.399   .     A
C751   H775    1.083   .     S
C752   C760    1.394   .     A
C752   H776    1.079   .     S
N777   Zn797   2.052   .     S
N777   C850    1.395   1_455 S
N778   C849    1.395   1_455 A
N778   Zn798   2.052   .     S
N779   Zn799   2.052   .     S
N780   Zn800   2.052   .     S
O781   Zn797   2.003   .     S
O782   Zn918   2.003   .     S
O783   Zn917   2.003   .     S
O784   Zn798   2.003   .     S
O785   Zn918   2.003   .     S
O786   Zn797   2.003   .     S
O787   Zn798   2.003   .     S
O788   Zn917   2.003   .     S
O789   Zn559   2.003   1_565 S
O790   Zn800   2.003   .     S
O791   Zn799   2.003   .     S
O792   Zn560   2.003   1_565 S
O793   Zn560   2.003   1_565 S
O794   Zn799   2.003   .     S
O795   Zn800   2.003   .     S
O796   Zn559   2.003   1_565 S
Zn797  O903    2.003   1_455 S
Zn797  O908    2.003   1_455 S
Zn798  O902    2.003   1_455 S
Zn798  O905    2.003   1_455 S
S801   O803    1.502   .     D
S801   O922    1.499   .     S
S801   O924    1.669   .     S
O802   S921    1.499   1_455 S
O804   S921    1.669   1_455 S
O804   H925    0.991   1_455 S
H805   O924    0.991   .     S
S806   O808    1.502   .     D
S806   O927    1.499   .     S
S806   O929    1.669   .     S
O807   S926    1.499   1_455 S
O809   S926    1.669   1_455 S
O809   H930    0.991   1_455 S
H810   O929    0.991   .     S
S811   O813    1.502   .     D
S811   O932    1.499   1_455 S
S811   O934    1.669   1_455 S
O812   S931    1.499   .     S
O814   S931    1.669   .     S
O814   H935    0.991   .     S
H815   O934    0.991   1_455 S
S816   O818    1.502   .     D
S816   O937    1.499   1_455 S
S816   O939    1.669   1_455 S
O817   S936    1.499   .     S
O819   S936    1.669   .     S
O819   H940    0.991   .     S
H820   O939    0.991   1_455 S
S821   O822    1.499   .     D
S821   O823    1.502   .     D
S821   O824    1.669   .     S
O824   H825    0.991   .     S
S826   O827    1.499   .     D
S826   O828    1.502   .     D
S826   O829    1.669   .     S
O829   H830    0.991   .     S
S831   O832    1.499   .     D
S831   O833    1.502   .     D
S831   O834    1.669   .     S
O834   H835    0.991   .     S
S836   O837    1.499   .     D
S836   O839    1.669   .     S
S836   O838    1.502   .     D
O839   H840    0.991   .     S
C841   O904    1.304   .     A
C841   O901    1.300   .     A
C841   C876    1.424   .     S
C842   C875    1.424   .     S
C842   O903    1.300   .     A
C842   O902    1.304   .     A
C843   O908    1.304   .     A
C843   O905    1.300   .     A
C843   C874    1.424   .     S
C844   C873    1.424   .     S
C844   O907    1.300   .     A
C844   O906    1.304   .     A
C845   O912    1.304   .     A
C845   O909    1.300   .     A
C845   C880    1.424   .     S
C846   O911    1.300   .     A
C846   O910    1.304   .     A
C846   C879    1.424   .     S
C847   O913    1.300   .     A
C847   C878    1.424   .     S
C847   O916    1.304   .     A
C848   O915    1.300   .     A
C848   O914    1.304   .     A
C848   C877    1.424   .     S
C849   N778    1.395   1_655 A
C849   S921    1.839   .     S
C849   C252    1.464   1_655 S
C850   S926    1.839   .     S
C850   C1211   1.464   1_655 S
C850   N777    1.395   1_655 S
C851   S931    1.839   .     S
C851   N898    1.395   .     S
C852   N897    1.395   .     A
C852   S936    1.839   .     S
C852   C1209   1.464   .     S
C853   N900    1.395   .     A
C853   S941    1.839   .     S
C854   S946    1.839   .     S
C854   C1335   1.464   .     S
C854   N659    1.395   1_565 S
C855   S951    1.839   .     S
C855   N660    1.395   1_565 S
C856   S956    1.839   .     S
C856   N899    1.395   .     A
C856   C1333   1.464   .     S
C857   H881    1.083   .     S
C857   C867    1.372   .     A
C857   C874    1.399   .     A
C858   C868    1.367   .     A
C858   H882    1.079   .     S
C858   C873    1.394   .     A
C859   H883    1.083   .     S
C859   C873    1.399   .     A
C859   C865    1.372   .     A
C860   C874    1.394   .     A
C860   H884    1.079   .     S
C860   C866    1.367   .     A
C861   C871    1.372   .     A
C861   H885    1.083   .     S
C861   C876    1.399   .     A
C862   C872    1.367   .     A
C862   C875    1.394   .     A
C862   H886    1.079   .     S
C863   C869    1.372   .     A
C863   H887    1.083   .     S
C863   C875    1.399   .     A
C864   C876    1.394   .     A
C864   H888    1.079   .     S
C864   C870    1.367   .     A
C865   C878    1.399   .     A
C865   H889    1.083   .     S
C866   H890    1.079   .     S
C866   C877    1.394   .     A
C867   H891    1.083   .     S
C867   C877    1.399   .     A
C868   C878    1.394   .     A
C868   H892    1.079   .     S
C869   H893    1.083   .     S
C869   C880    1.399   .     A
C870   H894    1.079   .     S
C870   C879    1.394   .     A
C871   C879    1.399   .     A
C871   H895    1.083   .     S
C872   C880    1.394   .     A
C872   H896    1.079   .     S
N897   Zn917   2.052   .     S
N898   Zn918   2.052   .     S
N899   Zn919   2.052   .     S
N900   Zn920   2.052   .     S
O901   Zn917   2.003   .     S
O902   Zn798   2.003   1_655 S
O903   Zn797   2.003   1_655 S
O904   Zn918   2.003   .     S
O905   Zn798   2.003   1_655 S
O906   Zn917   2.003   .     S
O907   Zn918   2.003   .     S
O908   Zn797   2.003   1_655 S
O909   Zn679   2.003   1_565 S
O910   Zn920   2.003   .     S
O911   Zn919   2.003   .     S
O912   Zn680   2.003   1_565 S
O913   Zn680   2.003   1_565 S
O914   Zn919   2.003   .     S
O915   Zn920   2.003   .     S
O916   Zn679   2.003   1_565 S
S921   O923    1.502   .     D
S921   O802    1.499   1_655 S
S921   O804    1.669   1_655 S
H925   O804    0.991   1_655 S
S926   O928    1.502   .     D
S926   O807    1.499   1_655 S
S926   O809    1.669   1_655 S
H930   O809    0.991   1_655 S
S931   O933    1.502   .     D
O932   S811    1.499   1_655 S
O934   S811    1.669   1_655 S
O934   H815    0.991   1_655 S
S936   O938    1.502   .     D
O937   S816    1.499   1_655 S
O939   S816    1.669   1_655 S
O939   H820    0.991   1_655 S
S941   O942    1.499   .     D
S941   O943    1.502   .     D
S941   O944    1.669   .     S
O944   H945    0.991   .     S
S946   O947    1.499   .     D
S946   O948    1.502   .     D
S946   O949    1.669   .     S
O949   H950    0.991   .     S
S951   O952    1.499   .     D
S951   O953    1.502   .     D
S951   O954    1.669   .     S
O954   H955    0.991   .     S
S956   O957    1.499   .     D
S956   O959    1.669   .     S
S956   O958    1.502   .     D
O959   H960    0.991   .     S
C961   O1024   1.304   .     A
C961   O1021   1.300   .     A
C961   C996    1.424   .     S
C962   C995    1.424   .     S
C962   O1023   1.300   .     A
C962   O1022   1.304   .     A
C963   O1028   1.304   .     A
C963   O1025   1.300   .     A
C963   C994    1.424   .     S
C964   C993    1.424   .     S
C964   O1027   1.300   .     A
C964   O1026   1.304   .     A
C965   O1032   1.304   .     A
C965   O1029   1.300   .     A
C965   C1000   1.424   .     S
C966   O1031   1.300   .     A
C966   O1030   1.304   .     A
C966   C999    1.424   .     S
C967   O1033   1.300   .     A
C967   C998    1.424   .     S
C967   O1036   1.304   .     A
C968   O1035   1.300   .     A
C968   O1034   1.304   .     A
C968   C997    1.424   .     S
C969   N1138   1.395   .     A
C969   S1041   1.839   .     S
C970   S1046   1.839   .     S
C970   C131    1.464   1_556 S
C970   N1137   1.395   .     S
C971   S1051   1.839   .     S
C971   C610    1.464   1_455 S
C971   N1018   1.395   .     S
C972   N1017   1.395   .     A
C972   S1056   1.839   .     S
C972   C129    1.464   1_456 S
C973   N1020   1.395   .     A
C973   S1061   1.839   .     S
C974   S1066   1.839   .     S
C974   C15     1.464   1_556 S
C974   N1259   1.395   .     S
C975   S1071   1.839   .     S
C975   N1260   1.395   .     S
C976   S1076   1.839   .     S
C976   N1019   1.395   .     A
C976   C13     1.464   1_556 S
C977   H1001   1.083   .     S
C977   C987    1.372   .     A
C977   C994    1.399   .     A
C978   C988    1.367   .     A
C978   H1002   1.079   .     S
C978   C993    1.394   .     A
C979   H1003   1.083   .     S
C979   C993    1.399   .     A
C979   C985    1.372   .     A
C980   C994    1.394   .     A
C980   H1004   1.079   .     S
C980   C986    1.367   .     A
C981   C991    1.372   .     A
C981   H1005   1.083   .     S
C981   C996    1.399   .     A
C982   C992    1.367   .     A
C982   C995    1.394   .     A
C982   H1006   1.079   .     S
C983   C989    1.372   .     A
C983   H1007   1.083   .     S
C983   C995    1.399   .     A
C984   C996    1.394   .     A
C984   H1008   1.079   .     S
C984   C990    1.367   .     A
C985   C998    1.399   .     A
C985   H1009   1.083   .     S
C986   H1010   1.079   .     S
C986   C997    1.394   .     A
C987   H1011   1.083   .     S
C987   C997    1.399   .     A
C988   C998    1.394   .     A
C988   H1012   1.079   .     S
C989   H1013   1.083   .     S
C989   C1000   1.399   .     A
C990   H1014   1.079   .     S
C990   C999    1.394   .     A
C991   C999    1.399   .     A
C991   H1015   1.083   .     S
C992   C1000   1.394   .     A
C992   H1016   1.079   .     S
N1017  Zn1037  2.052   .     S
N1017  C1090   1.395   1_455 S
N1018  C1089   1.395   1_455 A
N1018  Zn1038  2.052   .     S
N1019  Zn1039  2.052   .     S
N1019  C1214   1.395   1_545 S
N1020  Zn1040  2.052   .     S
N1020  C1215   1.395   1_545 S
O1021  Zn1037  2.003   .     S
O1022  Zn1158  2.003   .     S
O1023  Zn1157  2.003   .     S
O1024  Zn1038  2.003   .     S
O1025  Zn1158  2.003   .     S
O1026  Zn1037  2.003   .     S
O1027  Zn1038  2.003   .     S
O1028  Zn1157  2.003   .     S
O1029  Zn1279  2.003   .     S
O1030  Zn1040  2.003   .     S
O1031  Zn1039  2.003   .     S
O1032  Zn1280  2.003   .     S
O1033  Zn1280  2.003   .     S
O1034  Zn1039  2.003   .     S
O1035  Zn1040  2.003   .     S
O1036  Zn1279  2.003   .     S
Zn1037 O1143   2.003   1_455 S
Zn1037 O1148   2.003   1_455 S
Zn1038 O1142   2.003   1_455 S
Zn1038 O1145   2.003   1_455 S
Zn1039 O1276   2.003   1_545 S
Zn1039 O1269   2.003   1_545 S
Zn1040 O1273   2.003   1_545 S
Zn1040 O1272   2.003   1_545 S
S1041  O1043   1.502   .     D
S1041  O1162   1.499   .     S
S1041  O1164   1.669   .     S
O1042  S1161   1.499   1_455 S
O1044  S1161   1.669   1_455 S
O1044  H1165   0.991   1_455 S
H1045  O1164   0.991   .     S
S1046  O1048   1.502   .     D
S1046  O1167   1.499   .     S
S1046  O1169   1.669   .     S
O1047  S1166   1.499   1_455 S
O1049  S1166   1.669   1_455 S
O1049  H1170   0.991   1_455 S
H1050  O1169   0.991   .     S
S1051  O1053   1.502   .     D
S1051  O1172   1.499   1_455 S
S1051  O1174   1.669   1_455 S
O1052  S1171   1.499   .     S
O1054  S1171   1.669   .     S
O1054  H1175   0.991   .     S
H1055  O1174   0.991   1_455 S
S1056  O1058   1.502   .     D
S1056  O1177   1.499   1_455 S
S1056  O1179   1.669   1_455 S
O1057  S1176   1.499   .     S
O1059  S1176   1.669   .     S
O1059  H1180   0.991   .     S
H1060  O1179   0.991   1_455 S
S1061  O1062   1.499   .     D
S1061  O1063   1.502   .     D
S1061  O1064   1.669   .     S
O1064  H1065   0.991   .     S
S1066  O1067   1.499   .     D
S1066  O1068   1.502   .     D
S1066  O1069   1.669   .     S
O1069  H1070   0.991   .     S
S1071  O1072   1.499   .     D
S1071  O1073   1.502   .     D
S1071  O1074   1.669   .     S
O1074  H1075   0.991   .     S
S1076  O1077   1.499   .     D
S1076  O1079   1.669   .     S
S1076  O1078   1.502   .     D
O1079  H1080   0.991   .     S
C1081  O1144   1.304   .     A
C1081  O1141   1.300   .     A
C1081  C1116   1.424   .     S
C1082  C1115   1.424   .     S
C1082  O1143   1.300   .     A
C1082  O1142   1.304   .     A
C1083  O1148   1.304   .     A
C1083  O1145   1.300   .     A
C1083  C1114   1.424   .     S
C1084  C1113   1.424   .     S
C1084  O1147   1.300   .     A
C1084  O1146   1.304   .     A
C1085  O1152   1.304   .     A
C1085  O1149   1.300   .     A
C1085  C1120   1.424   .     S
C1086  O1151   1.300   .     A
C1086  O1150   1.304   .     A
C1086  C1119   1.424   .     S
C1087  O1153   1.300   .     A
C1087  C1118   1.424   .     S
C1087  O1156   1.304   .     A
C1088  O1155   1.300   .     A
C1088  O1154   1.304   .     A
C1088  C1117   1.424   .     S
C1089  N1018   1.395   1_655 A
C1089  S1161   1.839   .     S
C1089  C492    1.464   1_655 S
C1090  S1166   1.839   .     S
C1090  C11     1.464   1_656 S
C1090  N1017   1.395   1_655 S
C1091  S1171   1.839   .     S
C1091  N1138   1.395   .     S
C1092  N1137   1.395   .     A
C1092  S1176   1.839   .     S
C1092  C9      1.464   1_556 S
C1093  N1140   1.395   .     A
C1093  S1181   1.839   .     S
C1094  S1186   1.839   .     S
C1094  C135    1.464   1_556 S
C1094  N1379   1.395   .     S
C1095  S1191   1.839   .     S
C1095  N1380   1.395   .     S
C1096  S1196   1.839   .     S
C1096  N1139   1.395   .     A
C1096  C133    1.464   1_556 S
C1097  H1121   1.083   .     S
C1097  C1107   1.372   .     A
C1097  C1114   1.399   .     A
C1098  C1108   1.367   .     A
C1098  H1122   1.079   .     S
C1098  C1113   1.394   .     A
C1099  H1123   1.083   .     S
C1099  C1113   1.399   .     A
C1099  C1105   1.372   .     A
C1100  C1114   1.394   .     A
C1100  H1124   1.079   .     S
C1100  C1106   1.367   .     A
C1101  C1111   1.372   .     A
C1101  H1125   1.083   .     S
C1101  C1116   1.399   .     A
C1102  C1112   1.367   .     A
C1102  C1115   1.394   .     A
C1102  H1126   1.079   .     S
C1103  C1109   1.372   .     A
C1103  H1127   1.083   .     S
C1103  C1115   1.399   .     A
C1104  C1116   1.394   .     A
C1104  H1128   1.079   .     S
C1104  C1110   1.367   .     A
C1105  C1118   1.399   .     A
C1105  H1129   1.083   .     S
C1106  H1130   1.079   .     S
C1106  C1117   1.394   .     A
C1107  H1131   1.083   .     S
C1107  C1117   1.399   .     A
C1108  C1118   1.394   .     A
C1108  H1132   1.079   .     S
C1109  H1133   1.083   .     S
C1109  C1120   1.399   .     A
C1110  H1134   1.079   .     S
C1110  C1119   1.394   .     A
C1111  C1119   1.399   .     A
C1111  H1135   1.083   .     S
C1112  C1120   1.394   .     A
C1112  H1136   1.079   .     S
N1137  Zn1157  2.052   .     S
N1138  Zn1158  2.052   .     S
N1139  Zn1159  2.052   .     S
N1139  C1334   1.395   1_545 S
N1140  Zn1160  2.052   .     S
N1140  C1335   1.395   1_545 S
O1141  Zn1157  2.003   .     S
O1142  Zn1038  2.003   1_655 S
O1143  Zn1037  2.003   1_655 S
O1144  Zn1158  2.003   .     S
O1145  Zn1038  2.003   1_655 S
O1146  Zn1157  2.003   .     S
O1147  Zn1158  2.003   .     S
O1148  Zn1037  2.003   1_655 S
O1149  Zn1399  2.003   .     S
O1150  Zn1160  2.003   .     S
O1151  Zn1159  2.003   .     S
O1152  Zn1400  2.003   .     S
O1153  Zn1400  2.003   .     S
O1154  Zn1159  2.003   .     S
O1155  Zn1160  2.003   .     S
O1156  Zn1399  2.003   .     S
Zn1159 O1396   2.003   1_545 S
Zn1159 O1389   2.003   1_545 S
Zn1160 O1393   2.003   1_545 S
Zn1160 O1392   2.003   1_545 S
S1161  O1163   1.502   .     D
S1161  O1042   1.499   1_655 S
S1161  O1044   1.669   1_655 S
H1165  O1044   0.991   1_655 S
S1166  O1168   1.502   .     D
S1166  O1047   1.499   1_655 S
S1166  O1049   1.669   1_655 S
H1170  O1049   0.991   1_655 S
S1171  O1173   1.502   .     D
O1172  S1051   1.499   1_655 S
O1174  S1051   1.669   1_655 S
O1174  H1055   0.991   1_655 S
S1176  O1178   1.502   .     D
O1177  S1056   1.499   1_655 S
O1179  S1056   1.669   1_655 S
O1179  H1060   0.991   1_655 S
S1181  O1182   1.499   .     D
S1181  O1183   1.502   .     D
S1181  O1184   1.669   .     S
O1184  H1185   0.991   .     S
S1186  O1187   1.499   .     D
S1186  O1188   1.502   .     D
S1186  O1189   1.669   .     S
O1189  H1190   0.991   .     S
S1191  O1192   1.499   .     D
S1191  O1193   1.502   .     D
S1191  O1194   1.669   .     S
O1194  H1195   0.991   .     S
S1196  O1197   1.499   .     D
S1196  O1199   1.669   .     S
S1196  O1198   1.502   .     D
O1199  H1200   0.991   .     S
C1201  O1264   1.304   .     A
C1201  O1261   1.300   .     A
C1201  C1236   1.424   .     S
C1202  C1235   1.424   .     S
C1202  O1263   1.300   .     A
C1202  O1262   1.304   .     A
C1203  O1268   1.304   .     A
C1203  O1265   1.300   .     A
C1203  C1234   1.424   .     S
C1204  C1233   1.424   .     S
C1204  O1267   1.300   .     A
C1204  O1266   1.304   .     A
C1205  O1272   1.304   .     A
C1205  O1269   1.300   .     A
C1205  C1240   1.424   .     S
C1206  O1271   1.300   .     A
C1206  O1270   1.304   .     A
C1206  C1239   1.424   .     S
C1207  O1273   1.300   .     A
C1207  C1238   1.424   .     S
C1207  O1276   1.304   .     A
C1208  O1275   1.300   .     A
C1208  O1274   1.304   .     A
C1208  C1237   1.424   .     S
C1209  N1378   1.395   .     A
C1209  S1281   1.839   .     S
C1210  S1286   1.839   .     S
C1210  C371    1.464   1_556 S
C1210  N1377   1.395   .     S
C1211  S1291   1.839   .     S
C1211  C850    1.464   1_455 S
C1211  N1258   1.395   .     S
C1212  N1257   1.395   .     A
C1212  S1296   1.839   .     S
C1212  C369    1.464   1_456 S
C1213  N1260   1.395   .     A
C1213  S1301   1.839   .     S
C1214  S1306   1.839   .     S
C1214  C255    1.464   1_556 S
C1214  N1019   1.395   1_565 S
C1215  S1311   1.839   .     S
C1215  N1020   1.395   1_565 S
C1216  S1316   1.839   .     S
C1216  N1259   1.395   .     A
C1216  C253    1.464   1_556 S
C1217  H1241   1.083   .     S
C1217  C1227   1.372   .     A
C1217  C1234   1.399   .     A
C1218  C1228   1.367   .     A
C1218  H1242   1.079   .     S
C1218  C1233   1.394   .     A
C1219  H1243   1.083   .     S
C1219  C1233   1.399   .     A
C1219  C1225   1.372   .     A
C1220  C1234   1.394   .     A
C1220  H1244   1.079   .     S
C1220  C1226   1.367   .     A
C1221  C1231   1.372   .     A
C1221  H1245   1.083   .     S
C1221  C1236   1.399   .     A
C1222  C1232   1.367   .     A
C1222  C1235   1.394   .     A
C1222  H1246   1.079   .     S
C1223  C1229   1.372   .     A
C1223  H1247   1.083   .     S
C1223  C1235   1.399   .     A
C1224  C1236   1.394   .     A
C1224  H1248   1.079   .     S
C1224  C1230   1.367   .     A
C1225  C1238   1.399   .     A
C1225  H1249   1.083   .     S
C1226  H1250   1.079   .     S
C1226  C1237   1.394   .     A
C1227  H1251   1.083   .     S
C1227  C1237   1.399   .     A
C1228  C1238   1.394   .     A
C1228  H1252   1.079   .     S
C1229  H1253   1.083   .     S
C1229  C1240   1.399   .     A
C1230  H1254   1.079   .     S
C1230  C1239   1.394   .     A
C1231  C1239   1.399   .     A
C1231  H1255   1.083   .     S
C1232  C1240   1.394   .     A
C1232  H1256   1.079   .     S
N1257  Zn1277  2.052   .     S
N1257  C1330   1.395   1_455 S
N1258  C1329   1.395   1_455 A
N1258  Zn1278  2.052   .     S
N1259  Zn1279  2.052   .     S
N1260  Zn1280  2.052   .     S
O1261  Zn1277  2.003   .     S
O1262  Zn1398  2.003   .     S
O1263  Zn1397  2.003   .     S
O1264  Zn1278  2.003   .     S
O1265  Zn1398  2.003   .     S
O1266  Zn1277  2.003   .     S
O1267  Zn1278  2.003   .     S
O1268  Zn1397  2.003   .     S
O1269  Zn1039  2.003   1_565 S
O1270  Zn1280  2.003   .     S
O1271  Zn1279  2.003   .     S
O1272  Zn1040  2.003   1_565 S
O1273  Zn1040  2.003   1_565 S
O1274  Zn1279  2.003   .     S
O1275  Zn1280  2.003   .     S
O1276  Zn1039  2.003   1_565 S
Zn1277 O1383   2.003   1_455 S
Zn1277 O1388   2.003   1_455 S
Zn1278 O1382   2.003   1_455 S
Zn1278 O1385   2.003   1_455 S
S1281  O1283   1.502   .     D
S1281  O1402   1.499   .     S
S1281  O1404   1.669   .     S
O1282  S1401   1.499   1_455 S
O1284  S1401   1.669   1_455 S
O1284  H1405   0.991   1_455 S
H1285  O1404   0.991   .     S
S1286  O1288   1.502   .     D
S1286  O1407   1.499   .     S
S1286  O1409   1.669   .     S
O1287  S1406   1.499   1_455 S
O1289  S1406   1.669   1_455 S
O1289  H1410   0.991   1_455 S
H1290  O1409   0.991   .     S
S1291  O1293   1.502   .     D
S1291  O1412   1.499   1_455 S
S1291  O1414   1.669   1_455 S
O1292  S1411   1.499   .     S
O1294  S1411   1.669   .     S
O1294  H1415   0.991   .     S
H1295  O1414   0.991   1_455 S
S1296  O1298   1.502   .     D
S1296  O1417   1.499   1_455 S
S1296  O1419   1.669   1_455 S
O1297  S1416   1.499   .     S
O1299  S1416   1.669   .     S
O1299  H1420   0.991   .     S
H1300  O1419   0.991   1_455 S
S1301  O1302   1.499   .     D
S1301  O1303   1.502   .     D
S1301  O1304   1.669   .     S
O1304  H1305   0.991   .     S
S1306  O1307   1.499   .     D
S1306  O1308   1.502   .     D
S1306  O1309   1.669   .     S
O1309  H1310   0.991   .     S
S1311  O1312   1.499   .     D
S1311  O1313   1.502   .     D
S1311  O1314   1.669   .     S
O1314  H1315   0.991   .     S
S1316  O1317   1.499   .     D
S1316  O1319   1.669   .     S
S1316  O1318   1.502   .     D
O1319  H1320   0.991   .     S
C1321  O1384   1.304   .     A
C1321  O1381   1.300   .     A
C1321  C1356   1.424   .     S
C1322  C1355   1.424   .     S
C1322  O1383   1.300   .     A
C1322  O1382   1.304   .     A
C1323  O1388   1.304   .     A
C1323  O1385   1.300   .     A
C1323  C1354   1.424   .     S
C1324  C1353   1.424   .     S
C1324  O1387   1.300   .     A
C1324  O1386   1.304   .     A
C1325  O1392   1.304   .     A
C1325  O1389   1.300   .     A
C1325  C1360   1.424   .     S
C1326  O1391   1.300   .     A
C1326  O1390   1.304   .     A
C1326  C1359   1.424   .     S
C1327  O1393   1.300   .     A
C1327  C1358   1.424   .     S
C1327  O1396   1.304   .     A
C1328  O1395   1.300   .     A
C1328  O1394   1.304   .     A
C1328  C1357   1.424   .     S
C1329  N1258   1.395   1_655 A
C1329  S1401   1.839   .     S
C1329  C732    1.464   1_655 S
C1330  S1406   1.839   .     S
C1330  C251    1.464   1_656 S
C1330  N1257   1.395   1_655 S
C1331  S1411   1.839   .     S
C1331  N1378   1.395   .     S
C1332  N1377   1.395   .     A
C1332  S1416   1.839   .     S
C1332  C249    1.464   1_556 S
C1333  N1380   1.395   .     A
C1333  S1421   1.839   .     S
C1334  S1426   1.839   .     S
C1334  C375    1.464   1_556 S
C1334  N1139   1.395   1_565 S
C1335  S1431   1.839   .     S
C1335  N1140   1.395   1_565 S
C1336  S1436   1.839   .     S
C1336  N1379   1.395   .     A
C1336  C373    1.464   1_556 S
C1337  H1361   1.083   .     S
C1337  C1347   1.372   .     A
C1337  C1354   1.399   .     A
C1338  C1348   1.367   .     A
C1338  H1362   1.079   .     S
C1338  C1353   1.394   .     A
C1339  H1363   1.083   .     S
C1339  C1353   1.399   .     A
C1339  C1345   1.372   .     A
C1340  C1354   1.394   .     A
C1340  H1364   1.079   .     S
C1340  C1346   1.367   .     A
C1341  C1351   1.372   .     A
C1341  H1365   1.083   .     S
C1341  C1356   1.399   .     A
C1342  C1352   1.367   .     A
C1342  C1355   1.394   .     A
C1342  H1366   1.079   .     S
C1343  C1349   1.372   .     A
C1343  H1367   1.083   .     S
C1343  C1355   1.399   .     A
C1344  C1356   1.394   .     A
C1344  H1368   1.079   .     S
C1344  C1350   1.367   .     A
C1345  C1358   1.399   .     A
C1345  H1369   1.083   .     S
C1346  H1370   1.079   .     S
C1346  C1357   1.394   .     A
C1347  H1371   1.083   .     S
C1347  C1357   1.399   .     A
C1348  C1358   1.394   .     A
C1348  H1372   1.079   .     S
C1349  H1373   1.083   .     S
C1349  C1360   1.399   .     A
C1350  H1374   1.079   .     S
C1350  C1359   1.394   .     A
C1351  C1359   1.399   .     A
C1351  H1375   1.083   .     S
C1352  C1360   1.394   .     A
C1352  H1376   1.079   .     S
N1377  Zn1397  2.052   .     S
N1378  Zn1398  2.052   .     S
N1379  Zn1399  2.052   .     S
N1380  Zn1400  2.052   .     S
O1381  Zn1397  2.003   .     S
O1382  Zn1278  2.003   1_655 S
O1383  Zn1277  2.003   1_655 S
O1384  Zn1398  2.003   .     S
O1385  Zn1278  2.003   1_655 S
O1386  Zn1397  2.003   .     S
O1387  Zn1398  2.003   .     S
O1388  Zn1277  2.003   1_655 S
O1389  Zn1159  2.003   1_565 S
O1390  Zn1400  2.003   .     S
O1391  Zn1399  2.003   .     S
O1392  Zn1160  2.003   1_565 S
O1393  Zn1160  2.003   1_565 S
O1394  Zn1399  2.003   .     S
O1395  Zn1400  2.003   .     S
O1396  Zn1159  2.003   1_565 S
S1401  O1403   1.502   .     D
S1401  O1282   1.499   1_655 S
S1401  O1284   1.669   1_655 S
H1405  O1284   0.991   1_655 S
S1406  O1408   1.502   .     D
S1406  O1287   1.499   1_655 S
S1406  O1289   1.669   1_655 S
H1410  O1289   0.991   1_655 S
S1411  O1413   1.502   .     D
O1412  S1291   1.499   1_655 S
O1414  S1291   1.669   1_655 S
O1414  H1295   0.991   1_655 S
S1416  O1418   1.502   .     D
O1417  S1296   1.499   1_655 S
O1419  S1296   1.669   1_655 S
O1419  H1300   0.991   1_655 S
S1421  O1422   1.499   .     D
S1421  O1423   1.502   .     D
S1421  O1424   1.669   .     S
O1424  H1425   0.991   .     S
S1426  O1427   1.499   .     D
S1426  O1428   1.502   .     D
S1426  O1429   1.669   .     S
O1429  H1430   0.991   .     S
S1431  O1432   1.499   .     D
S1431  O1433   1.502   .     D
S1431  O1434   1.669   .     S
O1434  H1435   0.991   .     S
S1436  O1437   1.499   .     D
S1436  O1439   1.669   .     S
S1436  O1438   1.502   .     D
O1439  H1440   0.991   .     S
