data_str_m2_o1_o18_pcu_sym.70
_audit_creation_date              2020-01-03
_audit_creation_method            'Materials Studio'
_symmetry_space_group_name_H-M    'P1'
_symmetry_Int_Tables_number       1
_symmetry_cell_setting            triclinic
loop_
_symmetry_equiv_pos_as_xyz
  x,y,z
_cell_length_a                    28.5188
_cell_length_b                    32.4431
_cell_length_c                    30.8334
_cell_angle_alpha                 89.3965
_cell_angle_beta                  74.7534
_cell_angle_gamma                 89.7621
loop_
_atom_site_label
_atom_site_type_symbol
_atom_site_fract_x
_atom_site_fract_y
_atom_site_fract_z
_atom_site_U_iso_or_equiv
_atom_site_adp_type
_atom_site_occupancy
C1     C     0.00024   0.08742   0.24952   0.00000  Uiso   1.00
C2     C     0.04340   0.02100   0.22862   0.00000  Uiso   1.00
C3     C     0.33265   0.29062   0.24999   0.00000  Uiso   1.00
C4     C     0.00057   0.04287   0.24859   0.00000  Uiso   1.00
C5     C     0.18265   0.14424   0.28125   0.00000  Uiso   1.00
C6     C     0.15071   0.18897   0.21864   0.00000  Uiso   1.00
C7     C     0.13302   0.14429   0.28127   0.00000  Uiso   1.00
C8     C     0.20036   0.18885   0.21856   0.00000  Uiso   1.00
C9     C     0.30625   0.16708   0.33628   0.00000  Uiso   1.00
C10    C     0.02708   0.16526   0.16381   0.00000  Uiso   1.00
C11    C     0.29184   0.16791   0.38585   0.00000  Uiso   1.00
C12    C     0.33307   0.24597   0.25037   0.00000  Uiso   1.00
C13    C     0.04181   0.15915   0.11477   0.00000  Uiso   1.00
C14    C     0.30800   0.18060   0.45793   0.00000  Uiso   1.00
C15    C     0.02874   0.13294   0.04550   0.00000  Uiso   1.00
C16    C     0.32460   0.17844   0.41114   0.00000  Uiso   1.00
C17    C     0.01036   0.14215   0.09114   0.00000  Uiso   1.00
C18    C     0.24338   0.15902   0.40804   0.00000  Uiso   1.00
C19    C     0.09043   0.16678   0.09228   0.00000  Uiso   1.00
C20    C     0.22619   0.16063   0.45512   0.00000  Uiso   1.00
C21    C     0.10997   0.15543   0.04730   0.00000  Uiso   1.00
C22    C     0.25925   0.17253   0.47983   0.00000  Uiso   1.00
C23    C     0.19491   0.17086   0.04854   0.00000  Uiso   1.00
C24    C     0.07789   0.13934   0.02368   0.00000  Uiso   1.00
C25    C     0.17677   0.15227   0.47813   0.00000  Uiso   1.00
C26    C     0.16032   0.15992   0.02512   0.00000  Uiso   1.00
C27    C     0.21182   0.29609   0.26670   0.00000  Uiso   1.00
C28    C     0.16570   0.27400   0.29229   0.00000  Uiso   1.00
C29    C     0.08934   0.04917   0.16363   0.00000  Uiso   1.00
C30    C     0.13445   0.07480   0.14313   0.00000  Uiso   1.00
C31    C     0.14345   0.13599   0.45593   0.00000  Uiso   1.00
C32    C     0.24336   0.17686   0.02620   0.00000  Uiso   1.00
C33    C     0.09515   0.12931   0.47852   0.00000  Uiso   1.00
C34    C     0.29064   0.02196   0.26817   0.00000  Uiso   1.00
C35    C     0.04268   0.31158   0.23044   0.00000  Uiso   1.00
C36    C     0.28924   0.31247   0.26813   0.00000  Uiso   1.00
Cu37   Cu    0.04689   0.16667   0.25000   0.00000  Uiso   1.00
Cu38   Cu    0.28645   0.16666   0.25000   0.00000  Uiso   1.00
H39    H     0.26852   0.18576   0.04532   0.00000  Uiso   1.00
H40    H     0.07597   0.29483   0.21588   0.00000  Uiso   1.00
H41    H     0.19428   0.12615   0.30622   0.00000  Uiso   1.00
H42    H     0.13909   0.20705   0.19367   0.00000  Uiso   1.00
H43    H     0.10723   0.12633   0.30626   0.00000  Uiso   1.00
H44    H     0.22615   0.20678   0.19355   0.00000  Uiso   1.00
H45    H     0.27504   0.16096   0.11910   0.00000  Uiso   1.00
H46    H     0.27787   0.11563   0.09299   0.00000  Uiso   1.00
H47    H     0.06322   0.16833   0.40168   0.00000  Uiso   1.00
H48    H     0.04756   0.21839   0.39881   0.00000  Uiso   1.00
H49    H     0.22485   0.28188   0.23291   0.00000  Uiso   1.00
H50    H     0.07102   0.11631   0.46035   0.00000  Uiso   1.00
H51    H     0.20234   0.32897   0.26259   0.00000  Uiso   1.00
H52    H     0.15035   0.28914   0.32513   0.00000  Uiso   1.00
H53    H     0.13833   0.27514   0.27249   0.00000  Uiso   1.00
H54    H     0.17383   0.24129   0.29845   0.00000  Uiso   1.00
H55    H     0.05710   0.06692   0.15976   0.00000  Uiso   1.00
H56    H     0.09205   0.01980   0.14473   0.00000  Uiso   1.00
H57    H     0.16754   0.05772   0.14549   0.00000  Uiso   1.00
H58    H     0.13689   0.08144   0.10719   0.00000  Uiso   1.00
H59    H     0.13260   0.10444   0.16121   0.00000  Uiso   1.00
H60    H     0.11240   0.18186   0.11088   0.00000  Uiso   1.00
H61    H     0.21925   0.15218   0.38752   0.00000  Uiso   1.00
H62    H     0.33318   0.18951   0.47707   0.00000  Uiso   1.00
H63    H     0.00472   0.12012   0.02709   0.00000  Uiso   1.00
H64    H     0.18607   0.17407   0.08452   0.00000  Uiso   1.00
H65    H     0.15373   0.12672   0.42128   0.00000  Uiso   1.00
H66    H     0.25810   0.03889   0.28466   0.00000  Uiso   1.00
N67    N     0.11736   0.16668   0.24999   0.00000  Uiso   1.00
N68    N     0.21597   0.16666   0.25001   0.00000  Uiso   1.00
N69    N     0.29390   0.13298   0.11362   0.00000  Uiso   1.00
N70    N     0.04086   0.18852   0.38957   0.00000  Uiso   1.00
O71    O     0.03958   0.10655   0.25000   0.00000  Uiso   1.00
O72    O     0.08665   0.04110   0.20932   0.00000  Uiso   1.00
O73    O     0.29375   0.22678   0.25000   0.00000  Uiso   1.00
O74    O     0.29372   0.10654   0.25001   0.00000  Uiso   1.00
O75    O     0.03961   0.22679   0.25000   0.00000  Uiso   1.00
O76    O     0.01852   0.16668   0.31492   0.00000  Uiso   1.00
O77    O     0.31481   0.16666   0.18509   0.00000  Uiso   1.00
O78    O     0.27267   0.16667   0.31492   0.00000  Uiso   1.00
O79    O     0.06067   0.16667   0.18508   0.00000  Uiso   1.00
O80    O     0.24729   0.29205   0.29101   0.00000  Uiso   1.00
C81    C     0.33357   0.08742   0.24952   0.00000  Uiso   1.00
C82    C     0.37673   0.02100   0.22862   0.00000  Uiso   1.00
C83    C     0.66598   0.29062   0.24999   0.00000  Uiso   1.00
C84    C     0.33390   0.04287   0.24859   0.00000  Uiso   1.00
C85    C     0.51598   0.14424   0.28125   0.00000  Uiso   1.00
C86    C     0.48405   0.18897   0.21864   0.00000  Uiso   1.00
C87    C     0.46635   0.14429   0.28127   0.00000  Uiso   1.00
C88    C     0.53370   0.18885   0.21856   0.00000  Uiso   1.00
C89    C     0.63958   0.16708   0.33628   0.00000  Uiso   1.00
C90    C     0.36042   0.16526   0.16381   0.00000  Uiso   1.00
C91    C     0.62517   0.16791   0.38585   0.00000  Uiso   1.00
C92    C     0.66641   0.24597   0.25037   0.00000  Uiso   1.00
C93    C     0.37514   0.15915   0.11477   0.00000  Uiso   1.00
C94    C     0.64133   0.18060   0.45793   0.00000  Uiso   1.00
C95    C     0.36207   0.13294   0.04550   0.00000  Uiso   1.00
C96    C     0.65794   0.17844   0.41114   0.00000  Uiso   1.00
C97    C     0.34369   0.14215   0.09114   0.00000  Uiso   1.00
C98    C     0.57671   0.15902   0.40804   0.00000  Uiso   1.00
C99    C     0.42376   0.16678   0.09228   0.00000  Uiso   1.00
C100   C     0.55952   0.16063   0.45512   0.00000  Uiso   1.00
C101   C     0.44330   0.15543   0.04730   0.00000  Uiso   1.00
C102   C     0.59259   0.17253   0.47983   0.00000  Uiso   1.00
C103   C     0.52824   0.17086   0.04854   0.00000  Uiso   1.00
C104   C     0.41123   0.13934   0.02368   0.00000  Uiso   1.00
C105   C     0.51010   0.15227   0.47813   0.00000  Uiso   1.00
C106   C     0.49365   0.15992   0.02512   0.00000  Uiso   1.00
C107   C     0.54515   0.29609   0.26670   0.00000  Uiso   1.00
C108   C     0.49904   0.27400   0.29229   0.00000  Uiso   1.00
C109   C     0.42268   0.04917   0.16363   0.00000  Uiso   1.00
C110   C     0.46779   0.07480   0.14313   0.00000  Uiso   1.00
C111   C     0.47678   0.13599   0.45593   0.00000  Uiso   1.00
C112   C     0.57670   0.17686   0.02620   0.00000  Uiso   1.00
C113   C     0.42849   0.12931   0.47852   0.00000  Uiso   1.00
C114   C     0.62398   0.02196   0.26817   0.00000  Uiso   1.00
C115   C     0.37602   0.31158   0.23044   0.00000  Uiso   1.00
C116   C     0.62257   0.31247   0.26813   0.00000  Uiso   1.00
Cu117  Cu    0.38022   0.16667   0.25000   0.00000  Uiso   1.00
Cu118  Cu    0.61978   0.16666   0.25000   0.00000  Uiso   1.00
H119   H     0.60185   0.18576   0.04532   0.00000  Uiso   1.00
H120   H     0.40931   0.29483   0.21588   0.00000  Uiso   1.00
H121   H     0.52761   0.12615   0.30622   0.00000  Uiso   1.00
H122   H     0.47242   0.20705   0.19367   0.00000  Uiso   1.00
H123   H     0.44056   0.12633   0.30626   0.00000  Uiso   1.00
H124   H     0.55948   0.20678   0.19355   0.00000  Uiso   1.00
H125   H     0.60838   0.16096   0.11910   0.00000  Uiso   1.00
H126   H     0.61120   0.11563   0.09299   0.00000  Uiso   1.00
H127   H     0.39655   0.16833   0.40168   0.00000  Uiso   1.00
H128   H     0.38089   0.21839   0.39881   0.00000  Uiso   1.00
H129   H     0.55819   0.28188   0.23291   0.00000  Uiso   1.00
H130   H     0.40435   0.11631   0.46035   0.00000  Uiso   1.00
H131   H     0.53568   0.32897   0.26259   0.00000  Uiso   1.00
H132   H     0.48369   0.28914   0.32513   0.00000  Uiso   1.00
H133   H     0.47166   0.27514   0.27249   0.00000  Uiso   1.00
H134   H     0.50717   0.24129   0.29845   0.00000  Uiso   1.00
H135   H     0.39043   0.06692   0.15976   0.00000  Uiso   1.00
H136   H     0.42539   0.01980   0.14473   0.00000  Uiso   1.00
H137   H     0.50087   0.05772   0.14549   0.00000  Uiso   1.00
H138   H     0.47022   0.08144   0.10719   0.00000  Uiso   1.00
H139   H     0.46594   0.10444   0.16121   0.00000  Uiso   1.00
H140   H     0.44573   0.18186   0.11088   0.00000  Uiso   1.00
H141   H     0.55259   0.15218   0.38752   0.00000  Uiso   1.00
H142   H     0.66652   0.18951   0.47707   0.00000  Uiso   1.00
H143   H     0.33806   0.12012   0.02709   0.00000  Uiso   1.00
H144   H     0.51941   0.17407   0.08452   0.00000  Uiso   1.00
H145   H     0.48706   0.12672   0.42128   0.00000  Uiso   1.00
H146   H     0.59144   0.03889   0.28466   0.00000  Uiso   1.00
N147   N     0.45069   0.16668   0.24999   0.00000  Uiso   1.00
N148   N     0.54931   0.16666   0.25001   0.00000  Uiso   1.00
N149   N     0.62723   0.13298   0.11362   0.00000  Uiso   1.00
N150   N     0.37419   0.18852   0.38957   0.00000  Uiso   1.00
O151   O     0.37291   0.10655   0.25000   0.00000  Uiso   1.00
O152   O     0.41999   0.04110   0.20932   0.00000  Uiso   1.00
O153   O     0.62709   0.22678   0.25000   0.00000  Uiso   1.00
O154   O     0.62706   0.10654   0.25001   0.00000  Uiso   1.00
O155   O     0.37294   0.22679   0.25000   0.00000  Uiso   1.00
O156   O     0.35186   0.16668   0.31492   0.00000  Uiso   1.00
O157   O     0.64814   0.16666   0.18509   0.00000  Uiso   1.00
O158   O     0.60600   0.16667   0.31492   0.00000  Uiso   1.00
O159   O     0.39400   0.16667   0.18508   0.00000  Uiso   1.00
O160   O     0.58062   0.29205   0.29101   0.00000  Uiso   1.00
C161   C     0.66691   0.08742   0.24952   0.00000  Uiso   1.00
C162   C     0.71006   0.02100   0.22862   0.00000  Uiso   1.00
C163   C     0.99932   0.29062   0.24999   0.00000  Uiso   1.00
C164   C     0.66723   0.04287   0.24859   0.00000  Uiso   1.00
C165   C     0.84931   0.14424   0.28125   0.00000  Uiso   1.00
C166   C     0.81738   0.18897   0.21864   0.00000  Uiso   1.00
C167   C     0.79968   0.14429   0.28127   0.00000  Uiso   1.00
C168   C     0.86703   0.18885   0.21856   0.00000  Uiso   1.00
C169   C     0.97292   0.16708   0.33628   0.00000  Uiso   1.00
C170   C     0.69375   0.16526   0.16381   0.00000  Uiso   1.00
C171   C     0.95850   0.16791   0.38585   0.00000  Uiso   1.00
C172   C     0.99974   0.24597   0.25037   0.00000  Uiso   1.00
C173   C     0.70848   0.15915   0.11477   0.00000  Uiso   1.00
C174   C     0.97467   0.18060   0.45793   0.00000  Uiso   1.00
C175   C     0.69540   0.13294   0.04550   0.00000  Uiso   1.00
C176   C     0.99127   0.17844   0.41114   0.00000  Uiso   1.00
C177   C     0.67703   0.14215   0.09114   0.00000  Uiso   1.00
C178   C     0.91005   0.15902   0.40804   0.00000  Uiso   1.00
C179   C     0.75710   0.16678   0.09228   0.00000  Uiso   1.00
C180   C     0.89285   0.16063   0.45512   0.00000  Uiso   1.00
C181   C     0.77664   0.15543   0.04730   0.00000  Uiso   1.00
C182   C     0.92592   0.17253   0.47983   0.00000  Uiso   1.00
C183   C     0.86157   0.17086   0.04854   0.00000  Uiso   1.00
C184   C     0.74456   0.13934   0.02368   0.00000  Uiso   1.00
C185   C     0.84344   0.15227   0.47813   0.00000  Uiso   1.00
C186   C     0.82698   0.15992   0.02512   0.00000  Uiso   1.00
C187   C     0.87849   0.29609   0.26670   0.00000  Uiso   1.00
C188   C     0.83237   0.27400   0.29229   0.00000  Uiso   1.00
C189   C     0.75601   0.04917   0.16363   0.00000  Uiso   1.00
C190   C     0.80112   0.07480   0.14313   0.00000  Uiso   1.00
C191   C     0.81011   0.13599   0.45593   0.00000  Uiso   1.00
C192   C     0.91003   0.17686   0.02620   0.00000  Uiso   1.00
C193   C     0.76182   0.12931   0.47852   0.00000  Uiso   1.00
C194   C     0.95731   0.02196   0.26817   0.00000  Uiso   1.00
C195   C     0.70935   0.31158   0.23044   0.00000  Uiso   1.00
C196   C     0.95590   0.31247   0.26813   0.00000  Uiso   1.00
Cu197  Cu    0.71355   0.16667   0.25000   0.00000  Uiso   1.00
Cu198  Cu    0.95311   0.16666   0.25000   0.00000  Uiso   1.00
H199   H     0.93519   0.18576   0.04532   0.00000  Uiso   1.00
H200   H     0.74264   0.29483   0.21588   0.00000  Uiso   1.00
H201   H     0.86094   0.12615   0.30622   0.00000  Uiso   1.00
H202   H     0.80576   0.20705   0.19367   0.00000  Uiso   1.00
H203   H     0.77389   0.12633   0.30626   0.00000  Uiso   1.00
H204   H     0.89282   0.20678   0.19355   0.00000  Uiso   1.00
H205   H     0.94171   0.16096   0.11910   0.00000  Uiso   1.00
H206   H     0.94453   0.11563   0.09299   0.00000  Uiso   1.00
H207   H     0.72989   0.16833   0.40168   0.00000  Uiso   1.00
H208   H     0.71422   0.21839   0.39881   0.00000  Uiso   1.00
H209   H     0.89152   0.28188   0.23291   0.00000  Uiso   1.00
H210   H     0.73768   0.11631   0.46035   0.00000  Uiso   1.00
H211   H     0.86901   0.32897   0.26259   0.00000  Uiso   1.00
H212   H     0.81702   0.28914   0.32513   0.00000  Uiso   1.00
H213   H     0.80499   0.27514   0.27249   0.00000  Uiso   1.00
H214   H     0.84050   0.24129   0.29845   0.00000  Uiso   1.00
H215   H     0.72377   0.06692   0.15976   0.00000  Uiso   1.00
H216   H     0.75872   0.01980   0.14473   0.00000  Uiso   1.00
H217   H     0.83420   0.05772   0.14549   0.00000  Uiso   1.00
H218   H     0.80356   0.08144   0.10719   0.00000  Uiso   1.00
H219   H     0.79927   0.10444   0.16121   0.00000  Uiso   1.00
H220   H     0.77906   0.18186   0.11088   0.00000  Uiso   1.00
H221   H     0.88592   0.15218   0.38752   0.00000  Uiso   1.00
H222   H     0.99985   0.18951   0.47707   0.00000  Uiso   1.00
H223   H     0.67139   0.12012   0.02709   0.00000  Uiso   1.00
H224   H     0.85274   0.17407   0.08452   0.00000  Uiso   1.00
H225   H     0.82040   0.12672   0.42128   0.00000  Uiso   1.00
H226   H     0.92477   0.03889   0.28466   0.00000  Uiso   1.00
N227   N     0.78403   0.16668   0.24999   0.00000  Uiso   1.00
N228   N     0.88264   0.16666   0.25001   0.00000  Uiso   1.00
N229   N     0.96056   0.13298   0.11362   0.00000  Uiso   1.00
N230   N     0.70753   0.18852   0.38957   0.00000  Uiso   1.00
O231   O     0.70625   0.10655   0.25000   0.00000  Uiso   1.00
O232   O     0.75332   0.04110   0.20932   0.00000  Uiso   1.00
O233   O     0.96042   0.22678   0.25000   0.00000  Uiso   1.00
O234   O     0.96039   0.10654   0.25001   0.00000  Uiso   1.00
O235   O     0.70628   0.22679   0.25000   0.00000  Uiso   1.00
O236   O     0.68519   0.16668   0.31492   0.00000  Uiso   1.00
O237   O     0.98148   0.16666   0.18509   0.00000  Uiso   1.00
O238   O     0.93933   0.16667   0.31492   0.00000  Uiso   1.00
O239   O     0.72733   0.16667   0.18508   0.00000  Uiso   1.00
O240   O     0.91396   0.29205   0.29101   0.00000  Uiso   1.00
C241   C     0.00024   0.42075   0.24952   0.00000  Uiso   1.00
C242   C     0.04340   0.35434   0.22862   0.00000  Uiso   1.00
C243   C     0.33265   0.62395   0.24999   0.00000  Uiso   1.00
C244   C     0.00057   0.37620   0.24859   0.00000  Uiso   1.00
C245   C     0.18265   0.47757   0.28125   0.00000  Uiso   1.00
C246   C     0.15071   0.52230   0.21864   0.00000  Uiso   1.00
C247   C     0.13302   0.47762   0.28127   0.00000  Uiso   1.00
C248   C     0.20036   0.52219   0.21856   0.00000  Uiso   1.00
C249   C     0.30625   0.50041   0.33628   0.00000  Uiso   1.00
C250   C     0.02708   0.49859   0.16381   0.00000  Uiso   1.00
C251   C     0.29184   0.50124   0.38585   0.00000  Uiso   1.00
C252   C     0.33307   0.57930   0.25037   0.00000  Uiso   1.00
C253   C     0.04181   0.49248   0.11477   0.00000  Uiso   1.00
C254   C     0.30800   0.51393   0.45793   0.00000  Uiso   1.00
C255   C     0.02874   0.46628   0.04550   0.00000  Uiso   1.00
C256   C     0.32460   0.51178   0.41114   0.00000  Uiso   1.00
C257   C     0.01036   0.47548   0.09114   0.00000  Uiso   1.00
C258   C     0.24338   0.49235   0.40804   0.00000  Uiso   1.00
C259   C     0.09043   0.50011   0.09228   0.00000  Uiso   1.00
C260   C     0.22619   0.49396   0.45512   0.00000  Uiso   1.00
C261   C     0.10997   0.48877   0.04730   0.00000  Uiso   1.00
C262   C     0.25925   0.50586   0.47983   0.00000  Uiso   1.00
C263   C     0.19491   0.50419   0.04854   0.00000  Uiso   1.00
C264   C     0.07789   0.47267   0.02368   0.00000  Uiso   1.00
C265   C     0.17677   0.48561   0.47813   0.00000  Uiso   1.00
C266   C     0.16032   0.49326   0.02512   0.00000  Uiso   1.00
C267   C     0.21182   0.62943   0.26670   0.00000  Uiso   1.00
C268   C     0.16570   0.60733   0.29229   0.00000  Uiso   1.00
C269   C     0.08934   0.38250   0.16363   0.00000  Uiso   1.00
C270   C     0.13445   0.40813   0.14313   0.00000  Uiso   1.00
C271   C     0.14345   0.46932   0.45593   0.00000  Uiso   1.00
C272   C     0.24336   0.51019   0.02620   0.00000  Uiso   1.00
C273   C     0.09515   0.46264   0.47852   0.00000  Uiso   1.00
C274   C     0.29064   0.35529   0.26817   0.00000  Uiso   1.00
C275   C     0.04268   0.64492   0.23044   0.00000  Uiso   1.00
C276   C     0.28924   0.64580   0.26813   0.00000  Uiso   1.00
Cu277  Cu    0.04689   0.50001   0.25000   0.00000  Uiso   1.00
Cu278  Cu    0.28645   0.49999   0.25000   0.00000  Uiso   1.00
H279   H     0.26852   0.51910   0.04532   0.00000  Uiso   1.00
H280   H     0.07597   0.62816   0.21588   0.00000  Uiso   1.00
H281   H     0.19428   0.45949   0.30622   0.00000  Uiso   1.00
H282   H     0.13909   0.54039   0.19367   0.00000  Uiso   1.00
H283   H     0.10723   0.45967   0.30626   0.00000  Uiso   1.00
H284   H     0.22615   0.54011   0.19355   0.00000  Uiso   1.00
H285   H     0.27504   0.49429   0.11910   0.00000  Uiso   1.00
H286   H     0.27787   0.44896   0.09299   0.00000  Uiso   1.00
H287   H     0.06322   0.50166   0.40168   0.00000  Uiso   1.00
H288   H     0.04756   0.55173   0.39881   0.00000  Uiso   1.00
H289   H     0.22485   0.61522   0.23291   0.00000  Uiso   1.00
H290   H     0.07102   0.44964   0.46035   0.00000  Uiso   1.00
H291   H     0.20234   0.66230   0.26259   0.00000  Uiso   1.00
H292   H     0.15035   0.62247   0.32513   0.00000  Uiso   1.00
H293   H     0.13833   0.60848   0.27249   0.00000  Uiso   1.00
H294   H     0.17383   0.57463   0.29845   0.00000  Uiso   1.00
H295   H     0.05710   0.40025   0.15976   0.00000  Uiso   1.00
H296   H     0.09205   0.35314   0.14473   0.00000  Uiso   1.00
H297   H     0.16754   0.39106   0.14549   0.00000  Uiso   1.00
H298   H     0.13689   0.41477   0.10719   0.00000  Uiso   1.00
H299   H     0.13260   0.43777   0.16121   0.00000  Uiso   1.00
H300   H     0.11240   0.51519   0.11088   0.00000  Uiso   1.00
H301   H     0.21925   0.48552   0.38752   0.00000  Uiso   1.00
H302   H     0.33318   0.52285   0.47707   0.00000  Uiso   1.00
H303   H     0.00472   0.45345   0.02709   0.00000  Uiso   1.00
H304   H     0.18607   0.50740   0.08452   0.00000  Uiso   1.00
H305   H     0.15373   0.46005   0.42128   0.00000  Uiso   1.00
H306   H     0.25810   0.37222   0.28466   0.00000  Uiso   1.00
N307   N     0.11736   0.50001   0.24999   0.00000  Uiso   1.00
N308   N     0.21597   0.49999   0.25001   0.00000  Uiso   1.00
N309   N     0.29390   0.46632   0.11362   0.00000  Uiso   1.00
N310   N     0.04086   0.52185   0.38957   0.00000  Uiso   1.00
O311   O     0.03958   0.43989   0.25000   0.00000  Uiso   1.00
O312   O     0.08665   0.37443   0.20932   0.00000  Uiso   1.00
O313   O     0.29375   0.56011   0.25000   0.00000  Uiso   1.00
O314   O     0.29372   0.43988   0.25001   0.00000  Uiso   1.00
O315   O     0.03961   0.56012   0.25000   0.00000  Uiso   1.00
O316   O     0.01852   0.50001   0.31492   0.00000  Uiso   1.00
O317   O     0.31481   0.49999   0.18509   0.00000  Uiso   1.00
O318   O     0.27267   0.50000   0.31492   0.00000  Uiso   1.00
O319   O     0.06067   0.50000   0.18508   0.00000  Uiso   1.00
O320   O     0.24729   0.62538   0.29101   0.00000  Uiso   1.00
C321   C     0.33357   0.42075   0.24952   0.00000  Uiso   1.00
C322   C     0.37673   0.35434   0.22862   0.00000  Uiso   1.00
C323   C     0.66598   0.62395   0.24999   0.00000  Uiso   1.00
C324   C     0.33390   0.37620   0.24859   0.00000  Uiso   1.00
C325   C     0.51598   0.47757   0.28125   0.00000  Uiso   1.00
C326   C     0.48405   0.52230   0.21864   0.00000  Uiso   1.00
C327   C     0.46635   0.47762   0.28127   0.00000  Uiso   1.00
C328   C     0.53370   0.52219   0.21856   0.00000  Uiso   1.00
C329   C     0.63958   0.50041   0.33628   0.00000  Uiso   1.00
C330   C     0.36042   0.49859   0.16381   0.00000  Uiso   1.00
C331   C     0.62517   0.50124   0.38585   0.00000  Uiso   1.00
C332   C     0.66641   0.57930   0.25037   0.00000  Uiso   1.00
C333   C     0.37514   0.49248   0.11477   0.00000  Uiso   1.00
C334   C     0.64133   0.51393   0.45793   0.00000  Uiso   1.00
C335   C     0.36207   0.46628   0.04550   0.00000  Uiso   1.00
C336   C     0.65794   0.51178   0.41114   0.00000  Uiso   1.00
C337   C     0.34369   0.47548   0.09114   0.00000  Uiso   1.00
C338   C     0.57671   0.49235   0.40804   0.00000  Uiso   1.00
C339   C     0.42376   0.50011   0.09228   0.00000  Uiso   1.00
C340   C     0.55952   0.49396   0.45512   0.00000  Uiso   1.00
C341   C     0.44330   0.48877   0.04730   0.00000  Uiso   1.00
C342   C     0.59259   0.50586   0.47983   0.00000  Uiso   1.00
C343   C     0.52824   0.50419   0.04854   0.00000  Uiso   1.00
C344   C     0.41123   0.47267   0.02368   0.00000  Uiso   1.00
C345   C     0.51010   0.48561   0.47813   0.00000  Uiso   1.00
C346   C     0.49365   0.49326   0.02512   0.00000  Uiso   1.00
C347   C     0.54515   0.62943   0.26670   0.00000  Uiso   1.00
C348   C     0.49904   0.60733   0.29229   0.00000  Uiso   1.00
C349   C     0.42268   0.38250   0.16363   0.00000  Uiso   1.00
C350   C     0.46779   0.40813   0.14313   0.00000  Uiso   1.00
C351   C     0.47678   0.46932   0.45593   0.00000  Uiso   1.00
C352   C     0.57670   0.51019   0.02620   0.00000  Uiso   1.00
C353   C     0.42849   0.46264   0.47852   0.00000  Uiso   1.00
C354   C     0.62398   0.35529   0.26817   0.00000  Uiso   1.00
C355   C     0.37602   0.64492   0.23044   0.00000  Uiso   1.00
C356   C     0.62257   0.64580   0.26813   0.00000  Uiso   1.00
Cu357  Cu    0.38022   0.50001   0.25000   0.00000  Uiso   1.00
Cu358  Cu    0.61978   0.49999   0.25000   0.00000  Uiso   1.00
H359   H     0.60185   0.51910   0.04532   0.00000  Uiso   1.00
H360   H     0.40931   0.62816   0.21588   0.00000  Uiso   1.00
H361   H     0.52761   0.45949   0.30622   0.00000  Uiso   1.00
H362   H     0.47242   0.54039   0.19367   0.00000  Uiso   1.00
H363   H     0.44056   0.45967   0.30626   0.00000  Uiso   1.00
H364   H     0.55948   0.54011   0.19355   0.00000  Uiso   1.00
H365   H     0.60838   0.49429   0.11910   0.00000  Uiso   1.00
H366   H     0.61120   0.44896   0.09299   0.00000  Uiso   1.00
H367   H     0.39655   0.50166   0.40168   0.00000  Uiso   1.00
H368   H     0.38089   0.55173   0.39881   0.00000  Uiso   1.00
H369   H     0.55819   0.61522   0.23291   0.00000  Uiso   1.00
H370   H     0.40435   0.44964   0.46035   0.00000  Uiso   1.00
H371   H     0.53568   0.66230   0.26259   0.00000  Uiso   1.00
H372   H     0.48369   0.62247   0.32513   0.00000  Uiso   1.00
H373   H     0.47166   0.60848   0.27249   0.00000  Uiso   1.00
H374   H     0.50717   0.57463   0.29845   0.00000  Uiso   1.00
H375   H     0.39043   0.40025   0.15976   0.00000  Uiso   1.00
H376   H     0.42539   0.35314   0.14473   0.00000  Uiso   1.00
H377   H     0.50087   0.39106   0.14549   0.00000  Uiso   1.00
H378   H     0.47022   0.41477   0.10719   0.00000  Uiso   1.00
H379   H     0.46594   0.43777   0.16121   0.00000  Uiso   1.00
H380   H     0.44573   0.51519   0.11088   0.00000  Uiso   1.00
H381   H     0.55259   0.48552   0.38752   0.00000  Uiso   1.00
H382   H     0.66652   0.52285   0.47707   0.00000  Uiso   1.00
H383   H     0.33806   0.45345   0.02709   0.00000  Uiso   1.00
H384   H     0.51941   0.50740   0.08452   0.00000  Uiso   1.00
H385   H     0.48706   0.46005   0.42128   0.00000  Uiso   1.00
H386   H     0.59144   0.37222   0.28466   0.00000  Uiso   1.00
N387   N     0.45069   0.50001   0.24999   0.00000  Uiso   1.00
N388   N     0.54931   0.49999   0.25001   0.00000  Uiso   1.00
N389   N     0.62723   0.46632   0.11362   0.00000  Uiso   1.00
N390   N     0.37419   0.52185   0.38957   0.00000  Uiso   1.00
O391   O     0.37291   0.43989   0.25000   0.00000  Uiso   1.00
O392   O     0.41999   0.37443   0.20932   0.00000  Uiso   1.00
O393   O     0.62709   0.56011   0.25000   0.00000  Uiso   1.00
O394   O     0.62706   0.43988   0.25001   0.00000  Uiso   1.00
O395   O     0.37294   0.56012   0.25000   0.00000  Uiso   1.00
O396   O     0.35186   0.50001   0.31492   0.00000  Uiso   1.00
O397   O     0.64814   0.49999   0.18509   0.00000  Uiso   1.00
O398   O     0.60600   0.50000   0.31492   0.00000  Uiso   1.00
O399   O     0.39400   0.50000   0.18508   0.00000  Uiso   1.00
O400   O     0.58062   0.62538   0.29101   0.00000  Uiso   1.00
C401   C     0.66691   0.42075   0.24952   0.00000  Uiso   1.00
C402   C     0.71006   0.35434   0.22862   0.00000  Uiso   1.00
C403   C     0.99932   0.62395   0.24999   0.00000  Uiso   1.00
C404   C     0.66723   0.37620   0.24859   0.00000  Uiso   1.00
C405   C     0.84931   0.47757   0.28125   0.00000  Uiso   1.00
C406   C     0.81738   0.52230   0.21864   0.00000  Uiso   1.00
C407   C     0.79968   0.47762   0.28127   0.00000  Uiso   1.00
C408   C     0.86703   0.52219   0.21856   0.00000  Uiso   1.00
C409   C     0.97292   0.50041   0.33628   0.00000  Uiso   1.00
C410   C     0.69375   0.49859   0.16381   0.00000  Uiso   1.00
C411   C     0.95850   0.50124   0.38585   0.00000  Uiso   1.00
C412   C     0.99974   0.57930   0.25037   0.00000  Uiso   1.00
C413   C     0.70848   0.49248   0.11477   0.00000  Uiso   1.00
C414   C     0.97467   0.51393   0.45793   0.00000  Uiso   1.00
C415   C     0.69540   0.46628   0.04550   0.00000  Uiso   1.00
C416   C     0.99127   0.51178   0.41114   0.00000  Uiso   1.00
C417   C     0.67703   0.47548   0.09114   0.00000  Uiso   1.00
C418   C     0.91005   0.49235   0.40804   0.00000  Uiso   1.00
C419   C     0.75710   0.50011   0.09228   0.00000  Uiso   1.00
C420   C     0.89285   0.49396   0.45512   0.00000  Uiso   1.00
C421   C     0.77664   0.48877   0.04730   0.00000  Uiso   1.00
C422   C     0.92592   0.50586   0.47983   0.00000  Uiso   1.00
C423   C     0.86157   0.50419   0.04854   0.00000  Uiso   1.00
C424   C     0.74456   0.47267   0.02368   0.00000  Uiso   1.00
C425   C     0.84344   0.48561   0.47813   0.00000  Uiso   1.00
C426   C     0.82698   0.49326   0.02512   0.00000  Uiso   1.00
C427   C     0.87849   0.62943   0.26670   0.00000  Uiso   1.00
C428   C     0.83237   0.60733   0.29229   0.00000  Uiso   1.00
C429   C     0.75601   0.38250   0.16363   0.00000  Uiso   1.00
C430   C     0.80112   0.40813   0.14313   0.00000  Uiso   1.00
C431   C     0.81011   0.46932   0.45593   0.00000  Uiso   1.00
C432   C     0.91003   0.51019   0.02620   0.00000  Uiso   1.00
C433   C     0.76182   0.46264   0.47852   0.00000  Uiso   1.00
C434   C     0.95731   0.35529   0.26817   0.00000  Uiso   1.00
C435   C     0.70935   0.64492   0.23044   0.00000  Uiso   1.00
C436   C     0.95590   0.64580   0.26813   0.00000  Uiso   1.00
Cu437  Cu    0.71355   0.50001   0.25000   0.00000  Uiso   1.00
Cu438  Cu    0.95311   0.49999   0.25000   0.00000  Uiso   1.00
H439   H     0.93519   0.51910   0.04532   0.00000  Uiso   1.00
H440   H     0.74264   0.62816   0.21588   0.00000  Uiso   1.00
H441   H     0.86094   0.45949   0.30622   0.00000  Uiso   1.00
H442   H     0.80576   0.54039   0.19367   0.00000  Uiso   1.00
H443   H     0.77389   0.45967   0.30626   0.00000  Uiso   1.00
H444   H     0.89282   0.54011   0.19355   0.00000  Uiso   1.00
H445   H     0.94171   0.49429   0.11910   0.00000  Uiso   1.00
H446   H     0.94453   0.44896   0.09299   0.00000  Uiso   1.00
H447   H     0.72989   0.50166   0.40168   0.00000  Uiso   1.00
H448   H     0.71422   0.55173   0.39881   0.00000  Uiso   1.00
H449   H     0.89152   0.61522   0.23291   0.00000  Uiso   1.00
H450   H     0.73768   0.44964   0.46035   0.00000  Uiso   1.00
H451   H     0.86901   0.66230   0.26259   0.00000  Uiso   1.00
H452   H     0.81702   0.62247   0.32513   0.00000  Uiso   1.00
H453   H     0.80499   0.60848   0.27249   0.00000  Uiso   1.00
H454   H     0.84050   0.57463   0.29845   0.00000  Uiso   1.00
H455   H     0.72377   0.40025   0.15976   0.00000  Uiso   1.00
H456   H     0.75872   0.35314   0.14473   0.00000  Uiso   1.00
H457   H     0.83420   0.39106   0.14549   0.00000  Uiso   1.00
H458   H     0.80356   0.41477   0.10719   0.00000  Uiso   1.00
H459   H     0.79927   0.43777   0.16121   0.00000  Uiso   1.00
H460   H     0.77906   0.51519   0.11088   0.00000  Uiso   1.00
H461   H     0.88592   0.48552   0.38752   0.00000  Uiso   1.00
H462   H     0.99985   0.52285   0.47707   0.00000  Uiso   1.00
H463   H     0.67139   0.45345   0.02709   0.00000  Uiso   1.00
H464   H     0.85274   0.50740   0.08452   0.00000  Uiso   1.00
H465   H     0.82040   0.46005   0.42128   0.00000  Uiso   1.00
H466   H     0.92477   0.37222   0.28466   0.00000  Uiso   1.00
N467   N     0.78403   0.50001   0.24999   0.00000  Uiso   1.00
N468   N     0.88264   0.49999   0.25001   0.00000  Uiso   1.00
N469   N     0.96056   0.46632   0.11362   0.00000  Uiso   1.00
N470   N     0.70753   0.52185   0.38957   0.00000  Uiso   1.00
O471   O     0.70625   0.43989   0.25000   0.00000  Uiso   1.00
O472   O     0.75332   0.37443   0.20932   0.00000  Uiso   1.00
O473   O     0.96042   0.56011   0.25000   0.00000  Uiso   1.00
O474   O     0.96039   0.43988   0.25001   0.00000  Uiso   1.00
O475   O     0.70628   0.56012   0.25000   0.00000  Uiso   1.00
O476   O     0.68519   0.50001   0.31492   0.00000  Uiso   1.00
O477   O     0.98148   0.49999   0.18509   0.00000  Uiso   1.00
O478   O     0.93933   0.50000   0.31492   0.00000  Uiso   1.00
O479   O     0.72733   0.50000   0.18508   0.00000  Uiso   1.00
O480   O     0.91396   0.62538   0.29101   0.00000  Uiso   1.00
C481   C     0.00024   0.75408   0.24952   0.00000  Uiso   1.00
C482   C     0.04340   0.68767   0.22862   0.00000  Uiso   1.00
C483   C     0.33265   0.95729   0.24999   0.00000  Uiso   1.00
C484   C     0.00057   0.70953   0.24859   0.00000  Uiso   1.00
C485   C     0.18265   0.81090   0.28125   0.00000  Uiso   1.00
C486   C     0.15071   0.85564   0.21864   0.00000  Uiso   1.00
C487   C     0.13302   0.81095   0.28127   0.00000  Uiso   1.00
C488   C     0.20036   0.85552   0.21856   0.00000  Uiso   1.00
C489   C     0.30625   0.83375   0.33628   0.00000  Uiso   1.00
C490   C     0.02708   0.83192   0.16381   0.00000  Uiso   1.00
C491   C     0.29184   0.83458   0.38585   0.00000  Uiso   1.00
C492   C     0.33307   0.91264   0.25037   0.00000  Uiso   1.00
C493   C     0.04181   0.82581   0.11477   0.00000  Uiso   1.00
C494   C     0.30800   0.84727   0.45793   0.00000  Uiso   1.00
C495   C     0.02874   0.79961   0.04550   0.00000  Uiso   1.00
C496   C     0.32460   0.84511   0.41114   0.00000  Uiso   1.00
C497   C     0.01036   0.80881   0.09114   0.00000  Uiso   1.00
C498   C     0.24338   0.82568   0.40804   0.00000  Uiso   1.00
C499   C     0.09043   0.83344   0.09228   0.00000  Uiso   1.00
C500   C     0.22619   0.82730   0.45512   0.00000  Uiso   1.00
C501   C     0.10997   0.82210   0.04730   0.00000  Uiso   1.00
C502   C     0.25925   0.83919   0.47983   0.00000  Uiso   1.00
C503   C     0.19491   0.83753   0.04854   0.00000  Uiso   1.00
C504   C     0.07789   0.80600   0.02368   0.00000  Uiso   1.00
C505   C     0.17677   0.81894   0.47813   0.00000  Uiso   1.00
C506   C     0.16032   0.82659   0.02512   0.00000  Uiso   1.00
C507   C     0.21182   0.96276   0.26670   0.00000  Uiso   1.00
C508   C     0.16570   0.94066   0.29229   0.00000  Uiso   1.00
C509   C     0.08934   0.71583   0.16363   0.00000  Uiso   1.00
C510   C     0.13445   0.74147   0.14313   0.00000  Uiso   1.00
C511   C     0.14345   0.80266   0.45593   0.00000  Uiso   1.00
C512   C     0.24336   0.84352   0.02620   0.00000  Uiso   1.00
C513   C     0.09515   0.79597   0.47852   0.00000  Uiso   1.00
C514   C     0.29064   0.68863   0.26817   0.00000  Uiso   1.00
C515   C     0.04268   0.97825   0.23044   0.00000  Uiso   1.00
C516   C     0.28924   0.97913   0.26813   0.00000  Uiso   1.00
Cu517  Cu    0.04689   0.83334   0.25000   0.00000  Uiso   1.00
Cu518  Cu    0.28645   0.83333   0.25000   0.00000  Uiso   1.00
H519   H     0.26852   0.85243   0.04532   0.00000  Uiso   1.00
H520   H     0.07597   0.96150   0.21588   0.00000  Uiso   1.00
H521   H     0.19428   0.79282   0.30622   0.00000  Uiso   1.00
H522   H     0.13909   0.87372   0.19367   0.00000  Uiso   1.00
H523   H     0.10723   0.79300   0.30626   0.00000  Uiso   1.00
H524   H     0.22615   0.87344   0.19355   0.00000  Uiso   1.00
H525   H     0.27504   0.82762   0.11910   0.00000  Uiso   1.00
H526   H     0.27787   0.78229   0.09299   0.00000  Uiso   1.00
H527   H     0.06322   0.83500   0.40168   0.00000  Uiso   1.00
H528   H     0.04756   0.88506   0.39881   0.00000  Uiso   1.00
H529   H     0.22485   0.94855   0.23291   0.00000  Uiso   1.00
H530   H     0.07102   0.78298   0.46035   0.00000  Uiso   1.00
H531   H     0.20234   0.99564   0.26259   0.00000  Uiso   1.00
H532   H     0.15035   0.95580   0.32513   0.00000  Uiso   1.00
H533   H     0.13833   0.94181   0.27249   0.00000  Uiso   1.00
H534   H     0.17383   0.90796   0.29845   0.00000  Uiso   1.00
H535   H     0.05710   0.73359   0.15976   0.00000  Uiso   1.00
H536   H     0.09205   0.68647   0.14473   0.00000  Uiso   1.00
H537   H     0.16754   0.72439   0.14549   0.00000  Uiso   1.00
H538   H     0.13689   0.74811   0.10719   0.00000  Uiso   1.00
H539   H     0.13260   0.77110   0.16121   0.00000  Uiso   1.00
H540   H     0.11240   0.84853   0.11088   0.00000  Uiso   1.00
H541   H     0.21925   0.81885   0.38752   0.00000  Uiso   1.00
H542   H     0.33318   0.85618   0.47707   0.00000  Uiso   1.00
H543   H     0.00472   0.78678   0.02709   0.00000  Uiso   1.00
H544   H     0.18607   0.84073   0.08452   0.00000  Uiso   1.00
H545   H     0.15373   0.79339   0.42128   0.00000  Uiso   1.00
H546   H     0.25810   0.70555   0.28466   0.00000  Uiso   1.00
N547   N     0.11736   0.83334   0.24999   0.00000  Uiso   1.00
N548   N     0.21597   0.83332   0.25001   0.00000  Uiso   1.00
N549   N     0.29390   0.79965   0.11362   0.00000  Uiso   1.00
N550   N     0.04086   0.85518   0.38957   0.00000  Uiso   1.00
O551   O     0.03958   0.77322   0.25000   0.00000  Uiso   1.00
O552   O     0.08665   0.70776   0.20932   0.00000  Uiso   1.00
O553   O     0.29375   0.89345   0.25000   0.00000  Uiso   1.00
O554   O     0.29372   0.77321   0.25001   0.00000  Uiso   1.00
O555   O     0.03961   0.89346   0.25000   0.00000  Uiso   1.00
O556   O     0.01852   0.83334   0.31492   0.00000  Uiso   1.00
O557   O     0.31481   0.83332   0.18509   0.00000  Uiso   1.00
O558   O     0.27267   0.83333   0.31492   0.00000  Uiso   1.00
O559   O     0.06067   0.83333   0.18508   0.00000  Uiso   1.00
O560   O     0.24729   0.95872   0.29101   0.00000  Uiso   1.00
C561   C     0.33357   0.75408   0.24952   0.00000  Uiso   1.00
C562   C     0.37673   0.68767   0.22862   0.00000  Uiso   1.00
C563   C     0.66598   0.95729   0.24999   0.00000  Uiso   1.00
C564   C     0.33390   0.70953   0.24859   0.00000  Uiso   1.00
C565   C     0.51598   0.81090   0.28125   0.00000  Uiso   1.00
C566   C     0.48405   0.85564   0.21864   0.00000  Uiso   1.00
C567   C     0.46635   0.81095   0.28127   0.00000  Uiso   1.00
C568   C     0.53370   0.85552   0.21856   0.00000  Uiso   1.00
C569   C     0.63958   0.83375   0.33628   0.00000  Uiso   1.00
C570   C     0.36042   0.83192   0.16381   0.00000  Uiso   1.00
C571   C     0.62517   0.83458   0.38585   0.00000  Uiso   1.00
C572   C     0.66641   0.91264   0.25037   0.00000  Uiso   1.00
C573   C     0.37514   0.82581   0.11477   0.00000  Uiso   1.00
C574   C     0.64133   0.84727   0.45793   0.00000  Uiso   1.00
C575   C     0.36207   0.79961   0.04550   0.00000  Uiso   1.00
C576   C     0.65794   0.84511   0.41114   0.00000  Uiso   1.00
C577   C     0.34369   0.80881   0.09114   0.00000  Uiso   1.00
C578   C     0.57671   0.82568   0.40804   0.00000  Uiso   1.00
C579   C     0.42376   0.83344   0.09228   0.00000  Uiso   1.00
C580   C     0.55952   0.82730   0.45512   0.00000  Uiso   1.00
C581   C     0.44330   0.82210   0.04730   0.00000  Uiso   1.00
C582   C     0.59259   0.83919   0.47983   0.00000  Uiso   1.00
C583   C     0.52824   0.83753   0.04854   0.00000  Uiso   1.00
C584   C     0.41123   0.80600   0.02368   0.00000  Uiso   1.00
C585   C     0.51010   0.81894   0.47813   0.00000  Uiso   1.00
C586   C     0.49365   0.82659   0.02512   0.00000  Uiso   1.00
C587   C     0.54515   0.96276   0.26670   0.00000  Uiso   1.00
C588   C     0.49904   0.94066   0.29229   0.00000  Uiso   1.00
C589   C     0.42268   0.71583   0.16363   0.00000  Uiso   1.00
C590   C     0.46779   0.74147   0.14313   0.00000  Uiso   1.00
C591   C     0.47678   0.80266   0.45593   0.00000  Uiso   1.00
C592   C     0.57670   0.84352   0.02620   0.00000  Uiso   1.00
C593   C     0.42849   0.79597   0.47852   0.00000  Uiso   1.00
C594   C     0.62398   0.68863   0.26817   0.00000  Uiso   1.00
C595   C     0.37602   0.97825   0.23044   0.00000  Uiso   1.00
C596   C     0.62257   0.97913   0.26813   0.00000  Uiso   1.00
Cu597  Cu    0.38022   0.83334   0.25000   0.00000  Uiso   1.00
Cu598  Cu    0.61978   0.83333   0.25000   0.00000  Uiso   1.00
H599   H     0.60185   0.85243   0.04532   0.00000  Uiso   1.00
H600   H     0.40931   0.96150   0.21588   0.00000  Uiso   1.00
H601   H     0.52761   0.79282   0.30622   0.00000  Uiso   1.00
H602   H     0.47242   0.87372   0.19367   0.00000  Uiso   1.00
H603   H     0.44056   0.79300   0.30626   0.00000  Uiso   1.00
H604   H     0.55948   0.87344   0.19355   0.00000  Uiso   1.00
H605   H     0.60838   0.82762   0.11910   0.00000  Uiso   1.00
H606   H     0.61120   0.78229   0.09299   0.00000  Uiso   1.00
H607   H     0.39655   0.83500   0.40168   0.00000  Uiso   1.00
H608   H     0.38089   0.88506   0.39881   0.00000  Uiso   1.00
H609   H     0.55819   0.94855   0.23291   0.00000  Uiso   1.00
H610   H     0.40435   0.78298   0.46035   0.00000  Uiso   1.00
H611   H     0.53568   0.99564   0.26259   0.00000  Uiso   1.00
H612   H     0.48369   0.95580   0.32513   0.00000  Uiso   1.00
H613   H     0.47166   0.94181   0.27249   0.00000  Uiso   1.00
H614   H     0.50717   0.90796   0.29845   0.00000  Uiso   1.00
H615   H     0.39043   0.73359   0.15976   0.00000  Uiso   1.00
H616   H     0.42539   0.68647   0.14473   0.00000  Uiso   1.00
H617   H     0.50087   0.72439   0.14549   0.00000  Uiso   1.00
H618   H     0.47022   0.74811   0.10719   0.00000  Uiso   1.00
H619   H     0.46594   0.77110   0.16121   0.00000  Uiso   1.00
H620   H     0.44573   0.84853   0.11088   0.00000  Uiso   1.00
H621   H     0.55259   0.81885   0.38752   0.00000  Uiso   1.00
H622   H     0.66652   0.85618   0.47707   0.00000  Uiso   1.00
H623   H     0.33806   0.78678   0.02709   0.00000  Uiso   1.00
H624   H     0.51941   0.84073   0.08452   0.00000  Uiso   1.00
H625   H     0.48706   0.79339   0.42128   0.00000  Uiso   1.00
H626   H     0.59144   0.70555   0.28466   0.00000  Uiso   1.00
N627   N     0.45069   0.83334   0.24999   0.00000  Uiso   1.00
N628   N     0.54931   0.83332   0.25001   0.00000  Uiso   1.00
N629   N     0.62723   0.79965   0.11362   0.00000  Uiso   1.00
N630   N     0.37419   0.85518   0.38957   0.00000  Uiso   1.00
O631   O     0.37291   0.77322   0.25000   0.00000  Uiso   1.00
O632   O     0.41999   0.70776   0.20932   0.00000  Uiso   1.00
O633   O     0.62709   0.89345   0.25000   0.00000  Uiso   1.00
O634   O     0.62706   0.77321   0.25001   0.00000  Uiso   1.00
O635   O     0.37294   0.89346   0.25000   0.00000  Uiso   1.00
O636   O     0.35186   0.83334   0.31492   0.00000  Uiso   1.00
O637   O     0.64814   0.83332   0.18509   0.00000  Uiso   1.00
O638   O     0.60600   0.83333   0.31492   0.00000  Uiso   1.00
O639   O     0.39400   0.83333   0.18508   0.00000  Uiso   1.00
O640   O     0.58062   0.95872   0.29101   0.00000  Uiso   1.00
C641   C     0.66691   0.75408   0.24952   0.00000  Uiso   1.00
C642   C     0.71006   0.68767   0.22862   0.00000  Uiso   1.00
C643   C     0.99932   0.95729   0.24999   0.00000  Uiso   1.00
C644   C     0.66723   0.70953   0.24859   0.00000  Uiso   1.00
C645   C     0.84931   0.81090   0.28125   0.00000  Uiso   1.00
C646   C     0.81738   0.85564   0.21864   0.00000  Uiso   1.00
C647   C     0.79968   0.81095   0.28127   0.00000  Uiso   1.00
C648   C     0.86703   0.85552   0.21856   0.00000  Uiso   1.00
C649   C     0.97292   0.83375   0.33628   0.00000  Uiso   1.00
C650   C     0.69375   0.83192   0.16381   0.00000  Uiso   1.00
C651   C     0.95850   0.83458   0.38585   0.00000  Uiso   1.00
C652   C     0.99974   0.91264   0.25037   0.00000  Uiso   1.00
C653   C     0.70848   0.82581   0.11477   0.00000  Uiso   1.00
C654   C     0.97467   0.84727   0.45793   0.00000  Uiso   1.00
C655   C     0.69540   0.79961   0.04550   0.00000  Uiso   1.00
C656   C     0.99127   0.84511   0.41114   0.00000  Uiso   1.00
C657   C     0.67703   0.80881   0.09114   0.00000  Uiso   1.00
C658   C     0.91005   0.82568   0.40804   0.00000  Uiso   1.00
C659   C     0.75710   0.83344   0.09228   0.00000  Uiso   1.00
C660   C     0.89285   0.82730   0.45512   0.00000  Uiso   1.00
C661   C     0.77664   0.82210   0.04730   0.00000  Uiso   1.00
C662   C     0.92592   0.83919   0.47983   0.00000  Uiso   1.00
C663   C     0.86157   0.83753   0.04854   0.00000  Uiso   1.00
C664   C     0.74456   0.80600   0.02368   0.00000  Uiso   1.00
C665   C     0.84344   0.81894   0.47813   0.00000  Uiso   1.00
C666   C     0.82698   0.82659   0.02512   0.00000  Uiso   1.00
C667   C     0.87849   0.96276   0.26670   0.00000  Uiso   1.00
C668   C     0.83237   0.94066   0.29229   0.00000  Uiso   1.00
C669   C     0.75601   0.71583   0.16363   0.00000  Uiso   1.00
C670   C     0.80112   0.74147   0.14313   0.00000  Uiso   1.00
C671   C     0.81011   0.80266   0.45593   0.00000  Uiso   1.00
C672   C     0.91003   0.84352   0.02620   0.00000  Uiso   1.00
C673   C     0.76182   0.79597   0.47852   0.00000  Uiso   1.00
C674   C     0.95731   0.68863   0.26817   0.00000  Uiso   1.00
C675   C     0.70935   0.97825   0.23044   0.00000  Uiso   1.00
C676   C     0.95590   0.97913   0.26813   0.00000  Uiso   1.00
Cu677  Cu    0.71355   0.83334   0.25000   0.00000  Uiso   1.00
Cu678  Cu    0.95311   0.83333   0.25000   0.00000  Uiso   1.00
H679   H     0.93519   0.85243   0.04532   0.00000  Uiso   1.00
H680   H     0.74264   0.96150   0.21588   0.00000  Uiso   1.00
H681   H     0.86094   0.79282   0.30622   0.00000  Uiso   1.00
H682   H     0.80576   0.87372   0.19367   0.00000  Uiso   1.00
H683   H     0.77389   0.79300   0.30626   0.00000  Uiso   1.00
H684   H     0.89282   0.87344   0.19355   0.00000  Uiso   1.00
H685   H     0.94171   0.82762   0.11910   0.00000  Uiso   1.00
H686   H     0.94453   0.78229   0.09299   0.00000  Uiso   1.00
H687   H     0.72989   0.83500   0.40168   0.00000  Uiso   1.00
H688   H     0.71422   0.88506   0.39881   0.00000  Uiso   1.00
H689   H     0.89152   0.94855   0.23291   0.00000  Uiso   1.00
H690   H     0.73768   0.78298   0.46035   0.00000  Uiso   1.00
H691   H     0.86901   0.99564   0.26259   0.00000  Uiso   1.00
H692   H     0.81702   0.95580   0.32513   0.00000  Uiso   1.00
H693   H     0.80499   0.94181   0.27249   0.00000  Uiso   1.00
H694   H     0.84050   0.90796   0.29845   0.00000  Uiso   1.00
H695   H     0.72377   0.73359   0.15976   0.00000  Uiso   1.00
H696   H     0.75872   0.68647   0.14473   0.00000  Uiso   1.00
H697   H     0.83420   0.72439   0.14549   0.00000  Uiso   1.00
H698   H     0.80356   0.74811   0.10719   0.00000  Uiso   1.00
H699   H     0.79927   0.77110   0.16121   0.00000  Uiso   1.00
H700   H     0.77906   0.84853   0.11088   0.00000  Uiso   1.00
H701   H     0.88592   0.81885   0.38752   0.00000  Uiso   1.00
H702   H     0.99985   0.85618   0.47707   0.00000  Uiso   1.00
H703   H     0.67139   0.78678   0.02709   0.00000  Uiso   1.00
H704   H     0.85274   0.84073   0.08452   0.00000  Uiso   1.00
H705   H     0.82040   0.79339   0.42128   0.00000  Uiso   1.00
H706   H     0.92477   0.70555   0.28466   0.00000  Uiso   1.00
N707   N     0.78403   0.83334   0.24999   0.00000  Uiso   1.00
N708   N     0.88264   0.83332   0.25001   0.00000  Uiso   1.00
N709   N     0.96056   0.79965   0.11362   0.00000  Uiso   1.00
N710   N     0.70753   0.85518   0.38957   0.00000  Uiso   1.00
O711   O     0.70625   0.77322   0.25000   0.00000  Uiso   1.00
O712   O     0.75332   0.70776   0.20932   0.00000  Uiso   1.00
O713   O     0.96042   0.89345   0.25000   0.00000  Uiso   1.00
O714   O     0.96039   0.77321   0.25001   0.00000  Uiso   1.00
O715   O     0.70628   0.89346   0.25000   0.00000  Uiso   1.00
O716   O     0.68519   0.83334   0.31492   0.00000  Uiso   1.00
O717   O     0.98148   0.83332   0.18509   0.00000  Uiso   1.00
O718   O     0.93933   0.83333   0.31492   0.00000  Uiso   1.00
O719   O     0.72733   0.83333   0.18508   0.00000  Uiso   1.00
O720   O     0.91396   0.95872   0.29101   0.00000  Uiso   1.00
C721   C     0.00024   0.08742   0.74952   0.00000  Uiso   1.00
C722   C     0.04340   0.02100   0.72862   0.00000  Uiso   1.00
C723   C     0.33265   0.29062   0.74999   0.00000  Uiso   1.00
C724   C     0.00057   0.04287   0.74859   0.00000  Uiso   1.00
C725   C     0.18265   0.14424   0.78125   0.00000  Uiso   1.00
C726   C     0.15071   0.18897   0.71864   0.00000  Uiso   1.00
C727   C     0.13302   0.14429   0.78127   0.00000  Uiso   1.00
C728   C     0.20036   0.18885   0.71856   0.00000  Uiso   1.00
C729   C     0.30625   0.16708   0.83628   0.00000  Uiso   1.00
C730   C     0.02708   0.16526   0.66381   0.00000  Uiso   1.00
C731   C     0.29184   0.16791   0.88585   0.00000  Uiso   1.00
C732   C     0.33307   0.24597   0.75037   0.00000  Uiso   1.00
C733   C     0.04181   0.15915   0.61477   0.00000  Uiso   1.00
C734   C     0.30800   0.18060   0.95793   0.00000  Uiso   1.00
C735   C     0.02874   0.13294   0.54550   0.00000  Uiso   1.00
C736   C     0.32460   0.17844   0.91114   0.00000  Uiso   1.00
C737   C     0.01036   0.14215   0.59114   0.00000  Uiso   1.00
C738   C     0.24338   0.15902   0.90804   0.00000  Uiso   1.00
C739   C     0.09043   0.16678   0.59228   0.00000  Uiso   1.00
C740   C     0.22619   0.16063   0.95512   0.00000  Uiso   1.00
C741   C     0.10997   0.15543   0.54730   0.00000  Uiso   1.00
C742   C     0.25925   0.17253   0.97983   0.00000  Uiso   1.00
C743   C     0.19491   0.17086   0.54854   0.00000  Uiso   1.00
C744   C     0.07789   0.13934   0.52368   0.00000  Uiso   1.00
C745   C     0.17677   0.15227   0.97813   0.00000  Uiso   1.00
C746   C     0.16032   0.15992   0.52512   0.00000  Uiso   1.00
C747   C     0.21182   0.29609   0.76670   0.00000  Uiso   1.00
C748   C     0.16570   0.27400   0.79229   0.00000  Uiso   1.00
C749   C     0.08934   0.04917   0.66363   0.00000  Uiso   1.00
C750   C     0.13445   0.07480   0.64313   0.00000  Uiso   1.00
C751   C     0.14345   0.13599   0.95593   0.00000  Uiso   1.00
C752   C     0.24336   0.17686   0.52620   0.00000  Uiso   1.00
C753   C     0.09515   0.12931   0.97852   0.00000  Uiso   1.00
C754   C     0.29064   0.02196   0.76817   0.00000  Uiso   1.00
C755   C     0.04268   0.31158   0.73044   0.00000  Uiso   1.00
C756   C     0.28924   0.31247   0.76813   0.00000  Uiso   1.00
Cu757  Cu    0.04689   0.16667   0.75000   0.00000  Uiso   1.00
Cu758  Cu    0.28645   0.16666   0.75000   0.00000  Uiso   1.00
H759   H     0.26852   0.18576   0.54532   0.00000  Uiso   1.00
H760   H     0.07597   0.29483   0.71588   0.00000  Uiso   1.00
H761   H     0.19428   0.12615   0.80622   0.00000  Uiso   1.00
H762   H     0.13909   0.20705   0.69367   0.00000  Uiso   1.00
H763   H     0.10723   0.12633   0.80626   0.00000  Uiso   1.00
H764   H     0.22615   0.20678   0.69355   0.00000  Uiso   1.00
H765   H     0.27504   0.16096   0.61910   0.00000  Uiso   1.00
H766   H     0.27787   0.11563   0.59299   0.00000  Uiso   1.00
H767   H     0.06322   0.16833   0.90168   0.00000  Uiso   1.00
H768   H     0.04756   0.21839   0.89881   0.00000  Uiso   1.00
H769   H     0.22485   0.28188   0.73291   0.00000  Uiso   1.00
H770   H     0.07102   0.11631   0.96035   0.00000  Uiso   1.00
H771   H     0.20234   0.32897   0.76259   0.00000  Uiso   1.00
H772   H     0.15035   0.28914   0.82513   0.00000  Uiso   1.00
H773   H     0.13833   0.27514   0.77249   0.00000  Uiso   1.00
H774   H     0.17383   0.24129   0.79845   0.00000  Uiso   1.00
H775   H     0.05710   0.06692   0.65976   0.00000  Uiso   1.00
H776   H     0.09205   0.01980   0.64473   0.00000  Uiso   1.00
H777   H     0.16754   0.05772   0.64549   0.00000  Uiso   1.00
H778   H     0.13689   0.08144   0.60719   0.00000  Uiso   1.00
H779   H     0.13260   0.10444   0.66121   0.00000  Uiso   1.00
H780   H     0.11240   0.18186   0.61088   0.00000  Uiso   1.00
H781   H     0.21925   0.15218   0.88752   0.00000  Uiso   1.00
H782   H     0.33318   0.18951   0.97707   0.00000  Uiso   1.00
H783   H     0.00472   0.12012   0.52709   0.00000  Uiso   1.00
H784   H     0.18607   0.17407   0.58452   0.00000  Uiso   1.00
H785   H     0.15373   0.12672   0.92128   0.00000  Uiso   1.00
H786   H     0.25810   0.03889   0.78466   0.00000  Uiso   1.00
N787   N     0.11736   0.16668   0.74999   0.00000  Uiso   1.00
N788   N     0.21597   0.16666   0.75001   0.00000  Uiso   1.00
N789   N     0.29390   0.13298   0.61362   0.00000  Uiso   1.00
N790   N     0.04086   0.18852   0.88957   0.00000  Uiso   1.00
O791   O     0.03958   0.10655   0.75000   0.00000  Uiso   1.00
O792   O     0.08665   0.04110   0.70932   0.00000  Uiso   1.00
O793   O     0.29375   0.22678   0.75000   0.00000  Uiso   1.00
O794   O     0.29372   0.10654   0.75001   0.00000  Uiso   1.00
O795   O     0.03961   0.22679   0.75000   0.00000  Uiso   1.00
O796   O     0.01852   0.16668   0.81492   0.00000  Uiso   1.00
O797   O     0.31481   0.16666   0.68509   0.00000  Uiso   1.00
O798   O     0.27267   0.16667   0.81492   0.00000  Uiso   1.00
O799   O     0.06067   0.16667   0.68508   0.00000  Uiso   1.00
O800   O     0.24729   0.29205   0.79101   0.00000  Uiso   1.00
C801   C     0.33357   0.08742   0.74952   0.00000  Uiso   1.00
C802   C     0.37673   0.02100   0.72862   0.00000  Uiso   1.00
C803   C     0.66598   0.29062   0.74999   0.00000  Uiso   1.00
C804   C     0.33390   0.04287   0.74859   0.00000  Uiso   1.00
C805   C     0.51598   0.14424   0.78125   0.00000  Uiso   1.00
C806   C     0.48405   0.18897   0.71864   0.00000  Uiso   1.00
C807   C     0.46635   0.14429   0.78127   0.00000  Uiso   1.00
C808   C     0.53370   0.18885   0.71856   0.00000  Uiso   1.00
C809   C     0.63958   0.16708   0.83628   0.00000  Uiso   1.00
C810   C     0.36042   0.16526   0.66381   0.00000  Uiso   1.00
C811   C     0.62517   0.16791   0.88585   0.00000  Uiso   1.00
C812   C     0.66641   0.24597   0.75037   0.00000  Uiso   1.00
C813   C     0.37514   0.15915   0.61477   0.00000  Uiso   1.00
C814   C     0.64133   0.18060   0.95793   0.00000  Uiso   1.00
C815   C     0.36207   0.13294   0.54550   0.00000  Uiso   1.00
C816   C     0.65794   0.17844   0.91114   0.00000  Uiso   1.00
C817   C     0.34369   0.14215   0.59114   0.00000  Uiso   1.00
C818   C     0.57671   0.15902   0.90804   0.00000  Uiso   1.00
C819   C     0.42376   0.16678   0.59228   0.00000  Uiso   1.00
C820   C     0.55952   0.16063   0.95512   0.00000  Uiso   1.00
C821   C     0.44330   0.15543   0.54730   0.00000  Uiso   1.00
C822   C     0.59259   0.17253   0.97983   0.00000  Uiso   1.00
C823   C     0.52824   0.17086   0.54854   0.00000  Uiso   1.00
C824   C     0.41123   0.13934   0.52368   0.00000  Uiso   1.00
C825   C     0.51010   0.15227   0.97813   0.00000  Uiso   1.00
C826   C     0.49365   0.15992   0.52512   0.00000  Uiso   1.00
C827   C     0.54515   0.29609   0.76670   0.00000  Uiso   1.00
C828   C     0.49904   0.27400   0.79229   0.00000  Uiso   1.00
C829   C     0.42268   0.04917   0.66363   0.00000  Uiso   1.00
C830   C     0.46779   0.07480   0.64313   0.00000  Uiso   1.00
C831   C     0.47678   0.13599   0.95593   0.00000  Uiso   1.00
C832   C     0.57670   0.17686   0.52620   0.00000  Uiso   1.00
C833   C     0.42849   0.12931   0.97852   0.00000  Uiso   1.00
C834   C     0.62398   0.02196   0.76817   0.00000  Uiso   1.00
C835   C     0.37602   0.31158   0.73044   0.00000  Uiso   1.00
C836   C     0.62257   0.31247   0.76813   0.00000  Uiso   1.00
Cu837  Cu    0.38022   0.16667   0.75000   0.00000  Uiso   1.00
Cu838  Cu    0.61978   0.16666   0.75000   0.00000  Uiso   1.00
H839   H     0.60185   0.18576   0.54532   0.00000  Uiso   1.00
H840   H     0.40931   0.29483   0.71588   0.00000  Uiso   1.00
H841   H     0.52761   0.12615   0.80622   0.00000  Uiso   1.00
H842   H     0.47242   0.20705   0.69367   0.00000  Uiso   1.00
H843   H     0.44056   0.12633   0.80626   0.00000  Uiso   1.00
H844   H     0.55948   0.20678   0.69355   0.00000  Uiso   1.00
H845   H     0.60838   0.16096   0.61910   0.00000  Uiso   1.00
H846   H     0.61120   0.11563   0.59299   0.00000  Uiso   1.00
H847   H     0.39655   0.16833   0.90168   0.00000  Uiso   1.00
H848   H     0.38089   0.21839   0.89881   0.00000  Uiso   1.00
H849   H     0.55819   0.28188   0.73291   0.00000  Uiso   1.00
H850   H     0.40435   0.11631   0.96035   0.00000  Uiso   1.00
H851   H     0.53568   0.32897   0.76259   0.00000  Uiso   1.00
H852   H     0.48369   0.28914   0.82513   0.00000  Uiso   1.00
H853   H     0.47166   0.27514   0.77249   0.00000  Uiso   1.00
H854   H     0.50717   0.24129   0.79845   0.00000  Uiso   1.00
H855   H     0.39043   0.06692   0.65976   0.00000  Uiso   1.00
H856   H     0.42539   0.01980   0.64473   0.00000  Uiso   1.00
H857   H     0.50087   0.05772   0.64549   0.00000  Uiso   1.00
H858   H     0.47022   0.08144   0.60719   0.00000  Uiso   1.00
H859   H     0.46594   0.10444   0.66121   0.00000  Uiso   1.00
H860   H     0.44573   0.18186   0.61088   0.00000  Uiso   1.00
H861   H     0.55259   0.15218   0.88752   0.00000  Uiso   1.00
H862   H     0.66652   0.18951   0.97707   0.00000  Uiso   1.00
H863   H     0.33806   0.12012   0.52709   0.00000  Uiso   1.00
H864   H     0.51941   0.17407   0.58452   0.00000  Uiso   1.00
H865   H     0.48706   0.12672   0.92128   0.00000  Uiso   1.00
H866   H     0.59144   0.03889   0.78466   0.00000  Uiso   1.00
N867   N     0.45069   0.16668   0.74999   0.00000  Uiso   1.00
N868   N     0.54931   0.16666   0.75001   0.00000  Uiso   1.00
N869   N     0.62723   0.13298   0.61362   0.00000  Uiso   1.00
N870   N     0.37419   0.18852   0.88957   0.00000  Uiso   1.00
O871   O     0.37291   0.10655   0.75000   0.00000  Uiso   1.00
O872   O     0.41999   0.04110   0.70932   0.00000  Uiso   1.00
O873   O     0.62709   0.22678   0.75000   0.00000  Uiso   1.00
O874   O     0.62706   0.10654   0.75001   0.00000  Uiso   1.00
O875   O     0.37294   0.22679   0.75000   0.00000  Uiso   1.00
O876   O     0.35186   0.16668   0.81492   0.00000  Uiso   1.00
O877   O     0.64814   0.16666   0.68509   0.00000  Uiso   1.00
O878   O     0.60600   0.16667   0.81492   0.00000  Uiso   1.00
O879   O     0.39400   0.16667   0.68508   0.00000  Uiso   1.00
O880   O     0.58062   0.29205   0.79101   0.00000  Uiso   1.00
C881   C     0.66691   0.08742   0.74952   0.00000  Uiso   1.00
C882   C     0.71006   0.02100   0.72862   0.00000  Uiso   1.00
C883   C     0.99932   0.29062   0.74999   0.00000  Uiso   1.00
C884   C     0.66723   0.04287   0.74859   0.00000  Uiso   1.00
C885   C     0.84931   0.14424   0.78125   0.00000  Uiso   1.00
C886   C     0.81738   0.18897   0.71864   0.00000  Uiso   1.00
C887   C     0.79968   0.14429   0.78127   0.00000  Uiso   1.00
C888   C     0.86703   0.18885   0.71856   0.00000  Uiso   1.00
C889   C     0.97292   0.16708   0.83628   0.00000  Uiso   1.00
C890   C     0.69375   0.16526   0.66381   0.00000  Uiso   1.00
C891   C     0.95850   0.16791   0.88585   0.00000  Uiso   1.00
C892   C     0.99974   0.24597   0.75037   0.00000  Uiso   1.00
C893   C     0.70848   0.15915   0.61477   0.00000  Uiso   1.00
C894   C     0.97467   0.18060   0.95793   0.00000  Uiso   1.00
C895   C     0.69540   0.13294   0.54550   0.00000  Uiso   1.00
C896   C     0.99127   0.17844   0.91114   0.00000  Uiso   1.00
C897   C     0.67703   0.14215   0.59114   0.00000  Uiso   1.00
C898   C     0.91005   0.15902   0.90804   0.00000  Uiso   1.00
C899   C     0.75710   0.16678   0.59228   0.00000  Uiso   1.00
C900   C     0.89285   0.16063   0.95512   0.00000  Uiso   1.00
C901   C     0.77664   0.15543   0.54730   0.00000  Uiso   1.00
C902   C     0.92592   0.17253   0.97983   0.00000  Uiso   1.00
C903   C     0.86157   0.17086   0.54854   0.00000  Uiso   1.00
C904   C     0.74456   0.13934   0.52368   0.00000  Uiso   1.00
C905   C     0.84344   0.15227   0.97813   0.00000  Uiso   1.00
C906   C     0.82698   0.15992   0.52512   0.00000  Uiso   1.00
C907   C     0.87849   0.29609   0.76670   0.00000  Uiso   1.00
C908   C     0.83237   0.27400   0.79229   0.00000  Uiso   1.00
C909   C     0.75601   0.04917   0.66363   0.00000  Uiso   1.00
C910   C     0.80112   0.07480   0.64313   0.00000  Uiso   1.00
C911   C     0.81011   0.13599   0.95593   0.00000  Uiso   1.00
C912   C     0.91003   0.17686   0.52620   0.00000  Uiso   1.00
C913   C     0.76182   0.12931   0.97852   0.00000  Uiso   1.00
C914   C     0.95731   0.02196   0.76817   0.00000  Uiso   1.00
C915   C     0.70935   0.31158   0.73044   0.00000  Uiso   1.00
C916   C     0.95590   0.31247   0.76813   0.00000  Uiso   1.00
Cu917  Cu    0.71355   0.16667   0.75000   0.00000  Uiso   1.00
Cu918  Cu    0.95311   0.16666   0.75000   0.00000  Uiso   1.00
H919   H     0.93519   0.18576   0.54532   0.00000  Uiso   1.00
H920   H     0.74264   0.29483   0.71588   0.00000  Uiso   1.00
H921   H     0.86094   0.12615   0.80622   0.00000  Uiso   1.00
H922   H     0.80576   0.20705   0.69367   0.00000  Uiso   1.00
H923   H     0.77389   0.12633   0.80626   0.00000  Uiso   1.00
H924   H     0.89282   0.20678   0.69355   0.00000  Uiso   1.00
H925   H     0.94171   0.16096   0.61910   0.00000  Uiso   1.00
H926   H     0.94453   0.11563   0.59299   0.00000  Uiso   1.00
H927   H     0.72989   0.16833   0.90168   0.00000  Uiso   1.00
H928   H     0.71422   0.21839   0.89881   0.00000  Uiso   1.00
H929   H     0.89152   0.28188   0.73291   0.00000  Uiso   1.00
H930   H     0.73768   0.11631   0.96035   0.00000  Uiso   1.00
H931   H     0.86901   0.32897   0.76259   0.00000  Uiso   1.00
H932   H     0.81702   0.28914   0.82513   0.00000  Uiso   1.00
H933   H     0.80499   0.27514   0.77249   0.00000  Uiso   1.00
H934   H     0.84050   0.24129   0.79845   0.00000  Uiso   1.00
H935   H     0.72377   0.06692   0.65976   0.00000  Uiso   1.00
H936   H     0.75872   0.01980   0.64473   0.00000  Uiso   1.00
H937   H     0.83420   0.05772   0.64549   0.00000  Uiso   1.00
H938   H     0.80356   0.08144   0.60719   0.00000  Uiso   1.00
H939   H     0.79927   0.10444   0.66121   0.00000  Uiso   1.00
H940   H     0.77906   0.18186   0.61088   0.00000  Uiso   1.00
H941   H     0.88592   0.15218   0.88752   0.00000  Uiso   1.00
H942   H     0.99985   0.18951   0.97707   0.00000  Uiso   1.00
H943   H     0.67139   0.12012   0.52709   0.00000  Uiso   1.00
H944   H     0.85274   0.17407   0.58452   0.00000  Uiso   1.00
H945   H     0.82040   0.12672   0.92128   0.00000  Uiso   1.00
H946   H     0.92477   0.03889   0.78466   0.00000  Uiso   1.00
N947   N     0.78403   0.16668   0.74999   0.00000  Uiso   1.00
N948   N     0.88264   0.16666   0.75001   0.00000  Uiso   1.00
N949   N     0.96056   0.13298   0.61362   0.00000  Uiso   1.00
N950   N     0.70753   0.18852   0.88957   0.00000  Uiso   1.00
O951   O     0.70625   0.10655   0.75000   0.00000  Uiso   1.00
O952   O     0.75332   0.04110   0.70932   0.00000  Uiso   1.00
O953   O     0.96042   0.22678   0.75000   0.00000  Uiso   1.00
O954   O     0.96039   0.10654   0.75001   0.00000  Uiso   1.00
O955   O     0.70628   0.22679   0.75000   0.00000  Uiso   1.00
O956   O     0.68519   0.16668   0.81492   0.00000  Uiso   1.00
O957   O     0.98148   0.16666   0.68509   0.00000  Uiso   1.00
O958   O     0.93933   0.16667   0.81492   0.00000  Uiso   1.00
O959   O     0.72733   0.16667   0.68508   0.00000  Uiso   1.00
O960   O     0.91396   0.29205   0.79101   0.00000  Uiso   1.00
C961   C     0.00024   0.42075   0.74952   0.00000  Uiso   1.00
C962   C     0.04340   0.35434   0.72862   0.00000  Uiso   1.00
C963   C     0.33265   0.62395   0.74999   0.00000  Uiso   1.00
C964   C     0.00057   0.37620   0.74859   0.00000  Uiso   1.00
C965   C     0.18265   0.47757   0.78125   0.00000  Uiso   1.00
C966   C     0.15071   0.52230   0.71864   0.00000  Uiso   1.00
C967   C     0.13302   0.47762   0.78127   0.00000  Uiso   1.00
C968   C     0.20036   0.52219   0.71856   0.00000  Uiso   1.00
C969   C     0.30625   0.50041   0.83628   0.00000  Uiso   1.00
C970   C     0.02708   0.49859   0.66381   0.00000  Uiso   1.00
C971   C     0.29184   0.50124   0.88585   0.00000  Uiso   1.00
C972   C     0.33307   0.57930   0.75037   0.00000  Uiso   1.00
C973   C     0.04181   0.49248   0.61477   0.00000  Uiso   1.00
C974   C     0.30800   0.51393   0.95793   0.00000  Uiso   1.00
C975   C     0.02874   0.46628   0.54550   0.00000  Uiso   1.00
C976   C     0.32460   0.51178   0.91114   0.00000  Uiso   1.00
C977   C     0.01036   0.47548   0.59114   0.00000  Uiso   1.00
C978   C     0.24338   0.49235   0.90804   0.00000  Uiso   1.00
C979   C     0.09043   0.50011   0.59228   0.00000  Uiso   1.00
C980   C     0.22619   0.49396   0.95512   0.00000  Uiso   1.00
C981   C     0.10997   0.48877   0.54730   0.00000  Uiso   1.00
C982   C     0.25925   0.50586   0.97983   0.00000  Uiso   1.00
C983   C     0.19491   0.50419   0.54854   0.00000  Uiso   1.00
C984   C     0.07789   0.47267   0.52368   0.00000  Uiso   1.00
C985   C     0.17677   0.48561   0.97813   0.00000  Uiso   1.00
C986   C     0.16032   0.49326   0.52512   0.00000  Uiso   1.00
C987   C     0.21182   0.62943   0.76670   0.00000  Uiso   1.00
C988   C     0.16570   0.60733   0.79229   0.00000  Uiso   1.00
C989   C     0.08934   0.38250   0.66363   0.00000  Uiso   1.00
C990   C     0.13445   0.40813   0.64313   0.00000  Uiso   1.00
C991   C     0.14345   0.46932   0.95593   0.00000  Uiso   1.00
C992   C     0.24336   0.51019   0.52620   0.00000  Uiso   1.00
C993   C     0.09515   0.46264   0.97852   0.00000  Uiso   1.00
C994   C     0.29064   0.35529   0.76817   0.00000  Uiso   1.00
C995   C     0.04268   0.64492   0.73044   0.00000  Uiso   1.00
C996   C     0.28924   0.64580   0.76813   0.00000  Uiso   1.00
Cu997  Cu    0.04689   0.50001   0.75000   0.00000  Uiso   1.00
Cu998  Cu    0.28645   0.49999   0.75000   0.00000  Uiso   1.00
H999   H     0.26852   0.51910   0.54532   0.00000  Uiso   1.00
H1000  H     0.07597   0.62816   0.71588   0.00000  Uiso   1.00
H1001  H     0.19428   0.45949   0.80622   0.00000  Uiso   1.00
H1002  H     0.13909   0.54039   0.69367   0.00000  Uiso   1.00
H1003  H     0.10723   0.45967   0.80626   0.00000  Uiso   1.00
H1004  H     0.22615   0.54011   0.69355   0.00000  Uiso   1.00
H1005  H     0.27504   0.49429   0.61910   0.00000  Uiso   1.00
H1006  H     0.27787   0.44896   0.59299   0.00000  Uiso   1.00
H1007  H     0.06322   0.50166   0.90168   0.00000  Uiso   1.00
H1008  H     0.04756   0.55173   0.89881   0.00000  Uiso   1.00
H1009  H     0.22485   0.61522   0.73291   0.00000  Uiso   1.00
H1010  H     0.07102   0.44964   0.96035   0.00000  Uiso   1.00
H1011  H     0.20234   0.66230   0.76259   0.00000  Uiso   1.00
H1012  H     0.15035   0.62247   0.82513   0.00000  Uiso   1.00
H1013  H     0.13833   0.60848   0.77249   0.00000  Uiso   1.00
H1014  H     0.17383   0.57463   0.79845   0.00000  Uiso   1.00
H1015  H     0.05710   0.40025   0.65976   0.00000  Uiso   1.00
H1016  H     0.09205   0.35314   0.64473   0.00000  Uiso   1.00
H1017  H     0.16754   0.39106   0.64549   0.00000  Uiso   1.00
H1018  H     0.13689   0.41477   0.60719   0.00000  Uiso   1.00
H1019  H     0.13260   0.43777   0.66121   0.00000  Uiso   1.00
H1020  H     0.11240   0.51519   0.61088   0.00000  Uiso   1.00
H1021  H     0.21925   0.48552   0.88752   0.00000  Uiso   1.00
H1022  H     0.33318   0.52285   0.97707   0.00000  Uiso   1.00
H1023  H     0.00472   0.45345   0.52709   0.00000  Uiso   1.00
H1024  H     0.18607   0.50740   0.58452   0.00000  Uiso   1.00
H1025  H     0.15373   0.46005   0.92128   0.00000  Uiso   1.00
H1026  H     0.25810   0.37222   0.78466   0.00000  Uiso   1.00
N1027  N     0.11736   0.50001   0.74999   0.00000  Uiso   1.00
N1028  N     0.21597   0.49999   0.75001   0.00000  Uiso   1.00
N1029  N     0.29390   0.46632   0.61362   0.00000  Uiso   1.00
N1030  N     0.04086   0.52185   0.88957   0.00000  Uiso   1.00
O1031  O     0.03958   0.43989   0.75000   0.00000  Uiso   1.00
O1032  O     0.08665   0.37443   0.70932   0.00000  Uiso   1.00
O1033  O     0.29375   0.56011   0.75000   0.00000  Uiso   1.00
O1034  O     0.29372   0.43988   0.75001   0.00000  Uiso   1.00
O1035  O     0.03961   0.56012   0.75000   0.00000  Uiso   1.00
O1036  O     0.01852   0.50001   0.81492   0.00000  Uiso   1.00
O1037  O     0.31481   0.49999   0.68509   0.00000  Uiso   1.00
O1038  O     0.27267   0.50000   0.81492   0.00000  Uiso   1.00
O1039  O     0.06067   0.50000   0.68508   0.00000  Uiso   1.00
O1040  O     0.24729   0.62538   0.79101   0.00000  Uiso   1.00
C1041  C     0.33357   0.42075   0.74952   0.00000  Uiso   1.00
C1042  C     0.37673   0.35434   0.72862   0.00000  Uiso   1.00
C1043  C     0.66598   0.62395   0.74999   0.00000  Uiso   1.00
C1044  C     0.33390   0.37620   0.74859   0.00000  Uiso   1.00
C1045  C     0.51598   0.47757   0.78125   0.00000  Uiso   1.00
C1046  C     0.48405   0.52230   0.71864   0.00000  Uiso   1.00
C1047  C     0.46635   0.47762   0.78127   0.00000  Uiso   1.00
C1048  C     0.53370   0.52219   0.71856   0.00000  Uiso   1.00
C1049  C     0.63958   0.50041   0.83628   0.00000  Uiso   1.00
C1050  C     0.36042   0.49859   0.66381   0.00000  Uiso   1.00
C1051  C     0.62517   0.50124   0.88585   0.00000  Uiso   1.00
C1052  C     0.66641   0.57930   0.75037   0.00000  Uiso   1.00
C1053  C     0.37514   0.49248   0.61477   0.00000  Uiso   1.00
C1054  C     0.64133   0.51393   0.95793   0.00000  Uiso   1.00
C1055  C     0.36207   0.46628   0.54550   0.00000  Uiso   1.00
C1056  C     0.65794   0.51178   0.91114   0.00000  Uiso   1.00
C1057  C     0.34369   0.47548   0.59114   0.00000  Uiso   1.00
C1058  C     0.57671   0.49235   0.90804   0.00000  Uiso   1.00
C1059  C     0.42376   0.50011   0.59228   0.00000  Uiso   1.00
C1060  C     0.55952   0.49396   0.95512   0.00000  Uiso   1.00
C1061  C     0.44330   0.48877   0.54730   0.00000  Uiso   1.00
C1062  C     0.59259   0.50586   0.97983   0.00000  Uiso   1.00
C1063  C     0.52824   0.50419   0.54854   0.00000  Uiso   1.00
C1064  C     0.41123   0.47267   0.52368   0.00000  Uiso   1.00
C1065  C     0.51010   0.48561   0.97813   0.00000  Uiso   1.00
C1066  C     0.49365   0.49326   0.52512   0.00000  Uiso   1.00
C1067  C     0.54515   0.62943   0.76670   0.00000  Uiso   1.00
C1068  C     0.49904   0.60733   0.79229   0.00000  Uiso   1.00
C1069  C     0.42268   0.38250   0.66363   0.00000  Uiso   1.00
C1070  C     0.46779   0.40813   0.64313   0.00000  Uiso   1.00
C1071  C     0.47678   0.46932   0.95593   0.00000  Uiso   1.00
C1072  C     0.57670   0.51019   0.52620   0.00000  Uiso   1.00
C1073  C     0.42849   0.46264   0.97852   0.00000  Uiso   1.00
C1074  C     0.62398   0.35529   0.76817   0.00000  Uiso   1.00
C1075  C     0.37602   0.64492   0.73044   0.00000  Uiso   1.00
C1076  C     0.62257   0.64580   0.76813   0.00000  Uiso   1.00
Cu1077 Cu    0.38022   0.50001   0.75000   0.00000  Uiso   1.00
Cu1078 Cu    0.61978   0.49999   0.75000   0.00000  Uiso   1.00
H1079  H     0.60185   0.51910   0.54532   0.00000  Uiso   1.00
H1080  H     0.40931   0.62816   0.71588   0.00000  Uiso   1.00
H1081  H     0.52761   0.45949   0.80622   0.00000  Uiso   1.00
H1082  H     0.47242   0.54039   0.69367   0.00000  Uiso   1.00
H1083  H     0.44056   0.45967   0.80626   0.00000  Uiso   1.00
H1084  H     0.55948   0.54011   0.69355   0.00000  Uiso   1.00
H1085  H     0.60838   0.49429   0.61910   0.00000  Uiso   1.00
H1086  H     0.61120   0.44896   0.59299   0.00000  Uiso   1.00
H1087  H     0.39655   0.50166   0.90168   0.00000  Uiso   1.00
H1088  H     0.38089   0.55173   0.89881   0.00000  Uiso   1.00
H1089  H     0.55819   0.61522   0.73291   0.00000  Uiso   1.00
H1090  H     0.40435   0.44964   0.96035   0.00000  Uiso   1.00
H1091  H     0.53568   0.66230   0.76259   0.00000  Uiso   1.00
H1092  H     0.48369   0.62247   0.82513   0.00000  Uiso   1.00
H1093  H     0.47166   0.60848   0.77249   0.00000  Uiso   1.00
H1094  H     0.50717   0.57463   0.79845   0.00000  Uiso   1.00
H1095  H     0.39043   0.40025   0.65976   0.00000  Uiso   1.00
H1096  H     0.42539   0.35314   0.64473   0.00000  Uiso   1.00
H1097  H     0.50087   0.39106   0.64549   0.00000  Uiso   1.00
H1098  H     0.47022   0.41477   0.60719   0.00000  Uiso   1.00
H1099  H     0.46594   0.43777   0.66121   0.00000  Uiso   1.00
H1100  H     0.44573   0.51519   0.61088   0.00000  Uiso   1.00
H1101  H     0.55259   0.48552   0.88752   0.00000  Uiso   1.00
H1102  H     0.66652   0.52285   0.97707   0.00000  Uiso   1.00
H1103  H     0.33806   0.45345   0.52709   0.00000  Uiso   1.00
H1104  H     0.51941   0.50740   0.58452   0.00000  Uiso   1.00
H1105  H     0.48706   0.46005   0.92128   0.00000  Uiso   1.00
H1106  H     0.59144   0.37222   0.78466   0.00000  Uiso   1.00
N1107  N     0.45069   0.50001   0.74999   0.00000  Uiso   1.00
N1108  N     0.54931   0.49999   0.75001   0.00000  Uiso   1.00
N1109  N     0.62723   0.46632   0.61362   0.00000  Uiso   1.00
N1110  N     0.37419   0.52185   0.88957   0.00000  Uiso   1.00
O1111  O     0.37291   0.43989   0.75000   0.00000  Uiso   1.00
O1112  O     0.41999   0.37443   0.70932   0.00000  Uiso   1.00
O1113  O     0.62709   0.56011   0.75000   0.00000  Uiso   1.00
O1114  O     0.62706   0.43988   0.75001   0.00000  Uiso   1.00
O1115  O     0.37294   0.56012   0.75000   0.00000  Uiso   1.00
O1116  O     0.35186   0.50001   0.81492   0.00000  Uiso   1.00
O1117  O     0.64814   0.49999   0.68509   0.00000  Uiso   1.00
O1118  O     0.60600   0.50000   0.81492   0.00000  Uiso   1.00
O1119  O     0.39400   0.50000   0.68508   0.00000  Uiso   1.00
O1120  O     0.58062   0.62538   0.79101   0.00000  Uiso   1.00
C1121  C     0.66691   0.42075   0.74952   0.00000  Uiso   1.00
C1122  C     0.71006   0.35434   0.72862   0.00000  Uiso   1.00
C1123  C     0.99932   0.62395   0.74999   0.00000  Uiso   1.00
C1124  C     0.66723   0.37620   0.74859   0.00000  Uiso   1.00
C1125  C     0.84931   0.47757   0.78125   0.00000  Uiso   1.00
C1126  C     0.81738   0.52230   0.71864   0.00000  Uiso   1.00
C1127  C     0.79968   0.47762   0.78127   0.00000  Uiso   1.00
C1128  C     0.86703   0.52219   0.71856   0.00000  Uiso   1.00
C1129  C     0.97292   0.50041   0.83628   0.00000  Uiso   1.00
C1130  C     0.69375   0.49859   0.66381   0.00000  Uiso   1.00
C1131  C     0.95850   0.50124   0.88585   0.00000  Uiso   1.00
C1132  C     0.99974   0.57930   0.75037   0.00000  Uiso   1.00
C1133  C     0.70848   0.49248   0.61477   0.00000  Uiso   1.00
C1134  C     0.97467   0.51393   0.95793   0.00000  Uiso   1.00
C1135  C     0.69540   0.46628   0.54550   0.00000  Uiso   1.00
C1136  C     0.99127   0.51178   0.91114   0.00000  Uiso   1.00
C1137  C     0.67703   0.47548   0.59114   0.00000  Uiso   1.00
C1138  C     0.91005   0.49235   0.90804   0.00000  Uiso   1.00
C1139  C     0.75710   0.50011   0.59228   0.00000  Uiso   1.00
C1140  C     0.89285   0.49396   0.95512   0.00000  Uiso   1.00
C1141  C     0.77664   0.48877   0.54730   0.00000  Uiso   1.00
C1142  C     0.92592   0.50586   0.97983   0.00000  Uiso   1.00
C1143  C     0.86157   0.50419   0.54854   0.00000  Uiso   1.00
C1144  C     0.74456   0.47267   0.52368   0.00000  Uiso   1.00
C1145  C     0.84344   0.48561   0.97813   0.00000  Uiso   1.00
C1146  C     0.82698   0.49326   0.52512   0.00000  Uiso   1.00
C1147  C     0.87849   0.62943   0.76670   0.00000  Uiso   1.00
C1148  C     0.83237   0.60733   0.79229   0.00000  Uiso   1.00
C1149  C     0.75601   0.38250   0.66363   0.00000  Uiso   1.00
C1150  C     0.80112   0.40813   0.64313   0.00000  Uiso   1.00
C1151  C     0.81011   0.46932   0.95593   0.00000  Uiso   1.00
C1152  C     0.91003   0.51019   0.52620   0.00000  Uiso   1.00
C1153  C     0.76182   0.46264   0.97852   0.00000  Uiso   1.00
C1154  C     0.95731   0.35529   0.76817   0.00000  Uiso   1.00
C1155  C     0.70935   0.64492   0.73044   0.00000  Uiso   1.00
C1156  C     0.95590   0.64580   0.76813   0.00000  Uiso   1.00
Cu1157 Cu    0.71355   0.50001   0.75000   0.00000  Uiso   1.00
Cu1158 Cu    0.95311   0.49999   0.75000   0.00000  Uiso   1.00
H1159  H     0.93519   0.51910   0.54532   0.00000  Uiso   1.00
H1160  H     0.74264   0.62816   0.71588   0.00000  Uiso   1.00
H1161  H     0.86094   0.45949   0.80622   0.00000  Uiso   1.00
H1162  H     0.80576   0.54039   0.69367   0.00000  Uiso   1.00
H1163  H     0.77389   0.45967   0.80626   0.00000  Uiso   1.00
H1164  H     0.89282   0.54011   0.69355   0.00000  Uiso   1.00
H1165  H     0.94171   0.49429   0.61910   0.00000  Uiso   1.00
H1166  H     0.94453   0.44896   0.59299   0.00000  Uiso   1.00
H1167  H     0.72989   0.50166   0.90168   0.00000  Uiso   1.00
H1168  H     0.71422   0.55173   0.89881   0.00000  Uiso   1.00
H1169  H     0.89152   0.61522   0.73291   0.00000  Uiso   1.00
H1170  H     0.73768   0.44964   0.96035   0.00000  Uiso   1.00
H1171  H     0.86901   0.66230   0.76259   0.00000  Uiso   1.00
H1172  H     0.81702   0.62247   0.82513   0.00000  Uiso   1.00
H1173  H     0.80499   0.60848   0.77249   0.00000  Uiso   1.00
H1174  H     0.84050   0.57463   0.79845   0.00000  Uiso   1.00
H1175  H     0.72377   0.40025   0.65976   0.00000  Uiso   1.00
H1176  H     0.75872   0.35314   0.64473   0.00000  Uiso   1.00
H1177  H     0.83420   0.39106   0.64549   0.00000  Uiso   1.00
H1178  H     0.80356   0.41477   0.60719   0.00000  Uiso   1.00
H1179  H     0.79927   0.43777   0.66121   0.00000  Uiso   1.00
H1180  H     0.77906   0.51519   0.61088   0.00000  Uiso   1.00
H1181  H     0.88592   0.48552   0.88752   0.00000  Uiso   1.00
H1182  H     0.99985   0.52285   0.97707   0.00000  Uiso   1.00
H1183  H     0.67139   0.45345   0.52709   0.00000  Uiso   1.00
H1184  H     0.85274   0.50740   0.58452   0.00000  Uiso   1.00
H1185  H     0.82040   0.46005   0.92128   0.00000  Uiso   1.00
H1186  H     0.92477   0.37222   0.78466   0.00000  Uiso   1.00
N1187  N     0.78403   0.50001   0.74999   0.00000  Uiso   1.00
N1188  N     0.88264   0.49999   0.75001   0.00000  Uiso   1.00
N1189  N     0.96056   0.46632   0.61362   0.00000  Uiso   1.00
N1190  N     0.70753   0.52185   0.88957   0.00000  Uiso   1.00
O1191  O     0.70625   0.43989   0.75000   0.00000  Uiso   1.00
O1192  O     0.75332   0.37443   0.70932   0.00000  Uiso   1.00
O1193  O     0.96042   0.56011   0.75000   0.00000  Uiso   1.00
O1194  O     0.96039   0.43988   0.75001   0.00000  Uiso   1.00
O1195  O     0.70628   0.56012   0.75000   0.00000  Uiso   1.00
O1196  O     0.68519   0.50001   0.81492   0.00000  Uiso   1.00
O1197  O     0.98148   0.49999   0.68509   0.00000  Uiso   1.00
O1198  O     0.93933   0.50000   0.81492   0.00000  Uiso   1.00
O1199  O     0.72733   0.50000   0.68508   0.00000  Uiso   1.00
O1200  O     0.91396   0.62538   0.79101   0.00000  Uiso   1.00
C1201  C     0.00024   0.75408   0.74952   0.00000  Uiso   1.00
C1202  C     0.04340   0.68767   0.72862   0.00000  Uiso   1.00
C1203  C     0.33265   0.95729   0.74999   0.00000  Uiso   1.00
C1204  C     0.00057   0.70953   0.74859   0.00000  Uiso   1.00
C1205  C     0.18265   0.81090   0.78125   0.00000  Uiso   1.00
C1206  C     0.15071   0.85564   0.71864   0.00000  Uiso   1.00
C1207  C     0.13302   0.81095   0.78127   0.00000  Uiso   1.00
C1208  C     0.20036   0.85552   0.71856   0.00000  Uiso   1.00
C1209  C     0.30625   0.83375   0.83628   0.00000  Uiso   1.00
C1210  C     0.02708   0.83192   0.66381   0.00000  Uiso   1.00
C1211  C     0.29184   0.83458   0.88585   0.00000  Uiso   1.00
C1212  C     0.33307   0.91264   0.75037   0.00000  Uiso   1.00
C1213  C     0.04181   0.82581   0.61477   0.00000  Uiso   1.00
C1214  C     0.30800   0.84727   0.95793   0.00000  Uiso   1.00
C1215  C     0.02874   0.79961   0.54550   0.00000  Uiso   1.00
C1216  C     0.32460   0.84511   0.91114   0.00000  Uiso   1.00
C1217  C     0.01036   0.80881   0.59114   0.00000  Uiso   1.00
C1218  C     0.24338   0.82568   0.90804   0.00000  Uiso   1.00
C1219  C     0.09043   0.83344   0.59228   0.00000  Uiso   1.00
C1220  C     0.22619   0.82730   0.95512   0.00000  Uiso   1.00
C1221  C     0.10997   0.82210   0.54730   0.00000  Uiso   1.00
C1222  C     0.25925   0.83919   0.97983   0.00000  Uiso   1.00
C1223  C     0.19491   0.83753   0.54854   0.00000  Uiso   1.00
C1224  C     0.07789   0.80600   0.52368   0.00000  Uiso   1.00
C1225  C     0.17677   0.81894   0.97813   0.00000  Uiso   1.00
C1226  C     0.16032   0.82659   0.52512   0.00000  Uiso   1.00
C1227  C     0.21182   0.96276   0.76670   0.00000  Uiso   1.00
C1228  C     0.16570   0.94066   0.79229   0.00000  Uiso   1.00
C1229  C     0.08934   0.71583   0.66363   0.00000  Uiso   1.00
C1230  C     0.13445   0.74147   0.64313   0.00000  Uiso   1.00
C1231  C     0.14345   0.80266   0.95593   0.00000  Uiso   1.00
C1232  C     0.24336   0.84352   0.52620   0.00000  Uiso   1.00
C1233  C     0.09515   0.79597   0.97852   0.00000  Uiso   1.00
C1234  C     0.29064   0.68863   0.76817   0.00000  Uiso   1.00
C1235  C     0.04268   0.97825   0.73044   0.00000  Uiso   1.00
C1236  C     0.28924   0.97913   0.76813   0.00000  Uiso   1.00
Cu1237 Cu    0.04689   0.83334   0.75000   0.00000  Uiso   1.00
Cu1238 Cu    0.28645   0.83333   0.75000   0.00000  Uiso   1.00
H1239  H     0.26852   0.85243   0.54532   0.00000  Uiso   1.00
H1240  H     0.07597   0.96150   0.71588   0.00000  Uiso   1.00
H1241  H     0.19428   0.79282   0.80622   0.00000  Uiso   1.00
H1242  H     0.13909   0.87372   0.69367   0.00000  Uiso   1.00
H1243  H     0.10723   0.79300   0.80626   0.00000  Uiso   1.00
H1244  H     0.22615   0.87344   0.69355   0.00000  Uiso   1.00
H1245  H     0.27504   0.82762   0.61910   0.00000  Uiso   1.00
H1246  H     0.27787   0.78229   0.59299   0.00000  Uiso   1.00
H1247  H     0.06322   0.83500   0.90168   0.00000  Uiso   1.00
H1248  H     0.04756   0.88506   0.89881   0.00000  Uiso   1.00
H1249  H     0.22485   0.94855   0.73291   0.00000  Uiso   1.00
H1250  H     0.07102   0.78298   0.96035   0.00000  Uiso   1.00
H1251  H     0.20234   0.99564   0.76259   0.00000  Uiso   1.00
H1252  H     0.15035   0.95580   0.82513   0.00000  Uiso   1.00
H1253  H     0.13833   0.94181   0.77249   0.00000  Uiso   1.00
H1254  H     0.17383   0.90796   0.79845   0.00000  Uiso   1.00
H1255  H     0.05710   0.73359   0.65976   0.00000  Uiso   1.00
H1256  H     0.09205   0.68647   0.64473   0.00000  Uiso   1.00
H1257  H     0.16754   0.72439   0.64549   0.00000  Uiso   1.00
H1258  H     0.13689   0.74811   0.60719   0.00000  Uiso   1.00
H1259  H     0.13260   0.77110   0.66121   0.00000  Uiso   1.00
H1260  H     0.11240   0.84853   0.61088   0.00000  Uiso   1.00
H1261  H     0.21925   0.81885   0.88752   0.00000  Uiso   1.00
H1262  H     0.33318   0.85618   0.97707   0.00000  Uiso   1.00
H1263  H     0.00472   0.78678   0.52709   0.00000  Uiso   1.00
H1264  H     0.18607   0.84073   0.58452   0.00000  Uiso   1.00
H1265  H     0.15373   0.79339   0.92128   0.00000  Uiso   1.00
H1266  H     0.25810   0.70555   0.78466   0.00000  Uiso   1.00
N1267  N     0.11736   0.83334   0.74999   0.00000  Uiso   1.00
N1268  N     0.21597   0.83332   0.75001   0.00000  Uiso   1.00
N1269  N     0.29390   0.79965   0.61362   0.00000  Uiso   1.00
N1270  N     0.04086   0.85518   0.88957   0.00000  Uiso   1.00
O1271  O     0.03958   0.77322   0.75000   0.00000  Uiso   1.00
O1272  O     0.08665   0.70776   0.70932   0.00000  Uiso   1.00
O1273  O     0.29375   0.89345   0.75000   0.00000  Uiso   1.00
O1274  O     0.29372   0.77321   0.75001   0.00000  Uiso   1.00
O1275  O     0.03961   0.89346   0.75000   0.00000  Uiso   1.00
O1276  O     0.01852   0.83334   0.81492   0.00000  Uiso   1.00
O1277  O     0.31481   0.83332   0.68509   0.00000  Uiso   1.00
O1278  O     0.27267   0.83333   0.81492   0.00000  Uiso   1.00
O1279  O     0.06067   0.83333   0.68508   0.00000  Uiso   1.00
O1280  O     0.24729   0.95872   0.79101   0.00000  Uiso   1.00
C1281  C     0.33357   0.75408   0.74952   0.00000  Uiso   1.00
C1282  C     0.37673   0.68767   0.72862   0.00000  Uiso   1.00
C1283  C     0.66598   0.95729   0.74999   0.00000  Uiso   1.00
C1284  C     0.33390   0.70953   0.74859   0.00000  Uiso   1.00
C1285  C     0.51598   0.81090   0.78125   0.00000  Uiso   1.00
C1286  C     0.48405   0.85564   0.71864   0.00000  Uiso   1.00
C1287  C     0.46635   0.81095   0.78127   0.00000  Uiso   1.00
C1288  C     0.53370   0.85552   0.71856   0.00000  Uiso   1.00
C1289  C     0.63958   0.83375   0.83628   0.00000  Uiso   1.00
C1290  C     0.36042   0.83192   0.66381   0.00000  Uiso   1.00
C1291  C     0.62517   0.83458   0.88585   0.00000  Uiso   1.00
C1292  C     0.66641   0.91264   0.75037   0.00000  Uiso   1.00
C1293  C     0.37514   0.82581   0.61477   0.00000  Uiso   1.00
C1294  C     0.64133   0.84727   0.95793   0.00000  Uiso   1.00
C1295  C     0.36207   0.79961   0.54550   0.00000  Uiso   1.00
C1296  C     0.65794   0.84511   0.91114   0.00000  Uiso   1.00
C1297  C     0.34369   0.80881   0.59114   0.00000  Uiso   1.00
C1298  C     0.57671   0.82568   0.90804   0.00000  Uiso   1.00
C1299  C     0.42376   0.83344   0.59228   0.00000  Uiso   1.00
C1300  C     0.55952   0.82730   0.95512   0.00000  Uiso   1.00
C1301  C     0.44330   0.82210   0.54730   0.00000  Uiso   1.00
C1302  C     0.59259   0.83919   0.97983   0.00000  Uiso   1.00
C1303  C     0.52824   0.83753   0.54854   0.00000  Uiso   1.00
C1304  C     0.41123   0.80600   0.52368   0.00000  Uiso   1.00
C1305  C     0.51010   0.81894   0.97813   0.00000  Uiso   1.00
C1306  C     0.49365   0.82659   0.52512   0.00000  Uiso   1.00
C1307  C     0.54515   0.96276   0.76670   0.00000  Uiso   1.00
C1308  C     0.49904   0.94066   0.79229   0.00000  Uiso   1.00
C1309  C     0.42268   0.71583   0.66363   0.00000  Uiso   1.00
C1310  C     0.46779   0.74147   0.64313   0.00000  Uiso   1.00
C1311  C     0.47678   0.80266   0.95593   0.00000  Uiso   1.00
C1312  C     0.57670   0.84352   0.52620   0.00000  Uiso   1.00
C1313  C     0.42849   0.79597   0.97852   0.00000  Uiso   1.00
C1314  C     0.62398   0.68863   0.76817   0.00000  Uiso   1.00
C1315  C     0.37602   0.97825   0.73044   0.00000  Uiso   1.00
C1316  C     0.62257   0.97913   0.76813   0.00000  Uiso   1.00
Cu1317 Cu    0.38022   0.83334   0.75000   0.00000  Uiso   1.00
Cu1318 Cu    0.61978   0.83333   0.75000   0.00000  Uiso   1.00
H1319  H     0.60185   0.85243   0.54532   0.00000  Uiso   1.00
H1320  H     0.40931   0.96150   0.71588   0.00000  Uiso   1.00
H1321  H     0.52761   0.79282   0.80622   0.00000  Uiso   1.00
H1322  H     0.47242   0.87372   0.69367   0.00000  Uiso   1.00
H1323  H     0.44056   0.79300   0.80626   0.00000  Uiso   1.00
H1324  H     0.55948   0.87344   0.69355   0.00000  Uiso   1.00
H1325  H     0.60838   0.82762   0.61910   0.00000  Uiso   1.00
H1326  H     0.61120   0.78229   0.59299   0.00000  Uiso   1.00
H1327  H     0.39655   0.83500   0.90168   0.00000  Uiso   1.00
H1328  H     0.38089   0.88506   0.89881   0.00000  Uiso   1.00
H1329  H     0.55819   0.94855   0.73291   0.00000  Uiso   1.00
H1330  H     0.40435   0.78298   0.96035   0.00000  Uiso   1.00
H1331  H     0.53568   0.99564   0.76259   0.00000  Uiso   1.00
H1332  H     0.48369   0.95580   0.82513   0.00000  Uiso   1.00
H1333  H     0.47166   0.94181   0.77249   0.00000  Uiso   1.00
H1334  H     0.50717   0.90796   0.79845   0.00000  Uiso   1.00
H1335  H     0.39043   0.73359   0.65976   0.00000  Uiso   1.00
H1336  H     0.42539   0.68647   0.64473   0.00000  Uiso   1.00
H1337  H     0.50087   0.72439   0.64549   0.00000  Uiso   1.00
H1338  H     0.47022   0.74811   0.60719   0.00000  Uiso   1.00
H1339  H     0.46594   0.77110   0.66121   0.00000  Uiso   1.00
H1340  H     0.44573   0.84853   0.61088   0.00000  Uiso   1.00
H1341  H     0.55259   0.81885   0.88752   0.00000  Uiso   1.00
H1342  H     0.66652   0.85618   0.97707   0.00000  Uiso   1.00
H1343  H     0.33806   0.78678   0.52709   0.00000  Uiso   1.00
H1344  H     0.51941   0.84073   0.58452   0.00000  Uiso   1.00
H1345  H     0.48706   0.79339   0.92128   0.00000  Uiso   1.00
H1346  H     0.59144   0.70555   0.78466   0.00000  Uiso   1.00
N1347  N     0.45069   0.83334   0.74999   0.00000  Uiso   1.00
N1348  N     0.54931   0.83332   0.75001   0.00000  Uiso   1.00
N1349  N     0.62723   0.79965   0.61362   0.00000  Uiso   1.00
N1350  N     0.37419   0.85518   0.88957   0.00000  Uiso   1.00
O1351  O     0.37291   0.77322   0.75000   0.00000  Uiso   1.00
O1352  O     0.41999   0.70776   0.70932   0.00000  Uiso   1.00
O1353  O     0.62709   0.89345   0.75000   0.00000  Uiso   1.00
O1354  O     0.62706   0.77321   0.75001   0.00000  Uiso   1.00
O1355  O     0.37294   0.89346   0.75000   0.00000  Uiso   1.00
O1356  O     0.35186   0.83334   0.81492   0.00000  Uiso   1.00
O1357  O     0.64814   0.83332   0.68509   0.00000  Uiso   1.00
O1358  O     0.60600   0.83333   0.81492   0.00000  Uiso   1.00
O1359  O     0.39400   0.83333   0.68508   0.00000  Uiso   1.00
O1360  O     0.58062   0.95872   0.79101   0.00000  Uiso   1.00
C1361  C     0.66691   0.75408   0.74952   0.00000  Uiso   1.00
C1362  C     0.71006   0.68767   0.72862   0.00000  Uiso   1.00
C1363  C     0.99932   0.95729   0.74999   0.00000  Uiso   1.00
C1364  C     0.66723   0.70953   0.74859   0.00000  Uiso   1.00
C1365  C     0.84931   0.81090   0.78125   0.00000  Uiso   1.00
C1366  C     0.81738   0.85564   0.71864   0.00000  Uiso   1.00
C1367  C     0.79968   0.81095   0.78127   0.00000  Uiso   1.00
C1368  C     0.86703   0.85552   0.71856   0.00000  Uiso   1.00
C1369  C     0.97292   0.83375   0.83628   0.00000  Uiso   1.00
C1370  C     0.69375   0.83192   0.66381   0.00000  Uiso   1.00
C1371  C     0.95850   0.83458   0.88585   0.00000  Uiso   1.00
C1372  C     0.99974   0.91264   0.75037   0.00000  Uiso   1.00
C1373  C     0.70848   0.82581   0.61477   0.00000  Uiso   1.00
C1374  C     0.97467   0.84727   0.95793   0.00000  Uiso   1.00
C1375  C     0.69540   0.79961   0.54550   0.00000  Uiso   1.00
C1376  C     0.99127   0.84511   0.91114   0.00000  Uiso   1.00
C1377  C     0.67703   0.80881   0.59114   0.00000  Uiso   1.00
C1378  C     0.91005   0.82568   0.90804   0.00000  Uiso   1.00
C1379  C     0.75710   0.83344   0.59228   0.00000  Uiso   1.00
C1380  C     0.89285   0.82730   0.95512   0.00000  Uiso   1.00
C1381  C     0.77664   0.82210   0.54730   0.00000  Uiso   1.00
C1382  C     0.92592   0.83919   0.97983   0.00000  Uiso   1.00
C1383  C     0.86157   0.83753   0.54854   0.00000  Uiso   1.00
C1384  C     0.74456   0.80600   0.52368   0.00000  Uiso   1.00
C1385  C     0.84344   0.81894   0.97813   0.00000  Uiso   1.00
C1386  C     0.82698   0.82659   0.52512   0.00000  Uiso   1.00
C1387  C     0.87849   0.96276   0.76670   0.00000  Uiso   1.00
C1388  C     0.83237   0.94066   0.79229   0.00000  Uiso   1.00
C1389  C     0.75601   0.71583   0.66363   0.00000  Uiso   1.00
C1390  C     0.80112   0.74147   0.64313   0.00000  Uiso   1.00
C1391  C     0.81011   0.80266   0.95593   0.00000  Uiso   1.00
C1392  C     0.91003   0.84352   0.52620   0.00000  Uiso   1.00
C1393  C     0.76182   0.79597   0.97852   0.00000  Uiso   1.00
C1394  C     0.95731   0.68863   0.76817   0.00000  Uiso   1.00
C1395  C     0.70935   0.97825   0.73044   0.00000  Uiso   1.00
C1396  C     0.95590   0.97913   0.76813   0.00000  Uiso   1.00
Cu1397 Cu    0.71355   0.83334   0.75000   0.00000  Uiso   1.00
Cu1398 Cu    0.95311   0.83333   0.75000   0.00000  Uiso   1.00
H1399  H     0.93519   0.85243   0.54532   0.00000  Uiso   1.00
H1400  H     0.74264   0.96150   0.71588   0.00000  Uiso   1.00
H1401  H     0.86094   0.79282   0.80622   0.00000  Uiso   1.00
H1402  H     0.80576   0.87372   0.69367   0.00000  Uiso   1.00
H1403  H     0.77389   0.79300   0.80626   0.00000  Uiso   1.00
H1404  H     0.89282   0.87344   0.69355   0.00000  Uiso   1.00
H1405  H     0.94171   0.82762   0.61910   0.00000  Uiso   1.00
H1406  H     0.94453   0.78229   0.59299   0.00000  Uiso   1.00
H1407  H     0.72989   0.83500   0.90168   0.00000  Uiso   1.00
H1408  H     0.71422   0.88506   0.89881   0.00000  Uiso   1.00
H1409  H     0.89152   0.94855   0.73291   0.00000  Uiso   1.00
H1410  H     0.73768   0.78298   0.96035   0.00000  Uiso   1.00
H1411  H     0.86901   0.99564   0.76259   0.00000  Uiso   1.00
H1412  H     0.81702   0.95580   0.82513   0.00000  Uiso   1.00
H1413  H     0.80499   0.94181   0.77249   0.00000  Uiso   1.00
H1414  H     0.84050   0.90796   0.79845   0.00000  Uiso   1.00
H1415  H     0.72377   0.73359   0.65976   0.00000  Uiso   1.00
H1416  H     0.75872   0.68647   0.64473   0.00000  Uiso   1.00
H1417  H     0.83420   0.72439   0.64549   0.00000  Uiso   1.00
H1418  H     0.80356   0.74811   0.60719   0.00000  Uiso   1.00
H1419  H     0.79927   0.77110   0.66121   0.00000  Uiso   1.00
H1420  H     0.77906   0.84853   0.61088   0.00000  Uiso   1.00
H1421  H     0.88592   0.81885   0.88752   0.00000  Uiso   1.00
H1422  H     0.99985   0.85618   0.97707   0.00000  Uiso   1.00
H1423  H     0.67139   0.78678   0.52709   0.00000  Uiso   1.00
H1424  H     0.85274   0.84073   0.58452   0.00000  Uiso   1.00
H1425  H     0.82040   0.79339   0.92128   0.00000  Uiso   1.00
H1426  H     0.92477   0.70555   0.78466   0.00000  Uiso   1.00
N1427  N     0.78403   0.83334   0.74999   0.00000  Uiso   1.00
N1428  N     0.88264   0.83332   0.75001   0.00000  Uiso   1.00
N1429  N     0.96056   0.79965   0.61362   0.00000  Uiso   1.00
N1430  N     0.70753   0.85518   0.88957   0.00000  Uiso   1.00
O1431  O     0.70625   0.77322   0.75000   0.00000  Uiso   1.00
O1432  O     0.75332   0.70776   0.70932   0.00000  Uiso   1.00
O1433  O     0.96042   0.89345   0.75000   0.00000  Uiso   1.00
O1434  O     0.96039   0.77321   0.75001   0.00000  Uiso   1.00
O1435  O     0.70628   0.89346   0.75000   0.00000  Uiso   1.00
O1436  O     0.68519   0.83334   0.81492   0.00000  Uiso   1.00
O1437  O     0.98148   0.83332   0.68509   0.00000  Uiso   1.00
O1438  O     0.93933   0.83333   0.81492   0.00000  Uiso   1.00
O1439  O     0.72733   0.83333   0.68508   0.00000  Uiso   1.00
O1440  O     0.91396   0.95872   0.79101   0.00000  Uiso   1.00
loop_
_geom_bond_atom_site_label_1
_geom_bond_atom_site_label_2
_geom_bond_distance
_geom_bond_site_symmetry_2
_ccdc_geom_bond_type
C1     O71     1.288   .     A
C1     C4      1.446   .     S
C1     O234    1.289   1_455 S
C2     O72     1.383   .     S
C2     C4      1.407   .     A
C2     C515    1.388   1_545 S
C3     C12     1.448   .     S
C3     C36     1.409   .     A
C3     C115    1.401   .     S
C4     C194    1.397   1_455 S
C5     N68     1.367   .     A
C5     C7      1.415   .     A
C5     H41     1.082   .     S
C6     C8      1.415   .     A
C6     N67     1.367   .     A
C6     H42     1.082   .     S
C7     H43     1.082   .     S
C7     N67     1.366   .     A
C8     N68     1.366   .     A
C8     H44     1.082   .     S
C9     C11     1.475   .     S
C9     O78     1.297   .     A
C9     O156    1.294   .     S
C10    O79     1.297   .     A
C10    C13     1.474   .     S
C10    O237    1.294   1_455 S
C11    C18     1.401   .     A
C11    C16     1.411   .     A
C12    O73     1.288   .     A
C12    O155    1.291   .     S
C13    C19     1.399   .     A
C13    C17     1.413   .     A
C14    H62     1.085   .     S
C14    C16     1.397   .     A
C14    C22     1.401   .     A
C15    C17     1.401   .     A
C15    C24     1.402   .     A
C15    H63     1.084   .     S
C16    N150    1.433   .     S
C17    N229    1.438   1_455 S
C18    C20     1.406   .     A
C18    H61     1.075   .     S
C19    C21     1.404   .     A
C19    H60     1.076   .     S
C20    C25     1.427   .     A
C20    C22     1.416   .     A
C21    C26     1.426   .     A
C21    C24     1.415   .     A
C22    C752    1.390   .     S
C23    C26     1.416   .     A
C23    H64     1.077   .     S
C23    C32     1.386   .     A
C24    C753    1.391   1_554 S
C25    C31     1.416   .     A
C25    C746    1.425   .     S
C26    C745    1.425   1_554 S
C27    H51     1.113   .     S
C27    O80     1.413   .     S
C27    C28     1.522   .     S
C27    H49     1.114   .     S
C28    H54     1.110   .     S
C28    H53     1.111   .     S
C28    H52     1.111   .     S
C29    O72     1.412   .     S
C29    C30     1.522   .     S
C29    H56     1.114   .     S
C29    H55     1.115   .     S
C30    H57     1.111   .     S
C30    H59     1.111   .     S
C30    H58     1.111   .     S
C31    C33     1.387   .     A
C31    H65     1.077   .     S
C32    H39     1.083   .     S
C32    C742    1.390   1_554 S
C33    H50     1.084   .     S
C33    C744    1.391   .     S
C34    H66     1.084   .     S
C34    C84     1.397   .     S
C34    C516    1.390   1_545 S
C35    H40     1.084   .     S
C35    C163    1.401   1_455 S
C35    C242    1.388   .     S
C36    O80     1.386   .     S
C36    C274    1.390   .     S
Cu37   O79     1.936   .     S
Cu37   N67     2.010   .     S
Cu37   O75     1.961   .     S
Cu37   O76     1.952   .     S
Cu37   O71     1.962   .     S
Cu37   Cu198   2.674   1_455 S
Cu38   O78     1.936   .     S
Cu38   N68     2.010   .     S
Cu38   O74     1.961   .     S
Cu38   O77     1.952   .     S
Cu38   O73     1.962   .     S
Cu38   Cu117   2.674   .     S
H45    N69     1.045   .     S
H46    N69     1.046   .     S
H47    N70     1.045   .     S
H48    N70     1.046   .     S
N69    C97     1.438   .     S
N70    C176    1.433   1_455 S
O74    C81     1.289   .     S
O75    C172    1.291   1_455 S
O76    C169    1.294   1_455 S
O77    C90     1.294   .     S
C81    O151    1.288   .     A
C81    C84     1.446   .     S
C82    O152    1.383   .     S
C82    C84     1.407   .     A
C82    C595    1.388   1_545 S
C83    C92     1.448   .     S
C83    C116    1.409   .     A
C83    C195    1.401   .     S
C85    N148    1.367   .     A
C85    C87     1.415   .     A
C85    H121    1.082   .     S
C86    C88     1.415   .     A
C86    N147    1.367   .     A
C86    H122    1.082   .     S
C87    H123    1.082   .     S
C87    N147    1.366   .     A
C88    N148    1.366   .     A
C88    H124    1.082   .     S
C89    C91     1.475   .     S
C89    O158    1.297   .     A
C89    O236    1.294   .     S
C90    O159    1.297   .     A
C90    C93     1.474   .     S
C91    C98     1.401   .     A
C91    C96     1.411   .     A
C92    O153    1.288   .     A
C92    O235    1.291   .     S
C93    C99     1.399   .     A
C93    C97     1.413   .     A
C94    H142    1.085   .     S
C94    C96     1.397   .     A
C94    C102    1.401   .     A
C95    C97     1.401   .     A
C95    C104    1.402   .     A
C95    H143    1.084   .     S
C96    N230    1.433   .     S
C98    C100    1.406   .     A
C98    H141    1.075   .     S
C99    C101    1.404   .     A
C99    H140    1.076   .     S
C100   C105    1.427   .     A
C100   C102    1.416   .     A
C101   C106    1.426   .     A
C101   C104    1.415   .     A
C102   C832    1.390   .     S
C103   C106    1.416   .     A
C103   H144    1.077   .     S
C103   C112    1.386   .     A
C104   C833    1.391   1_554 S
C105   C111    1.416   .     A
C105   C826    1.425   .     S
C106   C825    1.425   1_554 S
C107   H131    1.113   .     S
C107   O160    1.413   .     S
C107   C108    1.522   .     S
C107   H129    1.114   .     S
C108   H134    1.110   .     S
C108   H133    1.111   .     S
C108   H132    1.111   .     S
C109   O152    1.412   .     S
C109   C110    1.522   .     S
C109   H136    1.114   .     S
C109   H135    1.115   .     S
C110   H137    1.111   .     S
C110   H139    1.111   .     S
C110   H138    1.111   .     S
C111   C113    1.387   .     A
C111   H145    1.077   .     S
C112   H119    1.083   .     S
C112   C822    1.390   1_554 S
C113   H130    1.084   .     S
C113   C824    1.391   .     S
C114   H146    1.084   .     S
C114   C164    1.397   .     S
C114   C596    1.390   1_545 S
C115   H120    1.084   .     S
C115   C322    1.388   .     S
C116   O160    1.386   .     S
C116   C354    1.390   .     S
Cu117  O159    1.936   .     S
Cu117  N147    2.010   .     S
Cu117  O155    1.961   .     S
Cu117  O156    1.952   .     S
Cu117  O151    1.962   .     S
Cu118  O158    1.936   .     S
Cu118  N148    2.010   .     S
Cu118  O154    1.961   .     S
Cu118  O157    1.952   .     S
Cu118  O153    1.962   .     S
Cu118  Cu197   2.674   .     S
H125   N149    1.045   .     S
H126   N149    1.046   .     S
H127   N150    1.045   .     S
H128   N150    1.046   .     S
N149   C177    1.438   .     S
O154   C161    1.289   .     S
O157   C170    1.294   .     S
C161   O231    1.288   .     A
C161   C164    1.446   .     S
C162   O232    1.383   .     S
C162   C164    1.407   .     A
C162   C675    1.388   1_545 S
C163   C172    1.448   .     S
C163   C196    1.409   .     A
C163   C35     1.401   1_655 S
C165   N228    1.367   .     A
C165   C167    1.415   .     A
C165   H201    1.082   .     S
C166   C168    1.415   .     A
C166   N227    1.367   .     A
C166   H202    1.082   .     S
C167   H203    1.082   .     S
C167   N227    1.366   .     A
C168   N228    1.366   .     A
C168   H204    1.082   .     S
C169   C171    1.475   .     S
C169   O238    1.297   .     A
C169   O76     1.294   1_655 S
C170   O239    1.297   .     A
C170   C173    1.474   .     S
C171   C178    1.401   .     A
C171   C176    1.411   .     A
C172   O233    1.288   .     A
C172   O75     1.291   1_655 S
C173   C179    1.399   .     A
C173   C177    1.413   .     A
C174   H222    1.085   .     S
C174   C176    1.397   .     A
C174   C182    1.401   .     A
C175   C177    1.401   .     A
C175   C184    1.402   .     A
C175   H223    1.084   .     S
C176   N70     1.433   1_655 S
C178   C180    1.406   .     A
C178   H221    1.075   .     S
C179   C181    1.404   .     A
C179   H220    1.076   .     S
C180   C185    1.427   .     A
C180   C182    1.416   .     A
C181   C186    1.426   .     A
C181   C184    1.415   .     A
C182   C912    1.390   .     S
C183   C186    1.416   .     A
C183   H224    1.077   .     S
C183   C192    1.386   .     A
C184   C913    1.391   1_554 S
C185   C191    1.416   .     A
C185   C906    1.425   .     S
C186   C905    1.425   1_554 S
C187   H211    1.113   .     S
C187   O240    1.413   .     S
C187   C188    1.522   .     S
C187   H209    1.114   .     S
C188   H214    1.110   .     S
C188   H213    1.111   .     S
C188   H212    1.111   .     S
C189   O232    1.412   .     S
C189   C190    1.522   .     S
C189   H216    1.114   .     S
C189   H215    1.115   .     S
C190   H217    1.111   .     S
C190   H219    1.111   .     S
C190   H218    1.111   .     S
C191   C193    1.387   .     A
C191   H225    1.077   .     S
C192   H199    1.083   .     S
C192   C902    1.390   1_554 S
C193   H210    1.084   .     S
C193   C904    1.391   .     S
C194   H226    1.084   .     S
C194   C4      1.397   1_655 S
C194   C676    1.390   1_545 S
C195   H200    1.084   .     S
C195   C402    1.388   .     S
C196   O240    1.386   .     S
C196   C434    1.390   .     S
Cu197  O239    1.936   .     S
Cu197  N227    2.010   .     S
Cu197  O235    1.961   .     S
Cu197  O236    1.952   .     S
Cu197  O231    1.962   .     S
Cu198  O238    1.936   .     S
Cu198  N228    2.010   .     S
Cu198  O234    1.961   .     S
Cu198  O237    1.952   .     S
Cu198  O233    1.962   .     S
Cu198  Cu37    2.674   1_655 S
H205   N229    1.045   .     S
H206   N229    1.046   .     S
H207   N230    1.045   .     S
H208   N230    1.046   .     S
N229   C17     1.438   1_655 S
O234   C1      1.289   1_655 S
O237   C10     1.294   1_655 S
C241   O311    1.288   .     A
C241   C244    1.446   .     S
C241   O474    1.289   1_455 S
C242   O312    1.383   .     S
C242   C244    1.407   .     A
C243   C252    1.448   .     S
C243   C276    1.409   .     A
C243   C355    1.401   .     S
C244   C434    1.397   1_455 S
C245   N308    1.367   .     A
C245   C247    1.415   .     A
C245   H281    1.082   .     S
C246   C248    1.415   .     A
C246   N307    1.367   .     A
C246   H282    1.082   .     S
C247   H283    1.082   .     S
C247   N307    1.366   .     A
C248   N308    1.366   .     A
C248   H284    1.082   .     S
C249   C251    1.475   .     S
C249   O318    1.297   .     A
C249   O396    1.294   .     S
C250   O319    1.297   .     A
C250   C253    1.474   .     S
C250   O477    1.294   1_455 S
C251   C258    1.401   .     A
C251   C256    1.411   .     A
C252   O313    1.288   .     A
C252   O395    1.291   .     S
C253   C259    1.399   .     A
C253   C257    1.413   .     A
C254   H302    1.085   .     S
C254   C256    1.397   .     A
C254   C262    1.401   .     A
C255   C257    1.401   .     A
C255   C264    1.402   .     A
C255   H303    1.084   .     S
C256   N390    1.433   .     S
C257   N469    1.438   1_455 S
C258   C260    1.406   .     A
C258   H301    1.075   .     S
C259   C261    1.404   .     A
C259   H300    1.076   .     S
C260   C265    1.427   .     A
C260   C262    1.416   .     A
C261   C266    1.426   .     A
C261   C264    1.415   .     A
C262   C992    1.390   .     S
C263   C266    1.416   .     A
C263   H304    1.077   .     S
C263   C272    1.386   .     A
C264   C993    1.391   1_554 S
C265   C271    1.416   .     A
C265   C986    1.425   .     S
C266   C985    1.425   1_554 S
C267   H291    1.113   .     S
C267   O320    1.413   .     S
C267   C268    1.522   .     S
C267   H289    1.114   .     S
C268   H294    1.110   .     S
C268   H293    1.111   .     S
C268   H292    1.111   .     S
C269   O312    1.412   .     S
C269   C270    1.522   .     S
C269   H296    1.114   .     S
C269   H295    1.115   .     S
C270   H297    1.111   .     S
C270   H299    1.111   .     S
C270   H298    1.111   .     S
C271   C273    1.387   .     A
C271   H305    1.077   .     S
C272   H279    1.083   .     S
C272   C982    1.390   1_554 S
C273   H290    1.084   .     S
C273   C984    1.391   .     S
C274   H306    1.084   .     S
C274   C324    1.397   .     S
C275   H280    1.084   .     S
C275   C403    1.401   1_455 S
C275   C482    1.388   .     S
C276   O320    1.386   .     S
C276   C514    1.390   .     S
Cu277  O319    1.936   .     S
Cu277  N307    2.010   .     S
Cu277  O315    1.961   .     S
Cu277  O316    1.952   .     S
Cu277  O311    1.962   .     S
Cu277  Cu438   2.674   1_455 S
Cu278  O318    1.936   .     S
Cu278  N308    2.010   .     S
Cu278  O314    1.961   .     S
Cu278  O317    1.952   .     S
Cu278  O313    1.962   .     S
Cu278  Cu357   2.674   .     S
H285   N309    1.045   .     S
H286   N309    1.046   .     S
H287   N310    1.045   .     S
H288   N310    1.046   .     S
N309   C337    1.438   .     S
N310   C416    1.433   1_455 S
O314   C321    1.289   .     S
O315   C412    1.291   1_455 S
O316   C409    1.294   1_455 S
O317   C330    1.294   .     S
C321   O391    1.288   .     A
C321   C324    1.446   .     S
C322   O392    1.383   .     S
C322   C324    1.407   .     A
C323   C332    1.448   .     S
C323   C356    1.409   .     A
C323   C435    1.401   .     S
C325   N388    1.367   .     A
C325   C327    1.415   .     A
C325   H361    1.082   .     S
C326   C328    1.415   .     A
C326   N387    1.367   .     A
C326   H362    1.082   .     S
C327   H363    1.082   .     S
C327   N387    1.366   .     A
C328   N388    1.366   .     A
C328   H364    1.082   .     S
C329   C331    1.475   .     S
C329   O398    1.297   .     A
C329   O476    1.294   .     S
C330   O399    1.297   .     A
C330   C333    1.474   .     S
C331   C338    1.401   .     A
C331   C336    1.411   .     A
C332   O393    1.288   .     A
C332   O475    1.291   .     S
C333   C339    1.399   .     A
C333   C337    1.413   .     A
C334   H382    1.085   .     S
C334   C336    1.397   .     A
C334   C342    1.401   .     A
C335   C337    1.401   .     A
C335   C344    1.402   .     A
C335   H383    1.084   .     S
C336   N470    1.433   .     S
C338   C340    1.406   .     A
C338   H381    1.075   .     S
C339   C341    1.404   .     A
C339   H380    1.076   .     S
C340   C345    1.427   .     A
C340   C342    1.416   .     A
C341   C346    1.426   .     A
C341   C344    1.415   .     A
C342   C1072   1.390   .     S
C343   C346    1.416   .     A
C343   H384    1.077   .     S
C343   C352    1.386   .     A
C344   C1073   1.391   1_554 S
C345   C351    1.416   .     A
C345   C1066   1.425   .     S
C346   C1065   1.425   1_554 S
C347   H371    1.113   .     S
C347   O400    1.413   .     S
C347   C348    1.522   .     S
C347   H369    1.114   .     S
C348   H374    1.110   .     S
C348   H373    1.111   .     S
C348   H372    1.111   .     S
C349   O392    1.412   .     S
C349   C350    1.522   .     S
C349   H376    1.114   .     S
C349   H375    1.115   .     S
C350   H377    1.111   .     S
C350   H379    1.111   .     S
C350   H378    1.111   .     S
C351   C353    1.387   .     A
C351   H385    1.077   .     S
C352   H359    1.083   .     S
C352   C1062   1.390   1_554 S
C353   H370    1.084   .     S
C353   C1064   1.391   .     S
C354   H386    1.084   .     S
C354   C404    1.397   .     S
C355   H360    1.084   .     S
C355   C562    1.388   .     S
C356   O400    1.386   .     S
C356   C594    1.390   .     S
Cu357  O399    1.936   .     S
Cu357  N387    2.010   .     S
Cu357  O395    1.961   .     S
Cu357  O396    1.952   .     S
Cu357  O391    1.962   .     S
Cu358  O398    1.936   .     S
Cu358  N388    2.010   .     S
Cu358  O394    1.961   .     S
Cu358  O397    1.952   .     S
Cu358  O393    1.962   .     S
Cu358  Cu437   2.674   .     S
H365   N389    1.045   .     S
H366   N389    1.046   .     S
H367   N390    1.045   .     S
H368   N390    1.046   .     S
N389   C417    1.438   .     S
O394   C401    1.289   .     S
O397   C410    1.294   .     S
C401   O471    1.288   .     A
C401   C404    1.446   .     S
C402   O472    1.383   .     S
C402   C404    1.407   .     A
C403   C412    1.448   .     S
C403   C436    1.409   .     A
C403   C275    1.401   1_655 S
C405   N468    1.367   .     A
C405   C407    1.415   .     A
C405   H441    1.082   .     S
C406   C408    1.415   .     A
C406   N467    1.367   .     A
C406   H442    1.082   .     S
C407   H443    1.082   .     S
C407   N467    1.366   .     A
C408   N468    1.366   .     A
C408   H444    1.082   .     S
C409   C411    1.475   .     S
C409   O478    1.297   .     A
C409   O316    1.294   1_655 S
C410   O479    1.297   .     A
C410   C413    1.474   .     S
C411   C418    1.401   .     A
C411   C416    1.411   .     A
C412   O473    1.288   .     A
C412   O315    1.291   1_655 S
C413   C419    1.399   .     A
C413   C417    1.413   .     A
C414   H462    1.085   .     S
C414   C416    1.397   .     A
C414   C422    1.401   .     A
C415   C417    1.401   .     A
C415   C424    1.402   .     A
C415   H463    1.084   .     S
C416   N310    1.433   1_655 S
C418   C420    1.406   .     A
C418   H461    1.075   .     S
C419   C421    1.404   .     A
C419   H460    1.076   .     S
C420   C425    1.427   .     A
C420   C422    1.416   .     A
C421   C426    1.426   .     A
C421   C424    1.415   .     A
C422   C1152   1.390   .     S
C423   C426    1.416   .     A
C423   H464    1.077   .     S
C423   C432    1.386   .     A
C424   C1153   1.391   1_554 S
C425   C431    1.416   .     A
C425   C1146   1.425   .     S
C426   C1145   1.425   1_554 S
C427   H451    1.113   .     S
C427   O480    1.413   .     S
C427   C428    1.522   .     S
C427   H449    1.114   .     S
C428   H454    1.110   .     S
C428   H453    1.111   .     S
C428   H452    1.111   .     S
C429   O472    1.412   .     S
C429   C430    1.522   .     S
C429   H456    1.114   .     S
C429   H455    1.115   .     S
C430   H457    1.111   .     S
C430   H459    1.111   .     S
C430   H458    1.111   .     S
C431   C433    1.387   .     A
C431   H465    1.077   .     S
C432   H439    1.083   .     S
C432   C1142   1.390   1_554 S
C433   H450    1.084   .     S
C433   C1144   1.391   .     S
C434   H466    1.084   .     S
C434   C244    1.397   1_655 S
C435   H440    1.084   .     S
C435   C642    1.388   .     S
C436   O480    1.386   .     S
C436   C674    1.390   .     S
Cu437  O479    1.936   .     S
Cu437  N467    2.010   .     S
Cu437  O475    1.961   .     S
Cu437  O476    1.952   .     S
Cu437  O471    1.962   .     S
Cu438  O478    1.936   .     S
Cu438  N468    2.010   .     S
Cu438  O474    1.961   .     S
Cu438  O477    1.952   .     S
Cu438  O473    1.962   .     S
Cu438  Cu277   2.674   1_655 S
H445   N469    1.045   .     S
H446   N469    1.046   .     S
H447   N470    1.045   .     S
H448   N470    1.046   .     S
N469   C257    1.438   1_655 S
O474   C241    1.289   1_655 S
O477   C250    1.294   1_655 S
C481   O551    1.288   .     A
C481   C484    1.446   .     S
C481   O714    1.289   1_455 S
C482   O552    1.383   .     S
C482   C484    1.407   .     A
C483   C492    1.448   .     S
C483   C516    1.409   .     A
C483   C595    1.401   .     S
C484   C674    1.397   1_455 S
C485   N548    1.367   .     A
C485   C487    1.415   .     A
C485   H521    1.082   .     S
C486   C488    1.415   .     A
C486   N547    1.367   .     A
C486   H522    1.082   .     S
C487   H523    1.082   .     S
C487   N547    1.366   .     A
C488   N548    1.366   .     A
C488   H524    1.082   .     S
C489   C491    1.475   .     S
C489   O558    1.297   .     A
C489   O636    1.294   .     S
C490   O559    1.297   .     A
C490   C493    1.474   .     S
C490   O717    1.294   1_455 S
C491   C498    1.401   .     A
C491   C496    1.411   .     A
C492   O553    1.288   .     A
C492   O635    1.291   .     S
C493   C499    1.399   .     A
C493   C497    1.413   .     A
C494   H542    1.085   .     S
C494   C496    1.397   .     A
C494   C502    1.401   .     A
C495   C497    1.401   .     A
C495   C504    1.402   .     A
C495   H543    1.084   .     S
C496   N630    1.433   .     S
C497   N709    1.438   1_455 S
C498   C500    1.406   .     A
C498   H541    1.075   .     S
C499   C501    1.404   .     A
C499   H540    1.076   .     S
C500   C505    1.427   .     A
C500   C502    1.416   .     A
C501   C506    1.426   .     A
C501   C504    1.415   .     A
C502   C1232   1.390   .     S
C503   C506    1.416   .     A
C503   H544    1.077   .     S
C503   C512    1.386   .     A
C504   C1233   1.391   1_554 S
C505   C511    1.416   .     A
C505   C1226   1.425   .     S
C506   C1225   1.425   1_554 S
C507   H531    1.113   .     S
C507   O560    1.413   .     S
C507   C508    1.522   .     S
C507   H529    1.114   .     S
C508   H534    1.110   .     S
C508   H533    1.111   .     S
C508   H532    1.111   .     S
C509   O552    1.412   .     S
C509   C510    1.522   .     S
C509   H536    1.114   .     S
C509   H535    1.115   .     S
C510   H537    1.111   .     S
C510   H539    1.111   .     S
C510   H538    1.111   .     S
C511   C513    1.387   .     A
C511   H545    1.077   .     S
C512   H519    1.083   .     S
C512   C1222   1.390   1_554 S
C513   H530    1.084   .     S
C513   C1224   1.391   .     S
C514   H546    1.084   .     S
C514   C564    1.397   .     S
C515   H520    1.084   .     S
C515   C643    1.401   1_455 S
C515   C2      1.388   1_565 S
C516   O560    1.386   .     S
C516   C34     1.390   1_565 S
Cu517  O559    1.936   .     S
Cu517  N547    2.010   .     S
Cu517  O555    1.961   .     S
Cu517  O556    1.952   .     S
Cu517  O551    1.962   .     S
Cu517  Cu678   2.674   1_455 S
Cu518  O558    1.936   .     S
Cu518  N548    2.010   .     S
Cu518  O554    1.961   .     S
Cu518  O557    1.952   .     S
Cu518  O553    1.962   .     S
Cu518  Cu597   2.674   .     S
H525   N549    1.045   .     S
H526   N549    1.046   .     S
H527   N550    1.045   .     S
H528   N550    1.046   .     S
N549   C577    1.438   .     S
N550   C656    1.433   1_455 S
O554   C561    1.289   .     S
O555   C652    1.291   1_455 S
O556   C649    1.294   1_455 S
O557   C570    1.294   .     S
C561   O631    1.288   .     A
C561   C564    1.446   .     S
C562   O632    1.383   .     S
C562   C564    1.407   .     A
C563   C572    1.448   .     S
C563   C596    1.409   .     A
C563   C675    1.401   .     S
C565   N628    1.367   .     A
C565   C567    1.415   .     A
C565   H601    1.082   .     S
C566   C568    1.415   .     A
C566   N627    1.367   .     A
C566   H602    1.082   .     S
C567   H603    1.082   .     S
C567   N627    1.366   .     A
C568   N628    1.366   .     A
C568   H604    1.082   .     S
C569   C571    1.475   .     S
C569   O638    1.297   .     A
C569   O716    1.294   .     S
C570   O639    1.297   .     A
C570   C573    1.474   .     S
C571   C578    1.401   .     A
C571   C576    1.411   .     A
C572   O633    1.288   .     A
C572   O715    1.291   .     S
C573   C579    1.399   .     A
C573   C577    1.413   .     A
C574   H622    1.085   .     S
C574   C576    1.397   .     A
C574   C582    1.401   .     A
C575   C577    1.401   .     A
C575   C584    1.402   .     A
C575   H623    1.084   .     S
C576   N710    1.433   .     S
C578   C580    1.406   .     A
C578   H621    1.075   .     S
C579   C581    1.404   .     A
C579   H620    1.076   .     S
C580   C585    1.427   .     A
C580   C582    1.416   .     A
C581   C586    1.426   .     A
C581   C584    1.415   .     A
C582   C1312   1.390   .     S
C583   C586    1.416   .     A
C583   H624    1.077   .     S
C583   C592    1.386   .     A
C584   C1313   1.391   1_554 S
C585   C591    1.416   .     A
C585   C1306   1.425   .     S
C586   C1305   1.425   1_554 S
C587   H611    1.113   .     S
C587   O640    1.413   .     S
C587   C588    1.522   .     S
C587   H609    1.114   .     S
C588   H614    1.110   .     S
C588   H613    1.111   .     S
C588   H612    1.111   .     S
C589   O632    1.412   .     S
C589   C590    1.522   .     S
C589   H616    1.114   .     S
C589   H615    1.115   .     S
C590   H617    1.111   .     S
C590   H619    1.111   .     S
C590   H618    1.111   .     S
C591   C593    1.387   .     A
C591   H625    1.077   .     S
C592   H599    1.083   .     S
C592   C1302   1.390   1_554 S
C593   H610    1.084   .     S
C593   C1304   1.391   .     S
C594   H626    1.084   .     S
C594   C644    1.397   .     S
C595   H600    1.084   .     S
C595   C82     1.388   1_565 S
C596   O640    1.386   .     S
C596   C114    1.390   1_565 S
Cu597  O639    1.936   .     S
Cu597  N627    2.010   .     S
Cu597  O635    1.961   .     S
Cu597  O636    1.952   .     S
Cu597  O631    1.962   .     S
Cu598  O638    1.936   .     S
Cu598  N628    2.010   .     S
Cu598  O634    1.961   .     S
Cu598  O637    1.952   .     S
Cu598  O633    1.962   .     S
Cu598  Cu677   2.674   .     S
H605   N629    1.045   .     S
H606   N629    1.046   .     S
H607   N630    1.045   .     S
H608   N630    1.046   .     S
N629   C657    1.438   .     S
O634   C641    1.289   .     S
O637   C650    1.294   .     S
C641   O711    1.288   .     A
C641   C644    1.446   .     S
C642   O712    1.383   .     S
C642   C644    1.407   .     A
C643   C652    1.448   .     S
C643   C676    1.409   .     A
C643   C515    1.401   1_655 S
C645   N708    1.367   .     A
C645   C647    1.415   .     A
C645   H681    1.082   .     S
C646   C648    1.415   .     A
C646   N707    1.367   .     A
C646   H682    1.082   .     S
C647   H683    1.082   .     S
C647   N707    1.366   .     A
C648   N708    1.366   .     A
C648   H684    1.082   .     S
C649   C651    1.475   .     S
C649   O718    1.297   .     A
C649   O556    1.294   1_655 S
C650   O719    1.297   .     A
C650   C653    1.474   .     S
C651   C658    1.401   .     A
C651   C656    1.411   .     A
C652   O713    1.288   .     A
C652   O555    1.291   1_655 S
C653   C659    1.399   .     A
C653   C657    1.413   .     A
C654   H702    1.085   .     S
C654   C656    1.397   .     A
C654   C662    1.401   .     A
C655   C657    1.401   .     A
C655   C664    1.402   .     A
C655   H703    1.084   .     S
C656   N550    1.433   1_655 S
C658   C660    1.406   .     A
C658   H701    1.075   .     S
C659   C661    1.404   .     A
C659   H700    1.076   .     S
C660   C665    1.427   .     A
C660   C662    1.416   .     A
C661   C666    1.426   .     A
C661   C664    1.415   .     A
C662   C1392   1.390   .     S
C663   C666    1.416   .     A
C663   H704    1.077   .     S
C663   C672    1.386   .     A
C664   C1393   1.391   1_554 S
C665   C671    1.416   .     A
C665   C1386   1.425   .     S
C666   C1385   1.425   1_554 S
C667   H691    1.113   .     S
C667   O720    1.413   .     S
C667   C668    1.522   .     S
C667   H689    1.114   .     S
C668   H694    1.110   .     S
C668   H693    1.111   .     S
C668   H692    1.111   .     S
C669   O712    1.412   .     S
C669   C670    1.522   .     S
C669   H696    1.114   .     S
C669   H695    1.115   .     S
C670   H697    1.111   .     S
C670   H699    1.111   .     S
C670   H698    1.111   .     S
C671   C673    1.387   .     A
C671   H705    1.077   .     S
C672   H679    1.083   .     S
C672   C1382   1.390   1_554 S
C673   H690    1.084   .     S
C673   C1384   1.391   .     S
C674   H706    1.084   .     S
C674   C484    1.397   1_655 S
C675   H680    1.084   .     S
C675   C162    1.388   1_565 S
C676   O720    1.386   .     S
C676   C194    1.390   1_565 S
Cu677  O719    1.936   .     S
Cu677  N707    2.010   .     S
Cu677  O715    1.961   .     S
Cu677  O716    1.952   .     S
Cu677  O711    1.962   .     S
Cu678  O718    1.936   .     S
Cu678  N708    2.010   .     S
Cu678  O714    1.961   .     S
Cu678  O717    1.952   .     S
Cu678  O713    1.962   .     S
Cu678  Cu517   2.674   1_655 S
H685   N709    1.045   .     S
H686   N709    1.046   .     S
H687   N710    1.045   .     S
H688   N710    1.046   .     S
N709   C497    1.438   1_655 S
O714   C481    1.289   1_655 S
O717   C490    1.294   1_655 S
C721   O791    1.288   .     A
C721   C724    1.446   .     S
C721   O954    1.289   1_455 S
C722   O792    1.383   .     S
C722   C724    1.407   .     A
C722   C1235   1.388   1_545 S
C723   C732    1.448   .     S
C723   C756    1.409   .     A
C723   C835    1.401   .     S
C724   C914    1.397   1_455 S
C725   N788    1.367   .     A
C725   C727    1.415   .     A
C725   H761    1.082   .     S
C726   C728    1.415   .     A
C726   N787    1.367   .     A
C726   H762    1.082   .     S
C727   H763    1.082   .     S
C727   N787    1.366   .     A
C728   N788    1.366   .     A
C728   H764    1.082   .     S
C729   C731    1.475   .     S
C729   O798    1.297   .     A
C729   O876    1.294   .     S
C730   O799    1.297   .     A
C730   C733    1.474   .     S
C730   O957    1.294   1_455 S
C731   C738    1.401   .     A
C731   C736    1.411   .     A
C732   O793    1.288   .     A
C732   O875    1.291   .     S
C733   C739    1.399   .     A
C733   C737    1.413   .     A
C734   H782    1.085   .     S
C734   C736    1.397   .     A
C734   C742    1.401   .     A
C735   C737    1.401   .     A
C735   C744    1.402   .     A
C735   H783    1.084   .     S
C736   N870    1.433   .     S
C737   N949    1.438   1_455 S
C738   C740    1.406   .     A
C738   H781    1.075   .     S
C739   C741    1.404   .     A
C739   H780    1.076   .     S
C740   C745    1.427   .     A
C740   C742    1.416   .     A
C741   C746    1.426   .     A
C741   C744    1.415   .     A
C742   C32     1.390   1_556 S
C743   C746    1.416   .     A
C743   H784    1.077   .     S
C743   C752    1.386   .     A
C745   C751    1.416   .     A
C745   C26     1.425   1_556 S
C747   H771    1.113   .     S
C747   O800    1.413   .     S
C747   C748    1.522   .     S
C747   H769    1.114   .     S
C748   H774    1.110   .     S
C748   H773    1.111   .     S
C748   H772    1.111   .     S
C749   O792    1.412   .     S
C749   C750    1.522   .     S
C749   H776    1.114   .     S
C749   H775    1.115   .     S
C750   H777    1.111   .     S
C750   H779    1.111   .     S
C750   H778    1.111   .     S
C751   C753    1.387   .     A
C751   H785    1.077   .     S
C752   H759    1.083   .     S
C753   H770    1.084   .     S
C753   C24     1.391   1_556 S
C754   H786    1.084   .     S
C754   C804    1.397   .     S
C754   C1236   1.390   1_545 S
C755   H760    1.084   .     S
C755   C883    1.401   1_455 S
C755   C962    1.388   .     S
C756   O800    1.386   .     S
C756   C994    1.390   .     S
Cu757  O799    1.936   .     S
Cu757  N787    2.010   .     S
Cu757  O795    1.961   .     S
Cu757  O796    1.952   .     S
Cu757  O791    1.962   .     S
Cu757  Cu918   2.674   1_455 S
Cu758  O798    1.936   .     S
Cu758  N788    2.010   .     S
Cu758  O794    1.961   .     S
Cu758  O797    1.952   .     S
Cu758  O793    1.962   .     S
Cu758  Cu837   2.674   .     S
H765   N789    1.045   .     S
H766   N789    1.046   .     S
H767   N790    1.045   .     S
H768   N790    1.046   .     S
N789   C817    1.438   .     S
N790   C896    1.433   1_455 S
O794   C801    1.289   .     S
O795   C892    1.291   1_455 S
O796   C889    1.294   1_455 S
O797   C810    1.294   .     S
C801   O871    1.288   .     A
C801   C804    1.446   .     S
C802   O872    1.383   .     S
C802   C804    1.407   .     A
C802   C1315   1.388   1_545 S
C803   C812    1.448   .     S
C803   C836    1.409   .     A
C803   C915    1.401   .     S
C805   N868    1.367   .     A
C805   C807    1.415   .     A
C805   H841    1.082   .     S
C806   C808    1.415   .     A
C806   N867    1.367   .     A
C806   H842    1.082   .     S
C807   H843    1.082   .     S
C807   N867    1.366   .     A
C808   N868    1.366   .     A
C808   H844    1.082   .     S
C809   C811    1.475   .     S
C809   O878    1.297   .     A
C809   O956    1.294   .     S
C810   O879    1.297   .     A
C810   C813    1.474   .     S
C811   C818    1.401   .     A
C811   C816    1.411   .     A
C812   O873    1.288   .     A
C812   O955    1.291   .     S
C813   C819    1.399   .     A
C813   C817    1.413   .     A
C814   H862    1.085   .     S
C814   C816    1.397   .     A
C814   C822    1.401   .     A
C815   C817    1.401   .     A
C815   C824    1.402   .     A
C815   H863    1.084   .     S
C816   N950    1.433   .     S
C818   C820    1.406   .     A
C818   H861    1.075   .     S
C819   C821    1.404   .     A
C819   H860    1.076   .     S
C820   C825    1.427   .     A
C820   C822    1.416   .     A
C821   C826    1.426   .     A
C821   C824    1.415   .     A
C822   C112    1.390   1_556 S
C823   C826    1.416   .     A
C823   H864    1.077   .     S
C823   C832    1.386   .     A
C825   C831    1.416   .     A
C825   C106    1.425   1_556 S
C827   H851    1.113   .     S
C827   O880    1.413   .     S
C827   C828    1.522   .     S
C827   H849    1.114   .     S
C828   H854    1.110   .     S
C828   H853    1.111   .     S
C828   H852    1.111   .     S
C829   O872    1.412   .     S
C829   C830    1.522   .     S
C829   H856    1.114   .     S
C829   H855    1.115   .     S
C830   H857    1.111   .     S
C830   H859    1.111   .     S
C830   H858    1.111   .     S
C831   C833    1.387   .     A
C831   H865    1.077   .     S
C832   H839    1.083   .     S
C833   H850    1.084   .     S
C833   C104    1.391   1_556 S
C834   H866    1.084   .     S
C834   C884    1.397   .     S
C834   C1316   1.390   1_545 S
C835   H840    1.084   .     S
C835   C1042   1.388   .     S
C836   O880    1.386   .     S
C836   C1074   1.390   .     S
Cu837  O879    1.936   .     S
Cu837  N867    2.010   .     S
Cu837  O875    1.961   .     S
Cu837  O876    1.952   .     S
Cu837  O871    1.962   .     S
Cu838  O878    1.936   .     S
Cu838  N868    2.010   .     S
Cu838  O874    1.961   .     S
Cu838  O877    1.952   .     S
Cu838  O873    1.962   .     S
Cu838  Cu917   2.674   .     S
H845   N869    1.045   .     S
H846   N869    1.046   .     S
H847   N870    1.045   .     S
H848   N870    1.046   .     S
N869   C897    1.438   .     S
O874   C881    1.289   .     S
O877   C890    1.294   .     S
C881   O951    1.288   .     A
C881   C884    1.446   .     S
C882   O952    1.383   .     S
C882   C884    1.407   .     A
C882   C1395   1.388   1_545 S
C883   C892    1.448   .     S
C883   C916    1.409   .     A
C883   C755    1.401   1_655 S
C885   N948    1.367   .     A
C885   C887    1.415   .     A
C885   H921    1.082   .     S
C886   C888    1.415   .     A
C886   N947    1.367   .     A
C886   H922    1.082   .     S
C887   H923    1.082   .     S
C887   N947    1.366   .     A
C888   N948    1.366   .     A
C888   H924    1.082   .     S
C889   C891    1.475   .     S
C889   O958    1.297   .     A
C889   O796    1.294   1_655 S
C890   O959    1.297   .     A
C890   C893    1.474   .     S
C891   C898    1.401   .     A
C891   C896    1.411   .     A
C892   O953    1.288   .     A
C892   O795    1.291   1_655 S
C893   C899    1.399   .     A
C893   C897    1.413   .     A
C894   H942    1.085   .     S
C894   C896    1.397   .     A
C894   C902    1.401   .     A
C895   C897    1.401   .     A
C895   C904    1.402   .     A
C895   H943    1.084   .     S
C896   N790    1.433   1_655 S
C898   C900    1.406   .     A
C898   H941    1.075   .     S
C899   C901    1.404   .     A
C899   H940    1.076   .     S
C900   C905    1.427   .     A
C900   C902    1.416   .     A
C901   C906    1.426   .     A
C901   C904    1.415   .     A
C902   C192    1.390   1_556 S
C903   C906    1.416   .     A
C903   H944    1.077   .     S
C903   C912    1.386   .     A
C905   C911    1.416   .     A
C905   C186    1.425   1_556 S
C907   H931    1.113   .     S
C907   O960    1.413   .     S
C907   C908    1.522   .     S
C907   H929    1.114   .     S
C908   H934    1.110   .     S
C908   H933    1.111   .     S
C908   H932    1.111   .     S
C909   O952    1.412   .     S
C909   C910    1.522   .     S
C909   H936    1.114   .     S
C909   H935    1.115   .     S
C910   H937    1.111   .     S
C910   H939    1.111   .     S
C910   H938    1.111   .     S
C911   C913    1.387   .     A
C911   H945    1.077   .     S
C912   H919    1.083   .     S
C913   H930    1.084   .     S
C913   C184    1.391   1_556 S
C914   H946    1.084   .     S
C914   C724    1.397   1_655 S
C914   C1396   1.390   1_545 S
C915   H920    1.084   .     S
C915   C1122   1.388   .     S
C916   O960    1.386   .     S
C916   C1154   1.390   .     S
Cu917  O959    1.936   .     S
Cu917  N947    2.010   .     S
Cu917  O955    1.961   .     S
Cu917  O956    1.952   .     S
Cu917  O951    1.962   .     S
Cu918  O958    1.936   .     S
Cu918  N948    2.010   .     S
Cu918  O954    1.961   .     S
Cu918  O957    1.952   .     S
Cu918  O953    1.962   .     S
Cu918  Cu757   2.674   1_655 S
H925   N949    1.045   .     S
H926   N949    1.046   .     S
H927   N950    1.045   .     S
H928   N950    1.046   .     S
N949   C737    1.438   1_655 S
O954   C721    1.289   1_655 S
O957   C730    1.294   1_655 S
C961   O1031   1.288   .     A
C961   C964    1.446   .     S
C961   O1194   1.289   1_455 S
C962   O1032   1.383   .     S
C962   C964    1.407   .     A
C963   C972    1.448   .     S
C963   C996    1.409   .     A
C963   C1075   1.401   .     S
C964   C1154   1.397   1_455 S
C965   N1028   1.367   .     A
C965   C967    1.415   .     A
C965   H1001   1.082   .     S
C966   C968    1.415   .     A
C966   N1027   1.367   .     A
C966   H1002   1.082   .     S
C967   H1003   1.082   .     S
C967   N1027   1.366   .     A
C968   N1028   1.366   .     A
C968   H1004   1.082   .     S
C969   C971    1.475   .     S
C969   O1038   1.297   .     A
C969   O1116   1.294   .     S
C970   O1039   1.297   .     A
C970   C973    1.474   .     S
C970   O1197   1.294   1_455 S
C971   C978    1.401   .     A
C971   C976    1.411   .     A
C972   O1033   1.288   .     A
C972   O1115   1.291   .     S
C973   C979    1.399   .     A
C973   C977    1.413   .     A
C974   H1022   1.085   .     S
C974   C976    1.397   .     A
C974   C982    1.401   .     A
C975   C977    1.401   .     A
C975   C984    1.402   .     A
C975   H1023   1.084   .     S
C976   N1110   1.433   .     S
C977   N1189   1.438   1_455 S
C978   C980    1.406   .     A
C978   H1021   1.075   .     S
C979   C981    1.404   .     A
C979   H1020   1.076   .     S
C980   C985    1.427   .     A
C980   C982    1.416   .     A
C981   C986    1.426   .     A
C981   C984    1.415   .     A
C982   C272    1.390   1_556 S
C983   C986    1.416   .     A
C983   H1024   1.077   .     S
C983   C992    1.386   .     A
C985   C991    1.416   .     A
C985   C266    1.425   1_556 S
C987   H1011   1.113   .     S
C987   O1040   1.413   .     S
C987   C988    1.522   .     S
C987   H1009   1.114   .     S
C988   H1014   1.110   .     S
C988   H1013   1.111   .     S
C988   H1012   1.111   .     S
C989   O1032   1.412   .     S
C989   C990    1.522   .     S
C989   H1016   1.114   .     S
C989   H1015   1.115   .     S
C990   H1017   1.111   .     S
C990   H1019   1.111   .     S
C990   H1018   1.111   .     S
C991   C993    1.387   .     A
C991   H1025   1.077   .     S
C992   H999    1.083   .     S
C993   H1010   1.084   .     S
C993   C264    1.391   1_556 S
C994   H1026   1.084   .     S
C994   C1044   1.397   .     S
C995   H1000   1.084   .     S
C995   C1123   1.401   1_455 S
C995   C1202   1.388   .     S
C996   O1040   1.386   .     S
C996   C1234   1.390   .     S
Cu997  O1039   1.936   .     S
Cu997  N1027   2.010   .     S
Cu997  O1035   1.961   .     S
Cu997  O1036   1.952   .     S
Cu997  O1031   1.962   .     S
Cu997  Cu1158  2.674   1_455 S
Cu998  O1038   1.936   .     S
Cu998  N1028   2.010   .     S
Cu998  O1034   1.961   .     S
Cu998  O1037   1.952   .     S
Cu998  O1033   1.962   .     S
Cu998  Cu1077  2.674   .     S
H1005  N1029   1.045   .     S
H1006  N1029   1.046   .     S
H1007  N1030   1.045   .     S
H1008  N1030   1.046   .     S
N1029  C1057   1.438   .     S
N1030  C1136   1.433   1_455 S
O1034  C1041   1.289   .     S
O1035  C1132   1.291   1_455 S
O1036  C1129   1.294   1_455 S
O1037  C1050   1.294   .     S
C1041  O1111   1.288   .     A
C1041  C1044   1.446   .     S
C1042  O1112   1.383   .     S
C1042  C1044   1.407   .     A
C1043  C1052   1.448   .     S
C1043  C1076   1.409   .     A
C1043  C1155   1.401   .     S
C1045  N1108   1.367   .     A
C1045  C1047   1.415   .     A
C1045  H1081   1.082   .     S
C1046  C1048   1.415   .     A
C1046  N1107   1.367   .     A
C1046  H1082   1.082   .     S
C1047  H1083   1.082   .     S
C1047  N1107   1.366   .     A
C1048  N1108   1.366   .     A
C1048  H1084   1.082   .     S
C1049  C1051   1.475   .     S
C1049  O1118   1.297   .     A
C1049  O1196   1.294   .     S
C1050  O1119   1.297   .     A
C1050  C1053   1.474   .     S
C1051  C1058   1.401   .     A
C1051  C1056   1.411   .     A
C1052  O1113   1.288   .     A
C1052  O1195   1.291   .     S
C1053  C1059   1.399   .     A
C1053  C1057   1.413   .     A
C1054  H1102   1.085   .     S
C1054  C1056   1.397   .     A
C1054  C1062   1.401   .     A
C1055  C1057   1.401   .     A
C1055  C1064   1.402   .     A
C1055  H1103   1.084   .     S
C1056  N1190   1.433   .     S
C1058  C1060   1.406   .     A
C1058  H1101   1.075   .     S
C1059  C1061   1.404   .     A
C1059  H1100   1.076   .     S
C1060  C1065   1.427   .     A
C1060  C1062   1.416   .     A
C1061  C1066   1.426   .     A
C1061  C1064   1.415   .     A
C1062  C352    1.390   1_556 S
C1063  C1066   1.416   .     A
C1063  H1104   1.077   .     S
C1063  C1072   1.386   .     A
C1065  C1071   1.416   .     A
C1065  C346    1.425   1_556 S
C1067  H1091   1.113   .     S
C1067  O1120   1.413   .     S
C1067  C1068   1.522   .     S
C1067  H1089   1.114   .     S
C1068  H1094   1.110   .     S
C1068  H1093   1.111   .     S
C1068  H1092   1.111   .     S
C1069  O1112   1.412   .     S
C1069  C1070   1.522   .     S
C1069  H1096   1.114   .     S
C1069  H1095   1.115   .     S
C1070  H1097   1.111   .     S
C1070  H1099   1.111   .     S
C1070  H1098   1.111   .     S
C1071  C1073   1.387   .     A
C1071  H1105   1.077   .     S
C1072  H1079   1.083   .     S
C1073  H1090   1.084   .     S
C1073  C344    1.391   1_556 S
C1074  H1106   1.084   .     S
C1074  C1124   1.397   .     S
C1075  H1080   1.084   .     S
C1075  C1282   1.388   .     S
C1076  O1120   1.386   .     S
C1076  C1314   1.390   .     S
Cu1077 O1119   1.936   .     S
Cu1077 N1107   2.010   .     S
Cu1077 O1115   1.961   .     S
Cu1077 O1116   1.952   .     S
Cu1077 O1111   1.962   .     S
Cu1078 O1118   1.936   .     S
Cu1078 N1108   2.010   .     S
Cu1078 O1114   1.961   .     S
Cu1078 O1117   1.952   .     S
Cu1078 O1113   1.962   .     S
Cu1078 Cu1157  2.674   .     S
H1085  N1109   1.045   .     S
H1086  N1109   1.046   .     S
H1087  N1110   1.045   .     S
H1088  N1110   1.046   .     S
N1109  C1137   1.438   .     S
O1114  C1121   1.289   .     S
O1117  C1130   1.294   .     S
C1121  O1191   1.288   .     A
C1121  C1124   1.446   .     S
C1122  O1192   1.383   .     S
C1122  C1124   1.407   .     A
C1123  C1132   1.448   .     S
C1123  C1156   1.409   .     A
C1123  C995    1.401   1_655 S
C1125  N1188   1.367   .     A
C1125  C1127   1.415   .     A
C1125  H1161   1.082   .     S
C1126  C1128   1.415   .     A
C1126  N1187   1.367   .     A
C1126  H1162   1.082   .     S
C1127  H1163   1.082   .     S
C1127  N1187   1.366   .     A
C1128  N1188   1.366   .     A
C1128  H1164   1.082   .     S
C1129  C1131   1.475   .     S
C1129  O1198   1.297   .     A
C1129  O1036   1.294   1_655 S
C1130  O1199   1.297   .     A
C1130  C1133   1.474   .     S
C1131  C1138   1.401   .     A
C1131  C1136   1.411   .     A
C1132  O1193   1.288   .     A
C1132  O1035   1.291   1_655 S
C1133  C1139   1.399   .     A
C1133  C1137   1.413   .     A
C1134  H1182   1.085   .     S
C1134  C1136   1.397   .     A
C1134  C1142   1.401   .     A
C1135  C1137   1.401   .     A
C1135  C1144   1.402   .     A
C1135  H1183   1.084   .     S
C1136  N1030   1.433   1_655 S
C1138  C1140   1.406   .     A
C1138  H1181   1.075   .     S
C1139  C1141   1.404   .     A
C1139  H1180   1.076   .     S
C1140  C1145   1.427   .     A
C1140  C1142   1.416   .     A
C1141  C1146   1.426   .     A
C1141  C1144   1.415   .     A
C1142  C432    1.390   1_556 S
C1143  C1146   1.416   .     A
C1143  H1184   1.077   .     S
C1143  C1152   1.386   .     A
C1145  C1151   1.416   .     A
C1145  C426    1.425   1_556 S
C1147  H1171   1.113   .     S
C1147  O1200   1.413   .     S
C1147  C1148   1.522   .     S
C1147  H1169   1.114   .     S
C1148  H1174   1.110   .     S
C1148  H1173   1.111   .     S
C1148  H1172   1.111   .     S
C1149  O1192   1.412   .     S
C1149  C1150   1.522   .     S
C1149  H1176   1.114   .     S
C1149  H1175   1.115   .     S
C1150  H1177   1.111   .     S
C1150  H1179   1.111   .     S
C1150  H1178   1.111   .     S
C1151  C1153   1.387   .     A
C1151  H1185   1.077   .     S
C1152  H1159   1.083   .     S
C1153  H1170   1.084   .     S
C1153  C424    1.391   1_556 S
C1154  H1186   1.084   .     S
C1154  C964    1.397   1_655 S
C1155  H1160   1.084   .     S
C1155  C1362   1.388   .     S
C1156  O1200   1.386   .     S
C1156  C1394   1.390   .     S
Cu1157 O1199   1.936   .     S
Cu1157 N1187   2.010   .     S
Cu1157 O1195   1.961   .     S
Cu1157 O1196   1.952   .     S
Cu1157 O1191   1.962   .     S
Cu1158 O1198   1.936   .     S
Cu1158 N1188   2.010   .     S
Cu1158 O1194   1.961   .     S
Cu1158 O1197   1.952   .     S
Cu1158 O1193   1.962   .     S
Cu1158 Cu997   2.674   1_655 S
H1165  N1189   1.045   .     S
H1166  N1189   1.046   .     S
H1167  N1190   1.045   .     S
H1168  N1190   1.046   .     S
N1189  C977    1.438   1_655 S
O1194  C961    1.289   1_655 S
O1197  C970    1.294   1_655 S
C1201  O1271   1.288   .     A
C1201  C1204   1.446   .     S
C1201  O1434   1.289   1_455 S
C1202  O1272   1.383   .     S
C1202  C1204   1.407   .     A
C1203  C1212   1.448   .     S
C1203  C1236   1.409   .     A
C1203  C1315   1.401   .     S
C1204  C1394   1.397   1_455 S
C1205  N1268   1.367   .     A
C1205  C1207   1.415   .     A
C1205  H1241   1.082   .     S
C1206  C1208   1.415   .     A
C1206  N1267   1.367   .     A
C1206  H1242   1.082   .     S
C1207  H1243   1.082   .     S
C1207  N1267   1.366   .     A
C1208  N1268   1.366   .     A
C1208  H1244   1.082   .     S
C1209  C1211   1.475   .     S
C1209  O1278   1.297   .     A
C1209  O1356   1.294   .     S
C1210  O1279   1.297   .     A
C1210  C1213   1.474   .     S
C1210  O1437   1.294   1_455 S
C1211  C1218   1.401   .     A
C1211  C1216   1.411   .     A
C1212  O1273   1.288   .     A
C1212  O1355   1.291   .     S
C1213  C1219   1.399   .     A
C1213  C1217   1.413   .     A
C1214  H1262   1.085   .     S
C1214  C1216   1.397   .     A
C1214  C1222   1.401   .     A
C1215  C1217   1.401   .     A
C1215  C1224   1.402   .     A
C1215  H1263   1.084   .     S
C1216  N1350   1.433   .     S
C1217  N1429   1.438   1_455 S
C1218  C1220   1.406   .     A
C1218  H1261   1.075   .     S
C1219  C1221   1.404   .     A
C1219  H1260   1.076   .     S
C1220  C1225   1.427   .     A
C1220  C1222   1.416   .     A
C1221  C1226   1.426   .     A
C1221  C1224   1.415   .     A
C1222  C512    1.390   1_556 S
C1223  C1226   1.416   .     A
C1223  H1264   1.077   .     S
C1223  C1232   1.386   .     A
C1225  C1231   1.416   .     A
C1225  C506    1.425   1_556 S
C1227  H1251   1.113   .     S
C1227  O1280   1.413   .     S
C1227  C1228   1.522   .     S
C1227  H1249   1.114   .     S
C1228  H1254   1.110   .     S
C1228  H1253   1.111   .     S
C1228  H1252   1.111   .     S
C1229  O1272   1.412   .     S
C1229  C1230   1.522   .     S
C1229  H1256   1.114   .     S
C1229  H1255   1.115   .     S
C1230  H1257   1.111   .     S
C1230  H1259   1.111   .     S
C1230  H1258   1.111   .     S
C1231  C1233   1.387   .     A
C1231  H1265   1.077   .     S
C1232  H1239   1.083   .     S
C1233  H1250   1.084   .     S
C1233  C504    1.391   1_556 S
C1234  H1266   1.084   .     S
C1234  C1284   1.397   .     S
C1235  H1240   1.084   .     S
C1235  C1363   1.401   1_455 S
C1235  C722    1.388   1_565 S
C1236  O1280   1.386   .     S
C1236  C754    1.390   1_565 S
Cu1237 O1279   1.936   .     S
Cu1237 N1267   2.010   .     S
Cu1237 O1275   1.961   .     S
Cu1237 O1276   1.952   .     S
Cu1237 O1271   1.962   .     S
Cu1237 Cu1398  2.674   1_455 S
Cu1238 O1278   1.936   .     S
Cu1238 N1268   2.010   .     S
Cu1238 O1274   1.961   .     S
Cu1238 O1277   1.952   .     S
Cu1238 O1273   1.962   .     S
Cu1238 Cu1317  2.674   .     S
H1245  N1269   1.045   .     S
H1246  N1269   1.046   .     S
H1247  N1270   1.045   .     S
H1248  N1270   1.046   .     S
N1269  C1297   1.438   .     S
N1270  C1376   1.433   1_455 S
O1274  C1281   1.289   .     S
O1275  C1372   1.291   1_455 S
O1276  C1369   1.294   1_455 S
O1277  C1290   1.294   .     S
C1281  O1351   1.288   .     A
C1281  C1284   1.446   .     S
C1282  O1352   1.383   .     S
C1282  C1284   1.407   .     A
C1283  C1292   1.448   .     S
C1283  C1316   1.409   .     A
C1283  C1395   1.401   .     S
C1285  N1348   1.367   .     A
C1285  C1287   1.415   .     A
C1285  H1321   1.082   .     S
C1286  C1288   1.415   .     A
C1286  N1347   1.367   .     A
C1286  H1322   1.082   .     S
C1287  H1323   1.082   .     S
C1287  N1347   1.366   .     A
C1288  N1348   1.366   .     A
C1288  H1324   1.082   .     S
C1289  C1291   1.475   .     S
C1289  O1358   1.297   .     A
C1289  O1436   1.294   .     S
C1290  O1359   1.297   .     A
C1290  C1293   1.474   .     S
C1291  C1298   1.401   .     A
C1291  C1296   1.411   .     A
C1292  O1353   1.288   .     A
C1292  O1435   1.291   .     S
C1293  C1299   1.399   .     A
C1293  C1297   1.413   .     A
C1294  H1342   1.085   .     S
C1294  C1296   1.397   .     A
C1294  C1302   1.401   .     A
C1295  C1297   1.401   .     A
C1295  C1304   1.402   .     A
C1295  H1343   1.084   .     S
C1296  N1430   1.433   .     S
C1298  C1300   1.406   .     A
C1298  H1341   1.075   .     S
C1299  C1301   1.404   .     A
C1299  H1340   1.076   .     S
C1300  C1305   1.427   .     A
C1300  C1302   1.416   .     A
C1301  C1306   1.426   .     A
C1301  C1304   1.415   .     A
C1302  C592    1.390   1_556 S
C1303  C1306   1.416   .     A
C1303  H1344   1.077   .     S
C1303  C1312   1.386   .     A
C1305  C1311   1.416   .     A
C1305  C586    1.425   1_556 S
C1307  H1331   1.113   .     S
C1307  O1360   1.413   .     S
C1307  C1308   1.522   .     S
C1307  H1329   1.114   .     S
C1308  H1334   1.110   .     S
C1308  H1333   1.111   .     S
C1308  H1332   1.111   .     S
C1309  O1352   1.412   .     S
C1309  C1310   1.522   .     S
C1309  H1336   1.114   .     S
C1309  H1335   1.115   .     S
C1310  H1337   1.111   .     S
C1310  H1339   1.111   .     S
C1310  H1338   1.111   .     S
C1311  C1313   1.387   .     A
C1311  H1345   1.077   .     S
C1312  H1319   1.083   .     S
C1313  H1330   1.084   .     S
C1313  C584    1.391   1_556 S
C1314  H1346   1.084   .     S
C1314  C1364   1.397   .     S
C1315  H1320   1.084   .     S
C1315  C802    1.388   1_565 S
C1316  O1360   1.386   .     S
C1316  C834    1.390   1_565 S
Cu1317 O1359   1.936   .     S
Cu1317 N1347   2.010   .     S
Cu1317 O1355   1.961   .     S
Cu1317 O1356   1.952   .     S
Cu1317 O1351   1.962   .     S
Cu1318 O1358   1.936   .     S
Cu1318 N1348   2.010   .     S
Cu1318 O1354   1.961   .     S
Cu1318 O1357   1.952   .     S
Cu1318 O1353   1.962   .     S
Cu1318 Cu1397  2.674   .     S
H1325  N1349   1.045   .     S
H1326  N1349   1.046   .     S
H1327  N1350   1.045   .     S
H1328  N1350   1.046   .     S
N1349  C1377   1.438   .     S
O1354  C1361   1.289   .     S
O1357  C1370   1.294   .     S
C1361  O1431   1.288   .     A
C1361  C1364   1.446   .     S
C1362  O1432   1.383   .     S
C1362  C1364   1.407   .     A
C1363  C1372   1.448   .     S
C1363  C1396   1.409   .     A
C1363  C1235   1.401   1_655 S
C1365  N1428   1.367   .     A
C1365  C1367   1.415   .     A
C1365  H1401   1.082   .     S
C1366  C1368   1.415   .     A
C1366  N1427   1.367   .     A
C1366  H1402   1.082   .     S
C1367  H1403   1.082   .     S
C1367  N1427   1.366   .     A
C1368  N1428   1.366   .     A
C1368  H1404   1.082   .     S
C1369  C1371   1.475   .     S
C1369  O1438   1.297   .     A
C1369  O1276   1.294   1_655 S
C1370  O1439   1.297   .     A
C1370  C1373   1.474   .     S
C1371  C1378   1.401   .     A
C1371  C1376   1.411   .     A
C1372  O1433   1.288   .     A
C1372  O1275   1.291   1_655 S
C1373  C1379   1.399   .     A
C1373  C1377   1.413   .     A
C1374  H1422   1.085   .     S
C1374  C1376   1.397   .     A
C1374  C1382   1.401   .     A
C1375  C1377   1.401   .     A
C1375  C1384   1.402   .     A
C1375  H1423   1.084   .     S
C1376  N1270   1.433   1_655 S
C1378  C1380   1.406   .     A
C1378  H1421   1.075   .     S
C1379  C1381   1.404   .     A
C1379  H1420   1.076   .     S
C1380  C1385   1.427   .     A
C1380  C1382   1.416   .     A
C1381  C1386   1.426   .     A
C1381  C1384   1.415   .     A
C1382  C672    1.390   1_556 S
C1383  C1386   1.416   .     A
C1383  H1424   1.077   .     S
C1383  C1392   1.386   .     A
C1385  C1391   1.416   .     A
C1385  C666    1.425   1_556 S
C1387  H1411   1.113   .     S
C1387  O1440   1.413   .     S
C1387  C1388   1.522   .     S
C1387  H1409   1.114   .     S
C1388  H1414   1.110   .     S
C1388  H1413   1.111   .     S
C1388  H1412   1.111   .     S
C1389  O1432   1.412   .     S
C1389  C1390   1.522   .     S
C1389  H1416   1.114   .     S
C1389  H1415   1.115   .     S
C1390  H1417   1.111   .     S
C1390  H1419   1.111   .     S
C1390  H1418   1.111   .     S
C1391  C1393   1.387   .     A
C1391  H1425   1.077   .     S
C1392  H1399   1.083   .     S
C1393  H1410   1.084   .     S
C1393  C664    1.391   1_556 S
C1394  H1426   1.084   .     S
C1394  C1204   1.397   1_655 S
C1395  H1400   1.084   .     S
C1395  C882    1.388   1_565 S
C1396  O1440   1.386   .     S
C1396  C914    1.390   1_565 S
Cu1397 O1439   1.936   .     S
Cu1397 N1427   2.010   .     S
Cu1397 O1435   1.961   .     S
Cu1397 O1436   1.952   .     S
Cu1397 O1431   1.962   .     S
Cu1398 O1438   1.936   .     S
Cu1398 N1428   2.010   .     S
Cu1398 O1434   1.961   .     S
Cu1398 O1437   1.952   .     S
Cu1398 O1433   1.962   .     S
Cu1398 Cu1237  2.674   1_655 S
H1405  N1429   1.045   .     S
H1406  N1429   1.046   .     S
H1407  N1430   1.045   .     S
H1408  N1430   1.046   .     S
N1429  C1217   1.438   1_655 S
O1434  C1201   1.289   1_655 S
O1437  C1210   1.294   1_655 S
