data_str_m3_o1_o18_pcu_sym.133
_audit_creation_date              2020-01-03
_audit_creation_method            'Materials Studio'
_symmetry_space_group_name_H-M    'P1'
_symmetry_Int_Tables_number       1
_symmetry_cell_setting            triclinic
loop_
_symmetry_equiv_pos_as_xyz
  x,y,z
_cell_length_a                    29.7177
_cell_length_b                    31.8976
_cell_length_c                    31.2194
_cell_angle_alpha                 90.4192
_cell_angle_beta                  68.6908
_cell_angle_gamma                 88.9751
loop_
_atom_site_label
_atom_site_type_symbol
_atom_site_fract_x
_atom_site_fract_y
_atom_site_fract_z
_atom_site_U_iso_or_equiv
_atom_site_adp_type
_atom_site_occupancy
C1     C     0.16667   0.24650   0.24926   0.00000  Uiso   1.00
C2     C     0.16666   0.08683   0.25074   0.00000  Uiso   1.00
C3     C     0.11490   0.14678   0.04919   0.00000  Uiso   1.00
C4     C     0.21836   0.18688   0.45087   0.00000  Uiso   1.00
C5     C     0.08081   0.13906   0.02914   0.00000  Uiso   1.00
C6     C     0.25246   0.19459   0.47092   0.00000  Uiso   1.00
C7     C     0.20499   0.31165   0.21603   0.00000  Uiso   1.00
C8     C     0.12834   0.02169   0.28397   0.00000  Uiso   1.00
C9     C     0.20477   0.02139   0.21794   0.00000  Uiso   1.00
C10    C     0.12857   0.31194   0.28206   0.00000  Uiso   1.00
C11    C     0.16673   0.04267   0.25158   0.00000  Uiso   1.00
C12    C     0.16661   0.29066   0.24842   0.00000  Uiso   1.00
C13    C     0.32011   0.13709   0.22507   0.00000  Uiso   1.00
C14    C     0.01322   0.19623   0.27495   0.00000  Uiso   1.00
C15    C     0.03448   0.13747   0.22523   0.00000  Uiso   1.00
C16    C     0.29886   0.19586   0.27477   0.00000  Uiso   1.00
C17    C     0.13706   0.16343   0.33737   0.00000  Uiso   1.00
C18    C     0.19627   0.16993   0.16263   0.00000  Uiso   1.00
C19    C     0.12084   0.15523   0.38675   0.00000  Uiso   1.00
C20    C     0.21248   0.17824   0.11328   0.00000  Uiso   1.00
C21    C     0.05843   0.14280   0.46057   0.00000  Uiso   1.00
C22    C     0.27485   0.19079   0.03947   0.00000  Uiso   1.00
C23    C     0.07202   0.15025   0.41357   0.00000  Uiso   1.00
C24    C     0.26129   0.18325   0.08645   0.00000  Uiso   1.00
C25    C     0.15548   0.15093   0.40752   0.00000  Uiso   1.00
C26    C     0.17783   0.18263   0.09255   0.00000  Uiso   1.00
C27    C     0.14089   0.15605   0.45504   0.00000  Uiso   1.00
C28    C     0.19238   0.17758   0.04502   0.00000  Uiso   1.00
C29    C     0.09259   0.14642   0.48208   0.00000  Uiso   1.00
C30    C     0.24069   0.18720   0.01797   0.00000  Uiso   1.00
C31    C     0.17353   0.16859   0.47610   0.00000  Uiso   1.00
C32    C     0.15973   0.16507   0.02396   0.00000  Uiso   1.00
H33    H     0.28838   0.18337   0.10209   0.00000  Uiso   1.00
H34    H     0.04494   0.15011   0.39793   0.00000  Uiso   1.00
H35    H     0.02113   0.13573   0.48002   0.00000  Uiso   1.00
H36    H     0.31215   0.19786   0.02003   0.00000  Uiso   1.00
H37    H     0.10608   0.13804   0.08471   0.00000  Uiso   1.00
H38    H     0.22717   0.19562   0.41535   0.00000  Uiso   1.00
H39    H     0.23341   0.03845   0.19266   0.00000  Uiso   1.00
H40    H     0.09993   0.29488   0.30735   0.00000  Uiso   1.00
H41    H     0.06109   0.11412   0.20579   0.00000  Uiso   1.00
H42    H     0.27224   0.21920   0.29421   0.00000  Uiso   1.00
N43    N     0.04759   0.16668   0.25001   0.00000  Uiso   1.00
N44    N     0.28574   0.16666   0.24999   0.00000  Uiso   1.00
O45    O     0.12846   0.22775   0.25001   0.00000  Uiso   1.00
O46    O     0.20488   0.10558   0.25000   0.00000  Uiso   1.00
O47    O     0.20490   0.22774   0.25000   0.00000  Uiso   1.00
O48    O     0.12843   0.10559   0.25000   0.00000  Uiso   1.00
O49    O     0.10661   0.16667   0.31613   0.00000  Uiso   1.00
O50    O     0.22672   0.16666   0.18388   0.00000  Uiso   1.00
O51    O     0.18305   0.16666   0.31612   0.00000  Uiso   1.00
O52    O     0.15028   0.16667   0.18388   0.00000  Uiso   1.00
Zn53   Zn    0.11562   0.16667   0.25000   0.00000  Uiso   1.00
Zn54   Zn    0.21771   0.16666   0.25000   0.00000  Uiso   1.00
C55    C     0.03579   0.12033   0.05677   0.00000  Uiso   1.00
N56    N     0.33331   0.10492   0.07878   0.00000  Uiso   1.00
C57    C     0.29750   0.21327   0.44327   0.00000  Uiso   1.00
N58    N     0.00001   0.22864   0.42125   0.00000  Uiso   1.00
C59    C     0.13073   0.20215   0.11753   0.00000  Uiso   1.00
N60    N     0.09335   0.21775   0.13732   0.00000  Uiso   1.00
C61    C     0.20260   0.13143   0.38259   0.00000  Uiso   1.00
N62    N     0.24001   0.11585   0.36284   0.00000  Uiso   1.00
C63    C     0.24380   0.28983   0.18006   0.00000  Uiso   1.00
N64    N     0.27483   0.27236   0.15130   0.00000  Uiso   1.00
C65    C     0.08954   0.04350   0.31995   0.00000  Uiso   1.00
N66    N     0.05852   0.06097   0.34871   0.00000  Uiso   1.00
C67    C     0.30806   0.10254   0.19850   0.00000  Uiso   1.00
H68    H     0.00792   0.08691   0.17401   0.00000  Uiso   1.00
H69    H     0.28758   0.07830   0.22262   0.00000  Uiso   1.00
H70    H     0.28753   0.11470   0.17790   0.00000  Uiso   1.00
C71    C     0.02522   0.23071   0.30163   0.00000  Uiso   1.00
H72    H     0.32535   0.24631   0.32613   0.00000  Uiso   1.00
H73    H     0.04567   0.21849   0.32226   0.00000  Uiso   1.00
H74    H     0.04571   0.25499   0.27761   0.00000  Uiso   1.00
C75    C     0.50001   0.24650   0.24926   0.00000  Uiso   1.00
C76    C     0.49999   0.08683   0.25074   0.00000  Uiso   1.00
C77    C     0.44824   0.14678   0.04919   0.00000  Uiso   1.00
C78    C     0.55169   0.18688   0.45087   0.00000  Uiso   1.00
C79    C     0.41414   0.13906   0.02914   0.00000  Uiso   1.00
C80    C     0.58579   0.19459   0.47092   0.00000  Uiso   1.00
C81    C     0.53833   0.31165   0.21603   0.00000  Uiso   1.00
C82    C     0.46168   0.02169   0.28397   0.00000  Uiso   1.00
C83    C     0.53810   0.02139   0.21794   0.00000  Uiso   1.00
C84    C     0.46190   0.31194   0.28206   0.00000  Uiso   1.00
C85    C     0.50006   0.04267   0.25158   0.00000  Uiso   1.00
C86    C     0.49994   0.29066   0.24842   0.00000  Uiso   1.00
C87    C     0.65344   0.13709   0.22507   0.00000  Uiso   1.00
C88    C     0.34655   0.19623   0.27495   0.00000  Uiso   1.00
C89    C     0.36781   0.13747   0.22523   0.00000  Uiso   1.00
C90    C     0.63219   0.19586   0.27477   0.00000  Uiso   1.00
C91    C     0.47039   0.16343   0.33737   0.00000  Uiso   1.00
C92    C     0.52961   0.16993   0.16263   0.00000  Uiso   1.00
C93    C     0.45417   0.15523   0.38675   0.00000  Uiso   1.00
C94    C     0.54581   0.17824   0.11328   0.00000  Uiso   1.00
C95    C     0.39177   0.14280   0.46057   0.00000  Uiso   1.00
C96    C     0.60818   0.19079   0.03947   0.00000  Uiso   1.00
C97    C     0.40535   0.15025   0.41357   0.00000  Uiso   1.00
C98    C     0.59463   0.18325   0.08645   0.00000  Uiso   1.00
C99    C     0.48881   0.15093   0.40752   0.00000  Uiso   1.00
C100   C     0.51116   0.18263   0.09255   0.00000  Uiso   1.00
C101   C     0.47423   0.15605   0.45504   0.00000  Uiso   1.00
C102   C     0.52572   0.17758   0.04502   0.00000  Uiso   1.00
C103   C     0.42592   0.14642   0.48208   0.00000  Uiso   1.00
C104   C     0.57402   0.18720   0.01797   0.00000  Uiso   1.00
C105   C     0.50687   0.16859   0.47610   0.00000  Uiso   1.00
C106   C     0.49306   0.16507   0.02396   0.00000  Uiso   1.00
H107   H     0.62172   0.18337   0.10209   0.00000  Uiso   1.00
H108   H     0.37827   0.15011   0.39793   0.00000  Uiso   1.00
H109   H     0.35446   0.13573   0.48002   0.00000  Uiso   1.00
H110   H     0.64548   0.19786   0.02003   0.00000  Uiso   1.00
H111   H     0.43942   0.13804   0.08471   0.00000  Uiso   1.00
H112   H     0.56050   0.19562   0.41535   0.00000  Uiso   1.00
H113   H     0.56674   0.03845   0.19266   0.00000  Uiso   1.00
H114   H     0.43326   0.29488   0.30735   0.00000  Uiso   1.00
H115   H     0.39442   0.11412   0.20579   0.00000  Uiso   1.00
H116   H     0.60557   0.21920   0.29421   0.00000  Uiso   1.00
N117   N     0.38093   0.16668   0.25001   0.00000  Uiso   1.00
N118   N     0.61907   0.16666   0.24999   0.00000  Uiso   1.00
O119   O     0.46179   0.22775   0.25001   0.00000  Uiso   1.00
O120   O     0.53821   0.10558   0.25000   0.00000  Uiso   1.00
O121   O     0.53823   0.22774   0.25000   0.00000  Uiso   1.00
O122   O     0.46177   0.10559   0.25000   0.00000  Uiso   1.00
O123   O     0.43994   0.16667   0.31613   0.00000  Uiso   1.00
O124   O     0.56006   0.16666   0.18388   0.00000  Uiso   1.00
O125   O     0.51639   0.16666   0.31612   0.00000  Uiso   1.00
O126   O     0.48361   0.16667   0.18388   0.00000  Uiso   1.00
Zn127  Zn    0.44896   0.16667   0.25000   0.00000  Uiso   1.00
Zn128  Zn    0.55104   0.16666   0.25000   0.00000  Uiso   1.00
C129   C     0.36913   0.12033   0.05677   0.00000  Uiso   1.00
N130   N     0.66665   0.10492   0.07878   0.00000  Uiso   1.00
C131   C     0.63083   0.21327   0.44327   0.00000  Uiso   1.00
N132   N     0.33334   0.22864   0.42125   0.00000  Uiso   1.00
C133   C     0.46407   0.20215   0.11753   0.00000  Uiso   1.00
N134   N     0.42668   0.21775   0.13732   0.00000  Uiso   1.00
C135   C     0.53594   0.13143   0.38259   0.00000  Uiso   1.00
N136   N     0.57334   0.11585   0.36284   0.00000  Uiso   1.00
C137   C     0.57714   0.28983   0.18006   0.00000  Uiso   1.00
N138   N     0.60817   0.27236   0.15130   0.00000  Uiso   1.00
C139   C     0.42288   0.04350   0.31995   0.00000  Uiso   1.00
N140   N     0.39186   0.06097   0.34871   0.00000  Uiso   1.00
C141   C     0.64139   0.10254   0.19850   0.00000  Uiso   1.00
H142   H     0.34125   0.08691   0.17401   0.00000  Uiso   1.00
H143   H     0.62091   0.07830   0.22262   0.00000  Uiso   1.00
H144   H     0.62087   0.11470   0.17790   0.00000  Uiso   1.00
C145   C     0.35855   0.23071   0.30163   0.00000  Uiso   1.00
H146   H     0.65869   0.24631   0.32613   0.00000  Uiso   1.00
H147   H     0.37900   0.21849   0.32226   0.00000  Uiso   1.00
H148   H     0.37905   0.25499   0.27761   0.00000  Uiso   1.00
C149   C     0.83334   0.24650   0.24926   0.00000  Uiso   1.00
C150   C     0.83333   0.08683   0.25074   0.00000  Uiso   1.00
C151   C     0.78157   0.14678   0.04919   0.00000  Uiso   1.00
C152   C     0.88502   0.18688   0.45087   0.00000  Uiso   1.00
C153   C     0.74747   0.13906   0.02914   0.00000  Uiso   1.00
C154   C     0.91913   0.19459   0.47092   0.00000  Uiso   1.00
C155   C     0.87166   0.31165   0.21603   0.00000  Uiso   1.00
C156   C     0.79501   0.02169   0.28397   0.00000  Uiso   1.00
C157   C     0.87143   0.02139   0.21794   0.00000  Uiso   1.00
C158   C     0.79524   0.31194   0.28206   0.00000  Uiso   1.00
C159   C     0.83339   0.04267   0.25158   0.00000  Uiso   1.00
C160   C     0.83328   0.29066   0.24842   0.00000  Uiso   1.00
C161   C     0.98677   0.13709   0.22507   0.00000  Uiso   1.00
C162   C     0.67988   0.19623   0.27495   0.00000  Uiso   1.00
C163   C     0.70114   0.13747   0.22523   0.00000  Uiso   1.00
C164   C     0.96552   0.19586   0.27477   0.00000  Uiso   1.00
C165   C     0.80373   0.16343   0.33737   0.00000  Uiso   1.00
C166   C     0.86294   0.16993   0.16263   0.00000  Uiso   1.00
C167   C     0.78751   0.15523   0.38675   0.00000  Uiso   1.00
C168   C     0.87915   0.17824   0.11328   0.00000  Uiso   1.00
C169   C     0.72510   0.14280   0.46057   0.00000  Uiso   1.00
C170   C     0.94152   0.19079   0.03947   0.00000  Uiso   1.00
C171   C     0.73868   0.15025   0.41357   0.00000  Uiso   1.00
C172   C     0.92796   0.18325   0.08645   0.00000  Uiso   1.00
C173   C     0.82214   0.15093   0.40752   0.00000  Uiso   1.00
C174   C     0.84450   0.18263   0.09255   0.00000  Uiso   1.00
C175   C     0.80756   0.15605   0.45504   0.00000  Uiso   1.00
C176   C     0.85905   0.17758   0.04502   0.00000  Uiso   1.00
C177   C     0.75925   0.14642   0.48208   0.00000  Uiso   1.00
C178   C     0.90735   0.18720   0.01797   0.00000  Uiso   1.00
C179   C     0.84020   0.16859   0.47610   0.00000  Uiso   1.00
C180   C     0.82639   0.16507   0.02396   0.00000  Uiso   1.00
H181   H     0.95505   0.18337   0.10209   0.00000  Uiso   1.00
H182   H     0.71160   0.15011   0.39793   0.00000  Uiso   1.00
H183   H     0.68779   0.13573   0.48002   0.00000  Uiso   1.00
H184   H     0.97882   0.19786   0.02003   0.00000  Uiso   1.00
H185   H     0.77275   0.13804   0.08471   0.00000  Uiso   1.00
H186   H     0.89384   0.19562   0.41535   0.00000  Uiso   1.00
H187   H     0.90008   0.03845   0.19266   0.00000  Uiso   1.00
H188   H     0.76660   0.29488   0.30735   0.00000  Uiso   1.00
H189   H     0.72776   0.11412   0.20579   0.00000  Uiso   1.00
H190   H     0.93891   0.21920   0.29421   0.00000  Uiso   1.00
N191   N     0.71426   0.16668   0.25001   0.00000  Uiso   1.00
N192   N     0.95241   0.16666   0.24999   0.00000  Uiso   1.00
O193   O     0.79512   0.22775   0.25001   0.00000  Uiso   1.00
O194   O     0.87154   0.10558   0.25000   0.00000  Uiso   1.00
O195   O     0.87157   0.22774   0.25000   0.00000  Uiso   1.00
O196   O     0.79510   0.10559   0.25000   0.00000  Uiso   1.00
O197   O     0.77328   0.16667   0.31613   0.00000  Uiso   1.00
O198   O     0.89339   0.16666   0.18388   0.00000  Uiso   1.00
O199   O     0.84972   0.16666   0.31612   0.00000  Uiso   1.00
O200   O     0.81695   0.16667   0.18388   0.00000  Uiso   1.00
Zn201  Zn    0.78229   0.16667   0.25000   0.00000  Uiso   1.00
Zn202  Zn    0.88438   0.16666   0.25000   0.00000  Uiso   1.00
C203   C     0.70246   0.12033   0.05677   0.00000  Uiso   1.00
N204   N     0.99998   0.10492   0.07878   0.00000  Uiso   1.00
C205   C     0.96417   0.21327   0.44327   0.00000  Uiso   1.00
N206   N     0.66667   0.22864   0.42125   0.00000  Uiso   1.00
C207   C     0.79740   0.20215   0.11753   0.00000  Uiso   1.00
N208   N     0.76001   0.21775   0.13732   0.00000  Uiso   1.00
C209   C     0.86927   0.13143   0.38259   0.00000  Uiso   1.00
N210   N     0.90668   0.11585   0.36284   0.00000  Uiso   1.00
C211   C     0.91047   0.28983   0.18006   0.00000  Uiso   1.00
N212   N     0.94150   0.27236   0.15130   0.00000  Uiso   1.00
C213   C     0.75621   0.04350   0.31995   0.00000  Uiso   1.00
N214   N     0.72519   0.06097   0.34871   0.00000  Uiso   1.00
C215   C     0.97473   0.10254   0.19850   0.00000  Uiso   1.00
H216   H     0.67459   0.08691   0.17401   0.00000  Uiso   1.00
H217   H     0.95424   0.07830   0.22262   0.00000  Uiso   1.00
H218   H     0.95420   0.11470   0.17790   0.00000  Uiso   1.00
C219   C     0.69189   0.23071   0.30163   0.00000  Uiso   1.00
H220   H     0.99202   0.24631   0.32613   0.00000  Uiso   1.00
H221   H     0.71233   0.21849   0.32226   0.00000  Uiso   1.00
H222   H     0.71238   0.25499   0.27761   0.00000  Uiso   1.00
C223   C     0.16667   0.57983   0.24926   0.00000  Uiso   1.00
C224   C     0.16666   0.42017   0.25074   0.00000  Uiso   1.00
C225   C     0.11490   0.48012   0.04919   0.00000  Uiso   1.00
C226   C     0.21836   0.52021   0.45087   0.00000  Uiso   1.00
C227   C     0.08081   0.47239   0.02914   0.00000  Uiso   1.00
C228   C     0.25246   0.52792   0.47092   0.00000  Uiso   1.00
C229   C     0.20499   0.64498   0.21603   0.00000  Uiso   1.00
C230   C     0.12834   0.35502   0.28397   0.00000  Uiso   1.00
C231   C     0.20477   0.35473   0.21794   0.00000  Uiso   1.00
C232   C     0.12857   0.64527   0.28206   0.00000  Uiso   1.00
C233   C     0.16673   0.37601   0.25158   0.00000  Uiso   1.00
C234   C     0.16661   0.62399   0.24842   0.00000  Uiso   1.00
C235   C     0.32011   0.47042   0.22507   0.00000  Uiso   1.00
C236   C     0.01322   0.52956   0.27495   0.00000  Uiso   1.00
C237   C     0.03448   0.47081   0.22523   0.00000  Uiso   1.00
C238   C     0.29886   0.52919   0.27477   0.00000  Uiso   1.00
C239   C     0.13706   0.49676   0.33737   0.00000  Uiso   1.00
C240   C     0.19627   0.50327   0.16263   0.00000  Uiso   1.00
C241   C     0.12084   0.48856   0.38675   0.00000  Uiso   1.00
C242   C     0.21248   0.51157   0.11328   0.00000  Uiso   1.00
C243   C     0.05843   0.47613   0.46057   0.00000  Uiso   1.00
C244   C     0.27485   0.52412   0.03947   0.00000  Uiso   1.00
C245   C     0.07202   0.48358   0.41357   0.00000  Uiso   1.00
C246   C     0.26129   0.51658   0.08645   0.00000  Uiso   1.00
C247   C     0.15548   0.48426   0.40752   0.00000  Uiso   1.00
C248   C     0.17783   0.51596   0.09255   0.00000  Uiso   1.00
C249   C     0.14089   0.48939   0.45504   0.00000  Uiso   1.00
C250   C     0.19238   0.51091   0.04502   0.00000  Uiso   1.00
C251   C     0.09259   0.47976   0.48208   0.00000  Uiso   1.00
C252   C     0.24069   0.52054   0.01797   0.00000  Uiso   1.00
C253   C     0.17353   0.50193   0.47610   0.00000  Uiso   1.00
C254   C     0.15973   0.49840   0.02396   0.00000  Uiso   1.00
H255   H     0.28838   0.51670   0.10209   0.00000  Uiso   1.00
H256   H     0.04494   0.48344   0.39793   0.00000  Uiso   1.00
H257   H     0.02113   0.46907   0.48002   0.00000  Uiso   1.00
H258   H     0.31215   0.53120   0.02003   0.00000  Uiso   1.00
H259   H     0.10608   0.47137   0.08471   0.00000  Uiso   1.00
H260   H     0.22717   0.52896   0.41535   0.00000  Uiso   1.00
H261   H     0.23341   0.37178   0.19266   0.00000  Uiso   1.00
H262   H     0.09993   0.62822   0.30735   0.00000  Uiso   1.00
H263   H     0.06109   0.44746   0.20579   0.00000  Uiso   1.00
H264   H     0.27224   0.55254   0.29421   0.00000  Uiso   1.00
N265   N     0.04759   0.50001   0.25001   0.00000  Uiso   1.00
N266   N     0.28574   0.49999   0.24999   0.00000  Uiso   1.00
O267   O     0.12846   0.56108   0.25001   0.00000  Uiso   1.00
O268   O     0.20488   0.43892   0.25000   0.00000  Uiso   1.00
O269   O     0.20490   0.56107   0.25000   0.00000  Uiso   1.00
O270   O     0.12843   0.43893   0.25000   0.00000  Uiso   1.00
O271   O     0.10661   0.50001   0.31613   0.00000  Uiso   1.00
O272   O     0.22672   0.49999   0.18388   0.00000  Uiso   1.00
O273   O     0.18305   0.50000   0.31612   0.00000  Uiso   1.00
O274   O     0.15028   0.50000   0.18388   0.00000  Uiso   1.00
Zn275  Zn    0.11562   0.50001   0.25000   0.00000  Uiso   1.00
Zn276  Zn    0.21771   0.49999   0.25000   0.00000  Uiso   1.00
C277   C     0.03579   0.45366   0.05677   0.00000  Uiso   1.00
N278   N     0.33331   0.43825   0.07878   0.00000  Uiso   1.00
C279   C     0.29750   0.54660   0.44327   0.00000  Uiso   1.00
N280   N     0.00001   0.56198   0.42125   0.00000  Uiso   1.00
C281   C     0.13073   0.53548   0.11753   0.00000  Uiso   1.00
N282   N     0.09335   0.55108   0.13732   0.00000  Uiso   1.00
C283   C     0.20260   0.46477   0.38259   0.00000  Uiso   1.00
N284   N     0.24001   0.44919   0.36284   0.00000  Uiso   1.00
C285   C     0.24380   0.62317   0.18006   0.00000  Uiso   1.00
N286   N     0.27483   0.60570   0.15130   0.00000  Uiso   1.00
C287   C     0.08954   0.37683   0.31995   0.00000  Uiso   1.00
N288   N     0.05852   0.39430   0.34871   0.00000  Uiso   1.00
C289   C     0.30806   0.43588   0.19850   0.00000  Uiso   1.00
H290   H     0.00792   0.42024   0.17401   0.00000  Uiso   1.00
H291   H     0.28758   0.41163   0.22262   0.00000  Uiso   1.00
H292   H     0.28753   0.44804   0.17790   0.00000  Uiso   1.00
C293   C     0.02522   0.56404   0.30163   0.00000  Uiso   1.00
H294   H     0.32535   0.57965   0.32613   0.00000  Uiso   1.00
H295   H     0.04567   0.55182   0.32226   0.00000  Uiso   1.00
H296   H     0.04571   0.58833   0.27761   0.00000  Uiso   1.00
C297   C     0.50001   0.57983   0.24926   0.00000  Uiso   1.00
C298   C     0.49999   0.42017   0.25074   0.00000  Uiso   1.00
C299   C     0.44824   0.48012   0.04919   0.00000  Uiso   1.00
C300   C     0.55169   0.52021   0.45087   0.00000  Uiso   1.00
C301   C     0.41414   0.47239   0.02914   0.00000  Uiso   1.00
C302   C     0.58579   0.52792   0.47092   0.00000  Uiso   1.00
C303   C     0.53833   0.64498   0.21603   0.00000  Uiso   1.00
C304   C     0.46168   0.35502   0.28397   0.00000  Uiso   1.00
C305   C     0.53810   0.35473   0.21794   0.00000  Uiso   1.00
C306   C     0.46190   0.64527   0.28206   0.00000  Uiso   1.00
C307   C     0.50006   0.37601   0.25158   0.00000  Uiso   1.00
C308   C     0.49994   0.62399   0.24842   0.00000  Uiso   1.00
C309   C     0.65344   0.47042   0.22507   0.00000  Uiso   1.00
C310   C     0.34655   0.52956   0.27495   0.00000  Uiso   1.00
C311   C     0.36781   0.47081   0.22523   0.00000  Uiso   1.00
C312   C     0.63219   0.52919   0.27477   0.00000  Uiso   1.00
C313   C     0.47039   0.49676   0.33737   0.00000  Uiso   1.00
C314   C     0.52961   0.50327   0.16263   0.00000  Uiso   1.00
C315   C     0.45417   0.48856   0.38675   0.00000  Uiso   1.00
C316   C     0.54581   0.51157   0.11328   0.00000  Uiso   1.00
C317   C     0.39177   0.47613   0.46057   0.00000  Uiso   1.00
C318   C     0.60818   0.52412   0.03947   0.00000  Uiso   1.00
C319   C     0.40535   0.48358   0.41357   0.00000  Uiso   1.00
C320   C     0.59463   0.51658   0.08645   0.00000  Uiso   1.00
C321   C     0.48881   0.48426   0.40752   0.00000  Uiso   1.00
C322   C     0.51116   0.51596   0.09255   0.00000  Uiso   1.00
C323   C     0.47423   0.48939   0.45504   0.00000  Uiso   1.00
C324   C     0.52572   0.51091   0.04502   0.00000  Uiso   1.00
C325   C     0.42592   0.47976   0.48208   0.00000  Uiso   1.00
C326   C     0.57402   0.52054   0.01797   0.00000  Uiso   1.00
C327   C     0.50687   0.50193   0.47610   0.00000  Uiso   1.00
C328   C     0.49306   0.49840   0.02396   0.00000  Uiso   1.00
H329   H     0.62172   0.51670   0.10209   0.00000  Uiso   1.00
H330   H     0.37827   0.48344   0.39793   0.00000  Uiso   1.00
H331   H     0.35446   0.46907   0.48002   0.00000  Uiso   1.00
H332   H     0.64548   0.53120   0.02003   0.00000  Uiso   1.00
H333   H     0.43942   0.47137   0.08471   0.00000  Uiso   1.00
H334   H     0.56050   0.52896   0.41535   0.00000  Uiso   1.00
H335   H     0.56674   0.37178   0.19266   0.00000  Uiso   1.00
H336   H     0.43326   0.62822   0.30735   0.00000  Uiso   1.00
H337   H     0.39442   0.44746   0.20579   0.00000  Uiso   1.00
H338   H     0.60557   0.55254   0.29421   0.00000  Uiso   1.00
N339   N     0.38093   0.50001   0.25001   0.00000  Uiso   1.00
N340   N     0.61907   0.49999   0.24999   0.00000  Uiso   1.00
O341   O     0.46179   0.56108   0.25001   0.00000  Uiso   1.00
O342   O     0.53821   0.43892   0.25000   0.00000  Uiso   1.00
O343   O     0.53823   0.56107   0.25000   0.00000  Uiso   1.00
O344   O     0.46177   0.43893   0.25000   0.00000  Uiso   1.00
O345   O     0.43994   0.50001   0.31613   0.00000  Uiso   1.00
O346   O     0.56006   0.49999   0.18388   0.00000  Uiso   1.00
O347   O     0.51639   0.50000   0.31612   0.00000  Uiso   1.00
O348   O     0.48361   0.50000   0.18388   0.00000  Uiso   1.00
Zn349  Zn    0.44896   0.50001   0.25000   0.00000  Uiso   1.00
Zn350  Zn    0.55104   0.49999   0.25000   0.00000  Uiso   1.00
C351   C     0.36913   0.45366   0.05677   0.00000  Uiso   1.00
N352   N     0.66665   0.43825   0.07878   0.00000  Uiso   1.00
C353   C     0.63083   0.54660   0.44327   0.00000  Uiso   1.00
N354   N     0.33334   0.56198   0.42125   0.00000  Uiso   1.00
C355   C     0.46407   0.53548   0.11753   0.00000  Uiso   1.00
N356   N     0.42668   0.55108   0.13732   0.00000  Uiso   1.00
C357   C     0.53594   0.46477   0.38259   0.00000  Uiso   1.00
N358   N     0.57334   0.44919   0.36284   0.00000  Uiso   1.00
C359   C     0.57714   0.62317   0.18006   0.00000  Uiso   1.00
N360   N     0.60817   0.60570   0.15130   0.00000  Uiso   1.00
C361   C     0.42288   0.37683   0.31995   0.00000  Uiso   1.00
N362   N     0.39186   0.39430   0.34871   0.00000  Uiso   1.00
C363   C     0.64139   0.43588   0.19850   0.00000  Uiso   1.00
H364   H     0.34125   0.42024   0.17401   0.00000  Uiso   1.00
H365   H     0.62091   0.41163   0.22262   0.00000  Uiso   1.00
H366   H     0.62087   0.44804   0.17790   0.00000  Uiso   1.00
C367   C     0.35855   0.56404   0.30163   0.00000  Uiso   1.00
H368   H     0.65869   0.57965   0.32613   0.00000  Uiso   1.00
H369   H     0.37900   0.55182   0.32226   0.00000  Uiso   1.00
H370   H     0.37905   0.58833   0.27761   0.00000  Uiso   1.00
C371   C     0.83334   0.57983   0.24926   0.00000  Uiso   1.00
C372   C     0.83333   0.42017   0.25074   0.00000  Uiso   1.00
C373   C     0.78157   0.48012   0.04919   0.00000  Uiso   1.00
C374   C     0.88502   0.52021   0.45087   0.00000  Uiso   1.00
C375   C     0.74747   0.47239   0.02914   0.00000  Uiso   1.00
C376   C     0.91913   0.52792   0.47092   0.00000  Uiso   1.00
C377   C     0.87166   0.64498   0.21603   0.00000  Uiso   1.00
C378   C     0.79501   0.35502   0.28397   0.00000  Uiso   1.00
C379   C     0.87143   0.35473   0.21794   0.00000  Uiso   1.00
C380   C     0.79524   0.64527   0.28206   0.00000  Uiso   1.00
C381   C     0.83339   0.37601   0.25158   0.00000  Uiso   1.00
C382   C     0.83328   0.62399   0.24842   0.00000  Uiso   1.00
C383   C     0.98677   0.47042   0.22507   0.00000  Uiso   1.00
C384   C     0.67988   0.52956   0.27495   0.00000  Uiso   1.00
C385   C     0.70114   0.47081   0.22523   0.00000  Uiso   1.00
C386   C     0.96552   0.52919   0.27477   0.00000  Uiso   1.00
C387   C     0.80373   0.49676   0.33737   0.00000  Uiso   1.00
C388   C     0.86294   0.50327   0.16263   0.00000  Uiso   1.00
C389   C     0.78751   0.48856   0.38675   0.00000  Uiso   1.00
C390   C     0.87915   0.51157   0.11328   0.00000  Uiso   1.00
C391   C     0.72510   0.47613   0.46057   0.00000  Uiso   1.00
C392   C     0.94152   0.52412   0.03947   0.00000  Uiso   1.00
C393   C     0.73868   0.48358   0.41357   0.00000  Uiso   1.00
C394   C     0.92796   0.51658   0.08645   0.00000  Uiso   1.00
C395   C     0.82214   0.48426   0.40752   0.00000  Uiso   1.00
C396   C     0.84450   0.51596   0.09255   0.00000  Uiso   1.00
C397   C     0.80756   0.48939   0.45504   0.00000  Uiso   1.00
C398   C     0.85905   0.51091   0.04502   0.00000  Uiso   1.00
C399   C     0.75925   0.47976   0.48208   0.00000  Uiso   1.00
C400   C     0.90735   0.52054   0.01797   0.00000  Uiso   1.00
C401   C     0.84020   0.50193   0.47610   0.00000  Uiso   1.00
C402   C     0.82639   0.49840   0.02396   0.00000  Uiso   1.00
H403   H     0.95505   0.51670   0.10209   0.00000  Uiso   1.00
H404   H     0.71160   0.48344   0.39793   0.00000  Uiso   1.00
H405   H     0.68779   0.46907   0.48002   0.00000  Uiso   1.00
H406   H     0.97882   0.53120   0.02003   0.00000  Uiso   1.00
H407   H     0.77275   0.47137   0.08471   0.00000  Uiso   1.00
H408   H     0.89384   0.52896   0.41535   0.00000  Uiso   1.00
H409   H     0.90008   0.37178   0.19266   0.00000  Uiso   1.00
H410   H     0.76660   0.62822   0.30735   0.00000  Uiso   1.00
H411   H     0.72776   0.44746   0.20579   0.00000  Uiso   1.00
H412   H     0.93891   0.55254   0.29421   0.00000  Uiso   1.00
N413   N     0.71426   0.50001   0.25001   0.00000  Uiso   1.00
N414   N     0.95241   0.49999   0.24999   0.00000  Uiso   1.00
O415   O     0.79512   0.56108   0.25001   0.00000  Uiso   1.00
O416   O     0.87154   0.43892   0.25000   0.00000  Uiso   1.00
O417   O     0.87157   0.56107   0.25000   0.00000  Uiso   1.00
O418   O     0.79510   0.43893   0.25000   0.00000  Uiso   1.00
O419   O     0.77328   0.50001   0.31613   0.00000  Uiso   1.00
O420   O     0.89339   0.49999   0.18388   0.00000  Uiso   1.00
O421   O     0.84972   0.50000   0.31612   0.00000  Uiso   1.00
O422   O     0.81695   0.50000   0.18388   0.00000  Uiso   1.00
Zn423  Zn    0.78229   0.50001   0.25000   0.00000  Uiso   1.00
Zn424  Zn    0.88438   0.49999   0.25000   0.00000  Uiso   1.00
C425   C     0.70246   0.45366   0.05677   0.00000  Uiso   1.00
N426   N     0.99998   0.43825   0.07878   0.00000  Uiso   1.00
C427   C     0.96417   0.54660   0.44327   0.00000  Uiso   1.00
N428   N     0.66667   0.56198   0.42125   0.00000  Uiso   1.00
C429   C     0.79740   0.53548   0.11753   0.00000  Uiso   1.00
N430   N     0.76001   0.55108   0.13732   0.00000  Uiso   1.00
C431   C     0.86927   0.46477   0.38259   0.00000  Uiso   1.00
N432   N     0.90668   0.44919   0.36284   0.00000  Uiso   1.00
C433   C     0.91047   0.62317   0.18006   0.00000  Uiso   1.00
N434   N     0.94150   0.60570   0.15130   0.00000  Uiso   1.00
C435   C     0.75621   0.37683   0.31995   0.00000  Uiso   1.00
N436   N     0.72519   0.39430   0.34871   0.00000  Uiso   1.00
C437   C     0.97473   0.43588   0.19850   0.00000  Uiso   1.00
H438   H     0.67459   0.42024   0.17401   0.00000  Uiso   1.00
H439   H     0.95424   0.41163   0.22262   0.00000  Uiso   1.00
H440   H     0.95420   0.44804   0.17790   0.00000  Uiso   1.00
C441   C     0.69189   0.56404   0.30163   0.00000  Uiso   1.00
H442   H     0.99202   0.57965   0.32613   0.00000  Uiso   1.00
H443   H     0.71233   0.55182   0.32226   0.00000  Uiso   1.00
H444   H     0.71238   0.58833   0.27761   0.00000  Uiso   1.00
C445   C     0.16667   0.91317   0.24926   0.00000  Uiso   1.00
C446   C     0.16666   0.75350   0.25074   0.00000  Uiso   1.00
C447   C     0.11490   0.81345   0.04919   0.00000  Uiso   1.00
C448   C     0.21836   0.85355   0.45087   0.00000  Uiso   1.00
C449   C     0.08081   0.80572   0.02914   0.00000  Uiso   1.00
C450   C     0.25246   0.86126   0.47092   0.00000  Uiso   1.00
C451   C     0.20499   0.97831   0.21603   0.00000  Uiso   1.00
C452   C     0.12834   0.68835   0.28397   0.00000  Uiso   1.00
C453   C     0.20477   0.68806   0.21794   0.00000  Uiso   1.00
C454   C     0.12857   0.97861   0.28206   0.00000  Uiso   1.00
C455   C     0.16673   0.70934   0.25158   0.00000  Uiso   1.00
C456   C     0.16661   0.95733   0.24842   0.00000  Uiso   1.00
C457   C     0.32011   0.80376   0.22507   0.00000  Uiso   1.00
C458   C     0.01322   0.86289   0.27495   0.00000  Uiso   1.00
C459   C     0.03448   0.80414   0.22523   0.00000  Uiso   1.00
C460   C     0.29886   0.86253   0.27477   0.00000  Uiso   1.00
C461   C     0.13706   0.83010   0.33737   0.00000  Uiso   1.00
C462   C     0.19627   0.83660   0.16263   0.00000  Uiso   1.00
C463   C     0.12084   0.82189   0.38675   0.00000  Uiso   1.00
C464   C     0.21248   0.84490   0.11328   0.00000  Uiso   1.00
C465   C     0.05843   0.80946   0.46057   0.00000  Uiso   1.00
C466   C     0.27485   0.85745   0.03947   0.00000  Uiso   1.00
C467   C     0.07202   0.81692   0.41357   0.00000  Uiso   1.00
C468   C     0.26129   0.84992   0.08645   0.00000  Uiso   1.00
C469   C     0.15548   0.81760   0.40752   0.00000  Uiso   1.00
C470   C     0.17783   0.84929   0.09255   0.00000  Uiso   1.00
C471   C     0.14089   0.82272   0.45504   0.00000  Uiso   1.00
C472   C     0.19238   0.84425   0.04502   0.00000  Uiso   1.00
C473   C     0.09259   0.81309   0.48208   0.00000  Uiso   1.00
C474   C     0.24069   0.85387   0.01797   0.00000  Uiso   1.00
C475   C     0.17353   0.83526   0.47610   0.00000  Uiso   1.00
C476   C     0.15973   0.83173   0.02396   0.00000  Uiso   1.00
H477   H     0.28838   0.85004   0.10209   0.00000  Uiso   1.00
H478   H     0.04494   0.81677   0.39793   0.00000  Uiso   1.00
H479   H     0.02113   0.80240   0.48002   0.00000  Uiso   1.00
H480   H     0.31215   0.86453   0.02003   0.00000  Uiso   1.00
H481   H     0.10608   0.80470   0.08471   0.00000  Uiso   1.00
H482   H     0.22717   0.86229   0.41535   0.00000  Uiso   1.00
H483   H     0.23341   0.70512   0.19266   0.00000  Uiso   1.00
H484   H     0.09993   0.96155   0.30735   0.00000  Uiso   1.00
H485   H     0.06109   0.78079   0.20579   0.00000  Uiso   1.00
H486   H     0.27224   0.88587   0.29421   0.00000  Uiso   1.00
N487   N     0.04759   0.83334   0.25001   0.00000  Uiso   1.00
N488   N     0.28574   0.83332   0.24999   0.00000  Uiso   1.00
O489   O     0.12846   0.89442   0.25001   0.00000  Uiso   1.00
O490   O     0.20488   0.77225   0.25000   0.00000  Uiso   1.00
O491   O     0.20490   0.89441   0.25000   0.00000  Uiso   1.00
O492   O     0.12843   0.77226   0.25000   0.00000  Uiso   1.00
O493   O     0.10661   0.83334   0.31613   0.00000  Uiso   1.00
O494   O     0.22672   0.83333   0.18388   0.00000  Uiso   1.00
O495   O     0.18305   0.83333   0.31612   0.00000  Uiso   1.00
O496   O     0.15028   0.83334   0.18388   0.00000  Uiso   1.00
Zn497  Zn    0.11562   0.83334   0.25000   0.00000  Uiso   1.00
Zn498  Zn    0.21771   0.83333   0.25000   0.00000  Uiso   1.00
C499   C     0.03579   0.78700   0.05677   0.00000  Uiso   1.00
N500   N     0.33331   0.77158   0.07878   0.00000  Uiso   1.00
C501   C     0.29750   0.87994   0.44327   0.00000  Uiso   1.00
N502   N     0.00001   0.89531   0.42125   0.00000  Uiso   1.00
C503   C     0.13073   0.86881   0.11753   0.00000  Uiso   1.00
N504   N     0.09335   0.88441   0.13732   0.00000  Uiso   1.00
C505   C     0.20260   0.79810   0.38259   0.00000  Uiso   1.00
N506   N     0.24001   0.78252   0.36284   0.00000  Uiso   1.00
C507   C     0.24380   0.95650   0.18006   0.00000  Uiso   1.00
N508   N     0.27483   0.93903   0.15130   0.00000  Uiso   1.00
C509   C     0.08954   0.71016   0.31995   0.00000  Uiso   1.00
N510   N     0.05852   0.72763   0.34871   0.00000  Uiso   1.00
C511   C     0.30806   0.76921   0.19850   0.00000  Uiso   1.00
H512   H     0.00792   0.75358   0.17401   0.00000  Uiso   1.00
H513   H     0.28758   0.74497   0.22262   0.00000  Uiso   1.00
H514   H     0.28753   0.78137   0.17790   0.00000  Uiso   1.00
C515   C     0.02522   0.89738   0.30163   0.00000  Uiso   1.00
H516   H     0.32535   0.91298   0.32613   0.00000  Uiso   1.00
H517   H     0.04567   0.88516   0.32226   0.00000  Uiso   1.00
H518   H     0.04571   0.92166   0.27761   0.00000  Uiso   1.00
C519   C     0.50001   0.91317   0.24926   0.00000  Uiso   1.00
C520   C     0.49999   0.75350   0.25074   0.00000  Uiso   1.00
C521   C     0.44824   0.81345   0.04919   0.00000  Uiso   1.00
C522   C     0.55169   0.85355   0.45087   0.00000  Uiso   1.00
C523   C     0.41414   0.80572   0.02914   0.00000  Uiso   1.00
C524   C     0.58579   0.86126   0.47092   0.00000  Uiso   1.00
C525   C     0.53833   0.97831   0.21603   0.00000  Uiso   1.00
C526   C     0.46168   0.68835   0.28397   0.00000  Uiso   1.00
C527   C     0.53810   0.68806   0.21794   0.00000  Uiso   1.00
C528   C     0.46190   0.97861   0.28206   0.00000  Uiso   1.00
C529   C     0.50006   0.70934   0.25158   0.00000  Uiso   1.00
C530   C     0.49994   0.95733   0.24842   0.00000  Uiso   1.00
C531   C     0.65344   0.80376   0.22507   0.00000  Uiso   1.00
C532   C     0.34655   0.86289   0.27495   0.00000  Uiso   1.00
C533   C     0.36781   0.80414   0.22523   0.00000  Uiso   1.00
C534   C     0.63219   0.86253   0.27477   0.00000  Uiso   1.00
C535   C     0.47039   0.83010   0.33737   0.00000  Uiso   1.00
C536   C     0.52961   0.83660   0.16263   0.00000  Uiso   1.00
C537   C     0.45417   0.82189   0.38675   0.00000  Uiso   1.00
C538   C     0.54581   0.84490   0.11328   0.00000  Uiso   1.00
C539   C     0.39177   0.80946   0.46057   0.00000  Uiso   1.00
C540   C     0.60818   0.85745   0.03947   0.00000  Uiso   1.00
C541   C     0.40535   0.81692   0.41357   0.00000  Uiso   1.00
C542   C     0.59463   0.84992   0.08645   0.00000  Uiso   1.00
C543   C     0.48881   0.81760   0.40752   0.00000  Uiso   1.00
C544   C     0.51116   0.84929   0.09255   0.00000  Uiso   1.00
C545   C     0.47423   0.82272   0.45504   0.00000  Uiso   1.00
C546   C     0.52572   0.84425   0.04502   0.00000  Uiso   1.00
C547   C     0.42592   0.81309   0.48208   0.00000  Uiso   1.00
C548   C     0.57402   0.85387   0.01797   0.00000  Uiso   1.00
C549   C     0.50687   0.83526   0.47610   0.00000  Uiso   1.00
C550   C     0.49306   0.83173   0.02396   0.00000  Uiso   1.00
H551   H     0.62172   0.85004   0.10209   0.00000  Uiso   1.00
H552   H     0.37827   0.81677   0.39793   0.00000  Uiso   1.00
H553   H     0.35446   0.80240   0.48002   0.00000  Uiso   1.00
H554   H     0.64548   0.86453   0.02003   0.00000  Uiso   1.00
H555   H     0.43942   0.80470   0.08471   0.00000  Uiso   1.00
H556   H     0.56050   0.86229   0.41535   0.00000  Uiso   1.00
H557   H     0.56674   0.70512   0.19266   0.00000  Uiso   1.00
H558   H     0.43326   0.96155   0.30735   0.00000  Uiso   1.00
H559   H     0.39442   0.78079   0.20579   0.00000  Uiso   1.00
H560   H     0.60557   0.88587   0.29421   0.00000  Uiso   1.00
N561   N     0.38093   0.83334   0.25001   0.00000  Uiso   1.00
N562   N     0.61907   0.83332   0.24999   0.00000  Uiso   1.00
O563   O     0.46179   0.89442   0.25001   0.00000  Uiso   1.00
O564   O     0.53821   0.77225   0.25000   0.00000  Uiso   1.00
O565   O     0.53823   0.89441   0.25000   0.00000  Uiso   1.00
O566   O     0.46177   0.77226   0.25000   0.00000  Uiso   1.00
O567   O     0.43994   0.83334   0.31613   0.00000  Uiso   1.00
O568   O     0.56006   0.83333   0.18388   0.00000  Uiso   1.00
O569   O     0.51639   0.83333   0.31612   0.00000  Uiso   1.00
O570   O     0.48361   0.83334   0.18388   0.00000  Uiso   1.00
Zn571  Zn    0.44896   0.83334   0.25000   0.00000  Uiso   1.00
Zn572  Zn    0.55104   0.83333   0.25000   0.00000  Uiso   1.00
C573   C     0.36913   0.78700   0.05677   0.00000  Uiso   1.00
N574   N     0.66665   0.77158   0.07878   0.00000  Uiso   1.00
C575   C     0.63083   0.87994   0.44327   0.00000  Uiso   1.00
N576   N     0.33334   0.89531   0.42125   0.00000  Uiso   1.00
C577   C     0.46407   0.86881   0.11753   0.00000  Uiso   1.00
N578   N     0.42668   0.88441   0.13732   0.00000  Uiso   1.00
C579   C     0.53594   0.79810   0.38259   0.00000  Uiso   1.00
N580   N     0.57334   0.78252   0.36284   0.00000  Uiso   1.00
C581   C     0.57714   0.95650   0.18006   0.00000  Uiso   1.00
N582   N     0.60817   0.93903   0.15130   0.00000  Uiso   1.00
C583   C     0.42288   0.71016   0.31995   0.00000  Uiso   1.00
N584   N     0.39186   0.72763   0.34871   0.00000  Uiso   1.00
C585   C     0.64139   0.76921   0.19850   0.00000  Uiso   1.00
H586   H     0.34125   0.75358   0.17401   0.00000  Uiso   1.00
H587   H     0.62091   0.74497   0.22262   0.00000  Uiso   1.00
H588   H     0.62087   0.78137   0.17790   0.00000  Uiso   1.00
C589   C     0.35855   0.89738   0.30163   0.00000  Uiso   1.00
H590   H     0.65869   0.91298   0.32613   0.00000  Uiso   1.00
H591   H     0.37900   0.88516   0.32226   0.00000  Uiso   1.00
H592   H     0.37905   0.92166   0.27761   0.00000  Uiso   1.00
C593   C     0.83334   0.91317   0.24926   0.00000  Uiso   1.00
C594   C     0.83333   0.75350   0.25074   0.00000  Uiso   1.00
C595   C     0.78157   0.81345   0.04919   0.00000  Uiso   1.00
C596   C     0.88502   0.85355   0.45087   0.00000  Uiso   1.00
C597   C     0.74747   0.80572   0.02914   0.00000  Uiso   1.00
C598   C     0.91913   0.86126   0.47092   0.00000  Uiso   1.00
C599   C     0.87166   0.97831   0.21603   0.00000  Uiso   1.00
C600   C     0.79501   0.68835   0.28397   0.00000  Uiso   1.00
C601   C     0.87143   0.68806   0.21794   0.00000  Uiso   1.00
C602   C     0.79524   0.97861   0.28206   0.00000  Uiso   1.00
C603   C     0.83339   0.70934   0.25158   0.00000  Uiso   1.00
C604   C     0.83328   0.95733   0.24842   0.00000  Uiso   1.00
C605   C     0.98677   0.80376   0.22507   0.00000  Uiso   1.00
C606   C     0.67988   0.86289   0.27495   0.00000  Uiso   1.00
C607   C     0.70114   0.80414   0.22523   0.00000  Uiso   1.00
C608   C     0.96552   0.86253   0.27477   0.00000  Uiso   1.00
C609   C     0.80373   0.83010   0.33737   0.00000  Uiso   1.00
C610   C     0.86294   0.83660   0.16263   0.00000  Uiso   1.00
C611   C     0.78751   0.82189   0.38675   0.00000  Uiso   1.00
C612   C     0.87915   0.84490   0.11328   0.00000  Uiso   1.00
C613   C     0.72510   0.80946   0.46057   0.00000  Uiso   1.00
C614   C     0.94152   0.85745   0.03947   0.00000  Uiso   1.00
C615   C     0.73868   0.81692   0.41357   0.00000  Uiso   1.00
C616   C     0.92796   0.84992   0.08645   0.00000  Uiso   1.00
C617   C     0.82214   0.81760   0.40752   0.00000  Uiso   1.00
C618   C     0.84450   0.84929   0.09255   0.00000  Uiso   1.00
C619   C     0.80756   0.82272   0.45504   0.00000  Uiso   1.00
C620   C     0.85905   0.84425   0.04502   0.00000  Uiso   1.00
C621   C     0.75925   0.81309   0.48208   0.00000  Uiso   1.00
C622   C     0.90735   0.85387   0.01797   0.00000  Uiso   1.00
C623   C     0.84020   0.83526   0.47610   0.00000  Uiso   1.00
C624   C     0.82639   0.83173   0.02396   0.00000  Uiso   1.00
H625   H     0.95505   0.85004   0.10209   0.00000  Uiso   1.00
H626   H     0.71160   0.81677   0.39793   0.00000  Uiso   1.00
H627   H     0.68779   0.80240   0.48002   0.00000  Uiso   1.00
H628   H     0.97882   0.86453   0.02003   0.00000  Uiso   1.00
H629   H     0.77275   0.80470   0.08471   0.00000  Uiso   1.00
H630   H     0.89384   0.86229   0.41535   0.00000  Uiso   1.00
H631   H     0.90008   0.70512   0.19266   0.00000  Uiso   1.00
H632   H     0.76660   0.96155   0.30735   0.00000  Uiso   1.00
H633   H     0.72776   0.78079   0.20579   0.00000  Uiso   1.00
H634   H     0.93891   0.88587   0.29421   0.00000  Uiso   1.00
N635   N     0.71426   0.83334   0.25001   0.00000  Uiso   1.00
N636   N     0.95241   0.83332   0.24999   0.00000  Uiso   1.00
O637   O     0.79512   0.89442   0.25001   0.00000  Uiso   1.00
O638   O     0.87154   0.77225   0.25000   0.00000  Uiso   1.00
O639   O     0.87157   0.89441   0.25000   0.00000  Uiso   1.00
O640   O     0.79510   0.77226   0.25000   0.00000  Uiso   1.00
O641   O     0.77328   0.83334   0.31613   0.00000  Uiso   1.00
O642   O     0.89339   0.83333   0.18388   0.00000  Uiso   1.00
O643   O     0.84972   0.83333   0.31612   0.00000  Uiso   1.00
O644   O     0.81695   0.83334   0.18388   0.00000  Uiso   1.00
Zn645  Zn    0.78229   0.83334   0.25000   0.00000  Uiso   1.00
Zn646  Zn    0.88438   0.83333   0.25000   0.00000  Uiso   1.00
C647   C     0.70246   0.78700   0.05677   0.00000  Uiso   1.00
N648   N     0.99998   0.77158   0.07878   0.00000  Uiso   1.00
C649   C     0.96417   0.87994   0.44327   0.00000  Uiso   1.00
N650   N     0.66667   0.89531   0.42125   0.00000  Uiso   1.00
C651   C     0.79740   0.86881   0.11753   0.00000  Uiso   1.00
N652   N     0.76001   0.88441   0.13732   0.00000  Uiso   1.00
C653   C     0.86927   0.79810   0.38259   0.00000  Uiso   1.00
N654   N     0.90668   0.78252   0.36284   0.00000  Uiso   1.00
C655   C     0.91047   0.95650   0.18006   0.00000  Uiso   1.00
N656   N     0.94150   0.93903   0.15130   0.00000  Uiso   1.00
C657   C     0.75621   0.71016   0.31995   0.00000  Uiso   1.00
N658   N     0.72519   0.72763   0.34871   0.00000  Uiso   1.00
C659   C     0.97473   0.76921   0.19850   0.00000  Uiso   1.00
H660   H     0.67459   0.75358   0.17401   0.00000  Uiso   1.00
H661   H     0.95424   0.74497   0.22262   0.00000  Uiso   1.00
H662   H     0.95420   0.78137   0.17790   0.00000  Uiso   1.00
C663   C     0.69189   0.89738   0.30163   0.00000  Uiso   1.00
H664   H     0.99202   0.91298   0.32613   0.00000  Uiso   1.00
H665   H     0.71233   0.88516   0.32226   0.00000  Uiso   1.00
H666   H     0.71238   0.92166   0.27761   0.00000  Uiso   1.00
C667   C     0.16667   0.24650   0.74926   0.00000  Uiso   1.00
C668   C     0.16666   0.08683   0.75074   0.00000  Uiso   1.00
C669   C     0.11490   0.14678   0.54919   0.00000  Uiso   1.00
C670   C     0.21836   0.18688   0.95087   0.00000  Uiso   1.00
C671   C     0.08081   0.13906   0.52914   0.00000  Uiso   1.00
C672   C     0.25246   0.19459   0.97092   0.00000  Uiso   1.00
C673   C     0.20499   0.31165   0.71603   0.00000  Uiso   1.00
C674   C     0.12834   0.02169   0.78397   0.00000  Uiso   1.00
C675   C     0.20477   0.02139   0.71794   0.00000  Uiso   1.00
C676   C     0.12857   0.31194   0.78206   0.00000  Uiso   1.00
C677   C     0.16673   0.04267   0.75158   0.00000  Uiso   1.00
C678   C     0.16661   0.29066   0.74842   0.00000  Uiso   1.00
C679   C     0.32011   0.13709   0.72507   0.00000  Uiso   1.00
C680   C     0.01322   0.19623   0.77495   0.00000  Uiso   1.00
C681   C     0.03448   0.13747   0.72523   0.00000  Uiso   1.00
C682   C     0.29886   0.19586   0.77477   0.00000  Uiso   1.00
C683   C     0.13706   0.16343   0.83737   0.00000  Uiso   1.00
C684   C     0.19627   0.16993   0.66263   0.00000  Uiso   1.00
C685   C     0.12084   0.15523   0.88675   0.00000  Uiso   1.00
C686   C     0.21248   0.17824   0.61328   0.00000  Uiso   1.00
C687   C     0.05843   0.14280   0.96057   0.00000  Uiso   1.00
C688   C     0.27485   0.19079   0.53947   0.00000  Uiso   1.00
C689   C     0.07202   0.15025   0.91357   0.00000  Uiso   1.00
C690   C     0.26129   0.18325   0.58645   0.00000  Uiso   1.00
C691   C     0.15548   0.15093   0.90752   0.00000  Uiso   1.00
C692   C     0.17783   0.18263   0.59255   0.00000  Uiso   1.00
C693   C     0.14089   0.15605   0.95504   0.00000  Uiso   1.00
C694   C     0.19238   0.17758   0.54502   0.00000  Uiso   1.00
C695   C     0.09259   0.14642   0.98208   0.00000  Uiso   1.00
C696   C     0.24069   0.18720   0.51797   0.00000  Uiso   1.00
C697   C     0.17353   0.16859   0.97610   0.00000  Uiso   1.00
C698   C     0.15973   0.16507   0.52396   0.00000  Uiso   1.00
H699   H     0.28838   0.18337   0.60209   0.00000  Uiso   1.00
H700   H     0.04494   0.15011   0.89793   0.00000  Uiso   1.00
H701   H     0.02113   0.13573   0.98002   0.00000  Uiso   1.00
H702   H     0.31215   0.19786   0.52003   0.00000  Uiso   1.00
H703   H     0.10608   0.13804   0.58471   0.00000  Uiso   1.00
H704   H     0.22717   0.19562   0.91535   0.00000  Uiso   1.00
H705   H     0.23341   0.03845   0.69266   0.00000  Uiso   1.00
H706   H     0.09993   0.29488   0.80735   0.00000  Uiso   1.00
H707   H     0.06109   0.11412   0.70579   0.00000  Uiso   1.00
H708   H     0.27224   0.21920   0.79421   0.00000  Uiso   1.00
N709   N     0.04759   0.16668   0.75001   0.00000  Uiso   1.00
N710   N     0.28574   0.16666   0.74999   0.00000  Uiso   1.00
O711   O     0.12846   0.22775   0.75001   0.00000  Uiso   1.00
O712   O     0.20488   0.10558   0.75000   0.00000  Uiso   1.00
O713   O     0.20490   0.22774   0.75000   0.00000  Uiso   1.00
O714   O     0.12843   0.10559   0.75000   0.00000  Uiso   1.00
O715   O     0.10661   0.16667   0.81613   0.00000  Uiso   1.00
O716   O     0.22672   0.16666   0.68388   0.00000  Uiso   1.00
O717   O     0.18305   0.16666   0.81612   0.00000  Uiso   1.00
O718   O     0.15028   0.16667   0.68388   0.00000  Uiso   1.00
Zn719  Zn    0.11562   0.16667   0.75000   0.00000  Uiso   1.00
Zn720  Zn    0.21771   0.16666   0.75000   0.00000  Uiso   1.00
C721   C     0.03579   0.12033   0.55677   0.00000  Uiso   1.00
N722   N     0.33331   0.10492   0.57878   0.00000  Uiso   1.00
C723   C     0.29750   0.21327   0.94327   0.00000  Uiso   1.00
N724   N     0.00001   0.22864   0.92125   0.00000  Uiso   1.00
C725   C     0.13073   0.20215   0.61753   0.00000  Uiso   1.00
N726   N     0.09335   0.21775   0.63732   0.00000  Uiso   1.00
C727   C     0.20260   0.13143   0.88259   0.00000  Uiso   1.00
N728   N     0.24001   0.11585   0.86284   0.00000  Uiso   1.00
C729   C     0.24380   0.28983   0.68006   0.00000  Uiso   1.00
N730   N     0.27483   0.27236   0.65130   0.00000  Uiso   1.00
C731   C     0.08954   0.04350   0.81995   0.00000  Uiso   1.00
N732   N     0.05852   0.06097   0.84871   0.00000  Uiso   1.00
C733   C     0.30806   0.10254   0.69850   0.00000  Uiso   1.00
H734   H     0.00792   0.08691   0.67401   0.00000  Uiso   1.00
H735   H     0.28758   0.07830   0.72262   0.00000  Uiso   1.00
H736   H     0.28753   0.11470   0.67790   0.00000  Uiso   1.00
C737   C     0.02522   0.23071   0.80163   0.00000  Uiso   1.00
H738   H     0.32535   0.24631   0.82613   0.00000  Uiso   1.00
H739   H     0.04567   0.21849   0.82226   0.00000  Uiso   1.00
H740   H     0.04571   0.25499   0.77761   0.00000  Uiso   1.00
C741   C     0.50001   0.24650   0.74926   0.00000  Uiso   1.00
C742   C     0.49999   0.08683   0.75074   0.00000  Uiso   1.00
C743   C     0.44824   0.14678   0.54919   0.00000  Uiso   1.00
C744   C     0.55169   0.18688   0.95087   0.00000  Uiso   1.00
C745   C     0.41414   0.13906   0.52914   0.00000  Uiso   1.00
C746   C     0.58579   0.19459   0.97092   0.00000  Uiso   1.00
C747   C     0.53833   0.31165   0.71603   0.00000  Uiso   1.00
C748   C     0.46168   0.02169   0.78397   0.00000  Uiso   1.00
C749   C     0.53810   0.02139   0.71794   0.00000  Uiso   1.00
C750   C     0.46190   0.31194   0.78206   0.00000  Uiso   1.00
C751   C     0.50006   0.04267   0.75158   0.00000  Uiso   1.00
C752   C     0.49994   0.29066   0.74842   0.00000  Uiso   1.00
C753   C     0.65344   0.13709   0.72507   0.00000  Uiso   1.00
C754   C     0.34655   0.19623   0.77495   0.00000  Uiso   1.00
C755   C     0.36781   0.13747   0.72523   0.00000  Uiso   1.00
C756   C     0.63219   0.19586   0.77477   0.00000  Uiso   1.00
C757   C     0.47039   0.16343   0.83737   0.00000  Uiso   1.00
C758   C     0.52961   0.16993   0.66263   0.00000  Uiso   1.00
C759   C     0.45417   0.15523   0.88675   0.00000  Uiso   1.00
C760   C     0.54581   0.17824   0.61328   0.00000  Uiso   1.00
C761   C     0.39177   0.14280   0.96057   0.00000  Uiso   1.00
C762   C     0.60818   0.19079   0.53947   0.00000  Uiso   1.00
C763   C     0.40535   0.15025   0.91357   0.00000  Uiso   1.00
C764   C     0.59463   0.18325   0.58645   0.00000  Uiso   1.00
C765   C     0.48881   0.15093   0.90752   0.00000  Uiso   1.00
C766   C     0.51116   0.18263   0.59255   0.00000  Uiso   1.00
C767   C     0.47423   0.15605   0.95504   0.00000  Uiso   1.00
C768   C     0.52572   0.17758   0.54502   0.00000  Uiso   1.00
C769   C     0.42592   0.14642   0.98208   0.00000  Uiso   1.00
C770   C     0.57402   0.18720   0.51797   0.00000  Uiso   1.00
C771   C     0.50687   0.16859   0.97610   0.00000  Uiso   1.00
C772   C     0.49306   0.16507   0.52396   0.00000  Uiso   1.00
H773   H     0.62172   0.18337   0.60209   0.00000  Uiso   1.00
H774   H     0.37827   0.15011   0.89793   0.00000  Uiso   1.00
H775   H     0.35446   0.13573   0.98002   0.00000  Uiso   1.00
H776   H     0.64548   0.19786   0.52003   0.00000  Uiso   1.00
H777   H     0.43942   0.13804   0.58471   0.00000  Uiso   1.00
H778   H     0.56050   0.19562   0.91535   0.00000  Uiso   1.00
H779   H     0.56674   0.03845   0.69266   0.00000  Uiso   1.00
H780   H     0.43326   0.29488   0.80735   0.00000  Uiso   1.00
H781   H     0.39442   0.11412   0.70579   0.00000  Uiso   1.00
H782   H     0.60557   0.21920   0.79421   0.00000  Uiso   1.00
N783   N     0.38093   0.16668   0.75001   0.00000  Uiso   1.00
N784   N     0.61907   0.16666   0.74999   0.00000  Uiso   1.00
O785   O     0.46179   0.22775   0.75001   0.00000  Uiso   1.00
O786   O     0.53821   0.10558   0.75000   0.00000  Uiso   1.00
O787   O     0.53823   0.22774   0.75000   0.00000  Uiso   1.00
O788   O     0.46177   0.10559   0.75000   0.00000  Uiso   1.00
O789   O     0.43994   0.16667   0.81613   0.00000  Uiso   1.00
O790   O     0.56006   0.16666   0.68388   0.00000  Uiso   1.00
O791   O     0.51639   0.16666   0.81612   0.00000  Uiso   1.00
O792   O     0.48361   0.16667   0.68388   0.00000  Uiso   1.00
Zn793  Zn    0.44896   0.16667   0.75000   0.00000  Uiso   1.00
Zn794  Zn    0.55104   0.16666   0.75000   0.00000  Uiso   1.00
C795   C     0.36913   0.12033   0.55677   0.00000  Uiso   1.00
N796   N     0.66665   0.10492   0.57878   0.00000  Uiso   1.00
C797   C     0.63083   0.21327   0.94327   0.00000  Uiso   1.00
N798   N     0.33334   0.22864   0.92125   0.00000  Uiso   1.00
C799   C     0.46407   0.20215   0.61753   0.00000  Uiso   1.00
N800   N     0.42668   0.21775   0.63732   0.00000  Uiso   1.00
C801   C     0.53594   0.13143   0.88259   0.00000  Uiso   1.00
N802   N     0.57334   0.11585   0.86284   0.00000  Uiso   1.00
C803   C     0.57714   0.28983   0.68006   0.00000  Uiso   1.00
N804   N     0.60817   0.27236   0.65130   0.00000  Uiso   1.00
C805   C     0.42288   0.04350   0.81995   0.00000  Uiso   1.00
N806   N     0.39186   0.06097   0.84871   0.00000  Uiso   1.00
C807   C     0.64139   0.10254   0.69850   0.00000  Uiso   1.00
H808   H     0.34125   0.08691   0.67401   0.00000  Uiso   1.00
H809   H     0.62091   0.07830   0.72262   0.00000  Uiso   1.00
H810   H     0.62087   0.11470   0.67790   0.00000  Uiso   1.00
C811   C     0.35855   0.23071   0.80163   0.00000  Uiso   1.00
H812   H     0.65869   0.24631   0.82613   0.00000  Uiso   1.00
H813   H     0.37900   0.21849   0.82226   0.00000  Uiso   1.00
H814   H     0.37905   0.25499   0.77761   0.00000  Uiso   1.00
C815   C     0.83334   0.24650   0.74926   0.00000  Uiso   1.00
C816   C     0.83333   0.08683   0.75074   0.00000  Uiso   1.00
C817   C     0.78157   0.14678   0.54919   0.00000  Uiso   1.00
C818   C     0.88502   0.18688   0.95087   0.00000  Uiso   1.00
C819   C     0.74747   0.13906   0.52914   0.00000  Uiso   1.00
C820   C     0.91913   0.19459   0.97092   0.00000  Uiso   1.00
C821   C     0.87166   0.31165   0.71603   0.00000  Uiso   1.00
C822   C     0.79501   0.02169   0.78397   0.00000  Uiso   1.00
C823   C     0.87143   0.02139   0.71794   0.00000  Uiso   1.00
C824   C     0.79524   0.31194   0.78206   0.00000  Uiso   1.00
C825   C     0.83339   0.04267   0.75158   0.00000  Uiso   1.00
C826   C     0.83328   0.29066   0.74842   0.00000  Uiso   1.00
C827   C     0.98677   0.13709   0.72507   0.00000  Uiso   1.00
C828   C     0.67988   0.19623   0.77495   0.00000  Uiso   1.00
C829   C     0.70114   0.13747   0.72523   0.00000  Uiso   1.00
C830   C     0.96552   0.19586   0.77477   0.00000  Uiso   1.00
C831   C     0.80373   0.16343   0.83737   0.00000  Uiso   1.00
C832   C     0.86294   0.16993   0.66263   0.00000  Uiso   1.00
C833   C     0.78751   0.15523   0.88675   0.00000  Uiso   1.00
C834   C     0.87915   0.17824   0.61328   0.00000  Uiso   1.00
C835   C     0.72510   0.14280   0.96057   0.00000  Uiso   1.00
C836   C     0.94152   0.19079   0.53947   0.00000  Uiso   1.00
C837   C     0.73868   0.15025   0.91357   0.00000  Uiso   1.00
C838   C     0.92796   0.18325   0.58645   0.00000  Uiso   1.00
C839   C     0.82214   0.15093   0.90752   0.00000  Uiso   1.00
C840   C     0.84450   0.18263   0.59255   0.00000  Uiso   1.00
C841   C     0.80756   0.15605   0.95504   0.00000  Uiso   1.00
C842   C     0.85905   0.17758   0.54502   0.00000  Uiso   1.00
C843   C     0.75925   0.14642   0.98208   0.00000  Uiso   1.00
C844   C     0.90735   0.18720   0.51797   0.00000  Uiso   1.00
C845   C     0.84020   0.16859   0.97610   0.00000  Uiso   1.00
C846   C     0.82639   0.16507   0.52396   0.00000  Uiso   1.00
H847   H     0.95505   0.18337   0.60209   0.00000  Uiso   1.00
H848   H     0.71160   0.15011   0.89793   0.00000  Uiso   1.00
H849   H     0.68779   0.13573   0.98002   0.00000  Uiso   1.00
H850   H     0.97882   0.19786   0.52003   0.00000  Uiso   1.00
H851   H     0.77275   0.13804   0.58471   0.00000  Uiso   1.00
H852   H     0.89384   0.19562   0.91535   0.00000  Uiso   1.00
H853   H     0.90008   0.03845   0.69266   0.00000  Uiso   1.00
H854   H     0.76660   0.29488   0.80735   0.00000  Uiso   1.00
H855   H     0.72776   0.11412   0.70579   0.00000  Uiso   1.00
H856   H     0.93891   0.21920   0.79421   0.00000  Uiso   1.00
N857   N     0.71426   0.16668   0.75001   0.00000  Uiso   1.00
N858   N     0.95241   0.16666   0.74999   0.00000  Uiso   1.00
O859   O     0.79512   0.22775   0.75001   0.00000  Uiso   1.00
O860   O     0.87154   0.10558   0.75000   0.00000  Uiso   1.00
O861   O     0.87157   0.22774   0.75000   0.00000  Uiso   1.00
O862   O     0.79510   0.10559   0.75000   0.00000  Uiso   1.00
O863   O     0.77328   0.16667   0.81613   0.00000  Uiso   1.00
O864   O     0.89339   0.16666   0.68388   0.00000  Uiso   1.00
O865   O     0.84972   0.16666   0.81612   0.00000  Uiso   1.00
O866   O     0.81695   0.16667   0.68388   0.00000  Uiso   1.00
Zn867  Zn    0.78229   0.16667   0.75000   0.00000  Uiso   1.00
Zn868  Zn    0.88438   0.16666   0.75000   0.00000  Uiso   1.00
C869   C     0.70246   0.12033   0.55677   0.00000  Uiso   1.00
N870   N     0.99998   0.10492   0.57878   0.00000  Uiso   1.00
C871   C     0.96417   0.21327   0.94327   0.00000  Uiso   1.00
N872   N     0.66667   0.22864   0.92125   0.00000  Uiso   1.00
C873   C     0.79740   0.20215   0.61753   0.00000  Uiso   1.00
N874   N     0.76001   0.21775   0.63732   0.00000  Uiso   1.00
C875   C     0.86927   0.13143   0.88259   0.00000  Uiso   1.00
N876   N     0.90668   0.11585   0.86284   0.00000  Uiso   1.00
C877   C     0.91047   0.28983   0.68006   0.00000  Uiso   1.00
N878   N     0.94150   0.27236   0.65130   0.00000  Uiso   1.00
C879   C     0.75621   0.04350   0.81995   0.00000  Uiso   1.00
N880   N     0.72519   0.06097   0.84871   0.00000  Uiso   1.00
C881   C     0.97473   0.10254   0.69850   0.00000  Uiso   1.00
H882   H     0.67459   0.08691   0.67401   0.00000  Uiso   1.00
H883   H     0.95424   0.07830   0.72262   0.00000  Uiso   1.00
H884   H     0.95420   0.11470   0.67790   0.00000  Uiso   1.00
C885   C     0.69189   0.23071   0.80163   0.00000  Uiso   1.00
H886   H     0.99202   0.24631   0.82613   0.00000  Uiso   1.00
H887   H     0.71233   0.21849   0.82226   0.00000  Uiso   1.00
H888   H     0.71238   0.25499   0.77761   0.00000  Uiso   1.00
C889   C     0.16667   0.57983   0.74926   0.00000  Uiso   1.00
C890   C     0.16666   0.42017   0.75074   0.00000  Uiso   1.00
C891   C     0.11490   0.48012   0.54919   0.00000  Uiso   1.00
C892   C     0.21836   0.52021   0.95087   0.00000  Uiso   1.00
C893   C     0.08081   0.47239   0.52914   0.00000  Uiso   1.00
C894   C     0.25246   0.52792   0.97092   0.00000  Uiso   1.00
C895   C     0.20499   0.64498   0.71603   0.00000  Uiso   1.00
C896   C     0.12834   0.35502   0.78397   0.00000  Uiso   1.00
C897   C     0.20477   0.35473   0.71794   0.00000  Uiso   1.00
C898   C     0.12857   0.64527   0.78206   0.00000  Uiso   1.00
C899   C     0.16673   0.37601   0.75158   0.00000  Uiso   1.00
C900   C     0.16661   0.62399   0.74842   0.00000  Uiso   1.00
C901   C     0.32011   0.47042   0.72507   0.00000  Uiso   1.00
C902   C     0.01322   0.52956   0.77495   0.00000  Uiso   1.00
C903   C     0.03448   0.47081   0.72523   0.00000  Uiso   1.00
C904   C     0.29886   0.52919   0.77477   0.00000  Uiso   1.00
C905   C     0.13706   0.49676   0.83737   0.00000  Uiso   1.00
C906   C     0.19627   0.50327   0.66263   0.00000  Uiso   1.00
C907   C     0.12084   0.48856   0.88675   0.00000  Uiso   1.00
C908   C     0.21248   0.51157   0.61328   0.00000  Uiso   1.00
C909   C     0.05843   0.47613   0.96057   0.00000  Uiso   1.00
C910   C     0.27485   0.52412   0.53947   0.00000  Uiso   1.00
C911   C     0.07202   0.48358   0.91357   0.00000  Uiso   1.00
C912   C     0.26129   0.51658   0.58645   0.00000  Uiso   1.00
C913   C     0.15548   0.48426   0.90752   0.00000  Uiso   1.00
C914   C     0.17783   0.51596   0.59255   0.00000  Uiso   1.00
C915   C     0.14089   0.48939   0.95504   0.00000  Uiso   1.00
C916   C     0.19238   0.51091   0.54502   0.00000  Uiso   1.00
C917   C     0.09259   0.47976   0.98208   0.00000  Uiso   1.00
C918   C     0.24069   0.52054   0.51797   0.00000  Uiso   1.00
C919   C     0.17353   0.50193   0.97610   0.00000  Uiso   1.00
C920   C     0.15973   0.49840   0.52396   0.00000  Uiso   1.00
H921   H     0.28838   0.51670   0.60209   0.00000  Uiso   1.00
H922   H     0.04494   0.48344   0.89793   0.00000  Uiso   1.00
H923   H     0.02113   0.46907   0.98002   0.00000  Uiso   1.00
H924   H     0.31215   0.53120   0.52003   0.00000  Uiso   1.00
H925   H     0.10608   0.47137   0.58471   0.00000  Uiso   1.00
H926   H     0.22717   0.52896   0.91535   0.00000  Uiso   1.00
H927   H     0.23341   0.37178   0.69266   0.00000  Uiso   1.00
H928   H     0.09993   0.62822   0.80735   0.00000  Uiso   1.00
H929   H     0.06109   0.44746   0.70579   0.00000  Uiso   1.00
H930   H     0.27224   0.55254   0.79421   0.00000  Uiso   1.00
N931   N     0.04759   0.50001   0.75001   0.00000  Uiso   1.00
N932   N     0.28574   0.49999   0.74999   0.00000  Uiso   1.00
O933   O     0.12846   0.56108   0.75001   0.00000  Uiso   1.00
O934   O     0.20488   0.43892   0.75000   0.00000  Uiso   1.00
O935   O     0.20490   0.56107   0.75000   0.00000  Uiso   1.00
O936   O     0.12843   0.43893   0.75000   0.00000  Uiso   1.00
O937   O     0.10661   0.50001   0.81613   0.00000  Uiso   1.00
O938   O     0.22672   0.49999   0.68388   0.00000  Uiso   1.00
O939   O     0.18305   0.50000   0.81612   0.00000  Uiso   1.00
O940   O     0.15028   0.50000   0.68388   0.00000  Uiso   1.00
Zn941  Zn    0.11562   0.50001   0.75000   0.00000  Uiso   1.00
Zn942  Zn    0.21771   0.49999   0.75000   0.00000  Uiso   1.00
C943   C     0.03579   0.45366   0.55677   0.00000  Uiso   1.00
N944   N     0.33331   0.43825   0.57878   0.00000  Uiso   1.00
C945   C     0.29750   0.54660   0.94327   0.00000  Uiso   1.00
N946   N     0.00001   0.56198   0.92125   0.00000  Uiso   1.00
C947   C     0.13073   0.53548   0.61753   0.00000  Uiso   1.00
N948   N     0.09335   0.55108   0.63732   0.00000  Uiso   1.00
C949   C     0.20260   0.46477   0.88259   0.00000  Uiso   1.00
N950   N     0.24001   0.44919   0.86284   0.00000  Uiso   1.00
C951   C     0.24380   0.62317   0.68006   0.00000  Uiso   1.00
N952   N     0.27483   0.60570   0.65130   0.00000  Uiso   1.00
C953   C     0.08954   0.37683   0.81995   0.00000  Uiso   1.00
N954   N     0.05852   0.39430   0.84871   0.00000  Uiso   1.00
C955   C     0.30806   0.43588   0.69850   0.00000  Uiso   1.00
H956   H     0.00792   0.42024   0.67401   0.00000  Uiso   1.00
H957   H     0.28758   0.41163   0.72262   0.00000  Uiso   1.00
H958   H     0.28753   0.44804   0.67790   0.00000  Uiso   1.00
C959   C     0.02522   0.56404   0.80163   0.00000  Uiso   1.00
H960   H     0.32535   0.57965   0.82613   0.00000  Uiso   1.00
H961   H     0.04567   0.55182   0.82226   0.00000  Uiso   1.00
H962   H     0.04571   0.58833   0.77761   0.00000  Uiso   1.00
C963   C     0.50001   0.57983   0.74926   0.00000  Uiso   1.00
C964   C     0.49999   0.42017   0.75074   0.00000  Uiso   1.00
C965   C     0.44824   0.48012   0.54919   0.00000  Uiso   1.00
C966   C     0.55169   0.52021   0.95087   0.00000  Uiso   1.00
C967   C     0.41414   0.47239   0.52914   0.00000  Uiso   1.00
C968   C     0.58579   0.52792   0.97092   0.00000  Uiso   1.00
C969   C     0.53833   0.64498   0.71603   0.00000  Uiso   1.00
C970   C     0.46168   0.35502   0.78397   0.00000  Uiso   1.00
C971   C     0.53810   0.35473   0.71794   0.00000  Uiso   1.00
C972   C     0.46190   0.64527   0.78206   0.00000  Uiso   1.00
C973   C     0.50006   0.37601   0.75158   0.00000  Uiso   1.00
C974   C     0.49994   0.62399   0.74842   0.00000  Uiso   1.00
C975   C     0.65344   0.47042   0.72507   0.00000  Uiso   1.00
C976   C     0.34655   0.52956   0.77495   0.00000  Uiso   1.00
C977   C     0.36781   0.47081   0.72523   0.00000  Uiso   1.00
C978   C     0.63219   0.52919   0.77477   0.00000  Uiso   1.00
C979   C     0.47039   0.49676   0.83737   0.00000  Uiso   1.00
C980   C     0.52961   0.50327   0.66263   0.00000  Uiso   1.00
C981   C     0.45417   0.48856   0.88675   0.00000  Uiso   1.00
C982   C     0.54581   0.51157   0.61328   0.00000  Uiso   1.00
C983   C     0.39177   0.47613   0.96057   0.00000  Uiso   1.00
C984   C     0.60818   0.52412   0.53947   0.00000  Uiso   1.00
C985   C     0.40535   0.48358   0.91357   0.00000  Uiso   1.00
C986   C     0.59463   0.51658   0.58645   0.00000  Uiso   1.00
C987   C     0.48881   0.48426   0.90752   0.00000  Uiso   1.00
C988   C     0.51116   0.51596   0.59255   0.00000  Uiso   1.00
C989   C     0.47423   0.48939   0.95504   0.00000  Uiso   1.00
C990   C     0.52572   0.51091   0.54502   0.00000  Uiso   1.00
C991   C     0.42592   0.47976   0.98208   0.00000  Uiso   1.00
C992   C     0.57402   0.52054   0.51797   0.00000  Uiso   1.00
C993   C     0.50687   0.50193   0.97610   0.00000  Uiso   1.00
C994   C     0.49306   0.49840   0.52396   0.00000  Uiso   1.00
H995   H     0.62172   0.51670   0.60209   0.00000  Uiso   1.00
H996   H     0.37827   0.48344   0.89793   0.00000  Uiso   1.00
H997   H     0.35446   0.46907   0.98002   0.00000  Uiso   1.00
H998   H     0.64548   0.53120   0.52003   0.00000  Uiso   1.00
H999   H     0.43942   0.47137   0.58471   0.00000  Uiso   1.00
H1000  H     0.56050   0.52896   0.91535   0.00000  Uiso   1.00
H1001  H     0.56674   0.37178   0.69266   0.00000  Uiso   1.00
H1002  H     0.43326   0.62822   0.80735   0.00000  Uiso   1.00
H1003  H     0.39442   0.44746   0.70579   0.00000  Uiso   1.00
H1004  H     0.60557   0.55254   0.79421   0.00000  Uiso   1.00
N1005  N     0.38093   0.50001   0.75001   0.00000  Uiso   1.00
N1006  N     0.61907   0.49999   0.74999   0.00000  Uiso   1.00
O1007  O     0.46179   0.56108   0.75001   0.00000  Uiso   1.00
O1008  O     0.53821   0.43892   0.75000   0.00000  Uiso   1.00
O1009  O     0.53823   0.56107   0.75000   0.00000  Uiso   1.00
O1010  O     0.46177   0.43893   0.75000   0.00000  Uiso   1.00
O1011  O     0.43994   0.50001   0.81613   0.00000  Uiso   1.00
O1012  O     0.56006   0.49999   0.68388   0.00000  Uiso   1.00
O1013  O     0.51639   0.50000   0.81612   0.00000  Uiso   1.00
O1014  O     0.48361   0.50000   0.68388   0.00000  Uiso   1.00
Zn1015 Zn    0.44896   0.50001   0.75000   0.00000  Uiso   1.00
Zn1016 Zn    0.55104   0.49999   0.75000   0.00000  Uiso   1.00
C1017  C     0.36913   0.45366   0.55677   0.00000  Uiso   1.00
N1018  N     0.66665   0.43825   0.57878   0.00000  Uiso   1.00
C1019  C     0.63083   0.54660   0.94327   0.00000  Uiso   1.00
N1020  N     0.33334   0.56198   0.92125   0.00000  Uiso   1.00
C1021  C     0.46407   0.53548   0.61753   0.00000  Uiso   1.00
N1022  N     0.42668   0.55108   0.63732   0.00000  Uiso   1.00
C1023  C     0.53594   0.46477   0.88259   0.00000  Uiso   1.00
N1024  N     0.57334   0.44919   0.86284   0.00000  Uiso   1.00
C1025  C     0.57714   0.62317   0.68006   0.00000  Uiso   1.00
N1026  N     0.60817   0.60570   0.65130   0.00000  Uiso   1.00
C1027  C     0.42288   0.37683   0.81995   0.00000  Uiso   1.00
N1028  N     0.39186   0.39430   0.84871   0.00000  Uiso   1.00
C1029  C     0.64139   0.43588   0.69850   0.00000  Uiso   1.00
H1030  H     0.34125   0.42024   0.67401   0.00000  Uiso   1.00
H1031  H     0.62091   0.41163   0.72262   0.00000  Uiso   1.00
H1032  H     0.62087   0.44804   0.67790   0.00000  Uiso   1.00
C1033  C     0.35855   0.56404   0.80163   0.00000  Uiso   1.00
H1034  H     0.65869   0.57965   0.82613   0.00000  Uiso   1.00
H1035  H     0.37900   0.55182   0.82226   0.00000  Uiso   1.00
H1036  H     0.37905   0.58833   0.77761   0.00000  Uiso   1.00
C1037  C     0.83334   0.57983   0.74926   0.00000  Uiso   1.00
C1038  C     0.83333   0.42017   0.75074   0.00000  Uiso   1.00
C1039  C     0.78157   0.48012   0.54919   0.00000  Uiso   1.00
C1040  C     0.88502   0.52021   0.95087   0.00000  Uiso   1.00
C1041  C     0.74747   0.47239   0.52914   0.00000  Uiso   1.00
C1042  C     0.91913   0.52792   0.97092   0.00000  Uiso   1.00
C1043  C     0.87166   0.64498   0.71603   0.00000  Uiso   1.00
C1044  C     0.79501   0.35502   0.78397   0.00000  Uiso   1.00
C1045  C     0.87143   0.35473   0.71794   0.00000  Uiso   1.00
C1046  C     0.79524   0.64527   0.78206   0.00000  Uiso   1.00
C1047  C     0.83339   0.37601   0.75158   0.00000  Uiso   1.00
C1048  C     0.83328   0.62399   0.74842   0.00000  Uiso   1.00
C1049  C     0.98677   0.47042   0.72507   0.00000  Uiso   1.00
C1050  C     0.67988   0.52956   0.77495   0.00000  Uiso   1.00
C1051  C     0.70114   0.47081   0.72523   0.00000  Uiso   1.00
C1052  C     0.96552   0.52919   0.77477   0.00000  Uiso   1.00
C1053  C     0.80373   0.49676   0.83737   0.00000  Uiso   1.00
C1054  C     0.86294   0.50327   0.66263   0.00000  Uiso   1.00
C1055  C     0.78751   0.48856   0.88675   0.00000  Uiso   1.00
C1056  C     0.87915   0.51157   0.61328   0.00000  Uiso   1.00
C1057  C     0.72510   0.47613   0.96057   0.00000  Uiso   1.00
C1058  C     0.94152   0.52412   0.53947   0.00000  Uiso   1.00
C1059  C     0.73868   0.48358   0.91357   0.00000  Uiso   1.00
C1060  C     0.92796   0.51658   0.58645   0.00000  Uiso   1.00
C1061  C     0.82214   0.48426   0.90752   0.00000  Uiso   1.00
C1062  C     0.84450   0.51596   0.59255   0.00000  Uiso   1.00
C1063  C     0.80756   0.48939   0.95504   0.00000  Uiso   1.00
C1064  C     0.85905   0.51091   0.54502   0.00000  Uiso   1.00
C1065  C     0.75925   0.47976   0.98208   0.00000  Uiso   1.00
C1066  C     0.90735   0.52054   0.51797   0.00000  Uiso   1.00
C1067  C     0.84020   0.50193   0.97610   0.00000  Uiso   1.00
C1068  C     0.82639   0.49840   0.52396   0.00000  Uiso   1.00
H1069  H     0.95505   0.51670   0.60209   0.00000  Uiso   1.00
H1070  H     0.71160   0.48344   0.89793   0.00000  Uiso   1.00
H1071  H     0.68779   0.46907   0.98002   0.00000  Uiso   1.00
H1072  H     0.97882   0.53120   0.52003   0.00000  Uiso   1.00
H1073  H     0.77275   0.47137   0.58471   0.00000  Uiso   1.00
H1074  H     0.89384   0.52896   0.91535   0.00000  Uiso   1.00
H1075  H     0.90008   0.37178   0.69266   0.00000  Uiso   1.00
H1076  H     0.76660   0.62822   0.80735   0.00000  Uiso   1.00
H1077  H     0.72776   0.44746   0.70579   0.00000  Uiso   1.00
H1078  H     0.93891   0.55254   0.79421   0.00000  Uiso   1.00
N1079  N     0.71426   0.50001   0.75001   0.00000  Uiso   1.00
N1080  N     0.95241   0.49999   0.74999   0.00000  Uiso   1.00
O1081  O     0.79512   0.56108   0.75001   0.00000  Uiso   1.00
O1082  O     0.87154   0.43892   0.75000   0.00000  Uiso   1.00
O1083  O     0.87157   0.56107   0.75000   0.00000  Uiso   1.00
O1084  O     0.79510   0.43893   0.75000   0.00000  Uiso   1.00
O1085  O     0.77328   0.50001   0.81613   0.00000  Uiso   1.00
O1086  O     0.89339   0.49999   0.68388   0.00000  Uiso   1.00
O1087  O     0.84972   0.50000   0.81612   0.00000  Uiso   1.00
O1088  O     0.81695   0.50000   0.68388   0.00000  Uiso   1.00
Zn1089 Zn    0.78229   0.50001   0.75000   0.00000  Uiso   1.00
Zn1090 Zn    0.88438   0.49999   0.75000   0.00000  Uiso   1.00
C1091  C     0.70246   0.45366   0.55677   0.00000  Uiso   1.00
N1092  N     0.99998   0.43825   0.57878   0.00000  Uiso   1.00
C1093  C     0.96417   0.54660   0.94327   0.00000  Uiso   1.00
N1094  N     0.66667   0.56198   0.92125   0.00000  Uiso   1.00
C1095  C     0.79740   0.53548   0.61753   0.00000  Uiso   1.00
N1096  N     0.76001   0.55108   0.63732   0.00000  Uiso   1.00
C1097  C     0.86927   0.46477   0.88259   0.00000  Uiso   1.00
N1098  N     0.90668   0.44919   0.86284   0.00000  Uiso   1.00
C1099  C     0.91047   0.62317   0.68006   0.00000  Uiso   1.00
N1100  N     0.94150   0.60570   0.65130   0.00000  Uiso   1.00
C1101  C     0.75621   0.37683   0.81995   0.00000  Uiso   1.00
N1102  N     0.72519   0.39430   0.84871   0.00000  Uiso   1.00
C1103  C     0.97473   0.43588   0.69850   0.00000  Uiso   1.00
H1104  H     0.67459   0.42024   0.67401   0.00000  Uiso   1.00
H1105  H     0.95424   0.41163   0.72262   0.00000  Uiso   1.00
H1106  H     0.95420   0.44804   0.67790   0.00000  Uiso   1.00
C1107  C     0.69189   0.56404   0.80163   0.00000  Uiso   1.00
H1108  H     0.99202   0.57965   0.82613   0.00000  Uiso   1.00
H1109  H     0.71233   0.55182   0.82226   0.00000  Uiso   1.00
H1110  H     0.71238   0.58833   0.77761   0.00000  Uiso   1.00
C1111  C     0.16667   0.91317   0.74926   0.00000  Uiso   1.00
C1112  C     0.16666   0.75350   0.75074   0.00000  Uiso   1.00
C1113  C     0.11490   0.81345   0.54919   0.00000  Uiso   1.00
C1114  C     0.21836   0.85355   0.95087   0.00000  Uiso   1.00
C1115  C     0.08081   0.80572   0.52914   0.00000  Uiso   1.00
C1116  C     0.25246   0.86126   0.97092   0.00000  Uiso   1.00
C1117  C     0.20499   0.97831   0.71603   0.00000  Uiso   1.00
C1118  C     0.12834   0.68835   0.78397   0.00000  Uiso   1.00
C1119  C     0.20477   0.68806   0.71794   0.00000  Uiso   1.00
C1120  C     0.12857   0.97861   0.78206   0.00000  Uiso   1.00
C1121  C     0.16673   0.70934   0.75158   0.00000  Uiso   1.00
C1122  C     0.16661   0.95733   0.74842   0.00000  Uiso   1.00
C1123  C     0.32011   0.80376   0.72507   0.00000  Uiso   1.00
C1124  C     0.01322   0.86289   0.77495   0.00000  Uiso   1.00
C1125  C     0.03448   0.80414   0.72523   0.00000  Uiso   1.00
C1126  C     0.29886   0.86253   0.77477   0.00000  Uiso   1.00
C1127  C     0.13706   0.83010   0.83737   0.00000  Uiso   1.00
C1128  C     0.19627   0.83660   0.66263   0.00000  Uiso   1.00
C1129  C     0.12084   0.82189   0.88675   0.00000  Uiso   1.00
C1130  C     0.21248   0.84490   0.61328   0.00000  Uiso   1.00
C1131  C     0.05843   0.80946   0.96057   0.00000  Uiso   1.00
C1132  C     0.27485   0.85745   0.53947   0.00000  Uiso   1.00
C1133  C     0.07202   0.81692   0.91357   0.00000  Uiso   1.00
C1134  C     0.26129   0.84992   0.58645   0.00000  Uiso   1.00
C1135  C     0.15548   0.81760   0.90752   0.00000  Uiso   1.00
C1136  C     0.17783   0.84929   0.59255   0.00000  Uiso   1.00
C1137  C     0.14089   0.82272   0.95504   0.00000  Uiso   1.00
C1138  C     0.19238   0.84425   0.54502   0.00000  Uiso   1.00
C1139  C     0.09259   0.81309   0.98208   0.00000  Uiso   1.00
C1140  C     0.24069   0.85387   0.51797   0.00000  Uiso   1.00
C1141  C     0.17353   0.83526   0.97610   0.00000  Uiso   1.00
C1142  C     0.15973   0.83173   0.52396   0.00000  Uiso   1.00
H1143  H     0.28838   0.85004   0.60209   0.00000  Uiso   1.00
H1144  H     0.04494   0.81677   0.89793   0.00000  Uiso   1.00
H1145  H     0.02113   0.80240   0.98002   0.00000  Uiso   1.00
H1146  H     0.31215   0.86453   0.52003   0.00000  Uiso   1.00
H1147  H     0.10608   0.80470   0.58471   0.00000  Uiso   1.00
H1148  H     0.22717   0.86229   0.91535   0.00000  Uiso   1.00
H1149  H     0.23341   0.70512   0.69266   0.00000  Uiso   1.00
H1150  H     0.09993   0.96155   0.80735   0.00000  Uiso   1.00
H1151  H     0.06109   0.78079   0.70579   0.00000  Uiso   1.00
H1152  H     0.27224   0.88587   0.79421   0.00000  Uiso   1.00
N1153  N     0.04759   0.83334   0.75001   0.00000  Uiso   1.00
N1154  N     0.28574   0.83332   0.74999   0.00000  Uiso   1.00
O1155  O     0.12846   0.89442   0.75001   0.00000  Uiso   1.00
O1156  O     0.20488   0.77225   0.75000   0.00000  Uiso   1.00
O1157  O     0.20490   0.89441   0.75000   0.00000  Uiso   1.00
O1158  O     0.12843   0.77226   0.75000   0.00000  Uiso   1.00
O1159  O     0.10661   0.83334   0.81613   0.00000  Uiso   1.00
O1160  O     0.22672   0.83333   0.68388   0.00000  Uiso   1.00
O1161  O     0.18305   0.83333   0.81612   0.00000  Uiso   1.00
O1162  O     0.15028   0.83334   0.68388   0.00000  Uiso   1.00
Zn1163 Zn    0.11562   0.83334   0.75000   0.00000  Uiso   1.00
Zn1164 Zn    0.21771   0.83333   0.75000   0.00000  Uiso   1.00
C1165  C     0.03579   0.78700   0.55677   0.00000  Uiso   1.00
N1166  N     0.33331   0.77158   0.57878   0.00000  Uiso   1.00
C1167  C     0.29750   0.87994   0.94327   0.00000  Uiso   1.00
N1168  N     0.00001   0.89531   0.92125   0.00000  Uiso   1.00
C1169  C     0.13073   0.86881   0.61753   0.00000  Uiso   1.00
N1170  N     0.09335   0.88441   0.63732   0.00000  Uiso   1.00
C1171  C     0.20260   0.79810   0.88259   0.00000  Uiso   1.00
N1172  N     0.24001   0.78252   0.86284   0.00000  Uiso   1.00
C1173  C     0.24380   0.95650   0.68006   0.00000  Uiso   1.00
N1174  N     0.27483   0.93903   0.65130   0.00000  Uiso   1.00
C1175  C     0.08954   0.71016   0.81995   0.00000  Uiso   1.00
N1176  N     0.05852   0.72763   0.84871   0.00000  Uiso   1.00
C1177  C     0.30806   0.76921   0.69850   0.00000  Uiso   1.00
H1178  H     0.00792   0.75358   0.67401   0.00000  Uiso   1.00
H1179  H     0.28758   0.74497   0.72262   0.00000  Uiso   1.00
H1180  H     0.28753   0.78137   0.67790   0.00000  Uiso   1.00
C1181  C     0.02522   0.89738   0.80163   0.00000  Uiso   1.00
H1182  H     0.32535   0.91298   0.82613   0.00000  Uiso   1.00
H1183  H     0.04567   0.88516   0.82226   0.00000  Uiso   1.00
H1184  H     0.04571   0.92166   0.77761   0.00000  Uiso   1.00
C1185  C     0.50001   0.91317   0.74926   0.00000  Uiso   1.00
C1186  C     0.49999   0.75350   0.75074   0.00000  Uiso   1.00
C1187  C     0.44824   0.81345   0.54919   0.00000  Uiso   1.00
C1188  C     0.55169   0.85355   0.95087   0.00000  Uiso   1.00
C1189  C     0.41414   0.80572   0.52914   0.00000  Uiso   1.00
C1190  C     0.58579   0.86126   0.97092   0.00000  Uiso   1.00
C1191  C     0.53833   0.97831   0.71603   0.00000  Uiso   1.00
C1192  C     0.46168   0.68835   0.78397   0.00000  Uiso   1.00
C1193  C     0.53810   0.68806   0.71794   0.00000  Uiso   1.00
C1194  C     0.46190   0.97861   0.78206   0.00000  Uiso   1.00
C1195  C     0.50006   0.70934   0.75158   0.00000  Uiso   1.00
C1196  C     0.49994   0.95733   0.74842   0.00000  Uiso   1.00
C1197  C     0.65344   0.80376   0.72507   0.00000  Uiso   1.00
C1198  C     0.34655   0.86289   0.77495   0.00000  Uiso   1.00
C1199  C     0.36781   0.80414   0.72523   0.00000  Uiso   1.00
C1200  C     0.63219   0.86253   0.77477   0.00000  Uiso   1.00
C1201  C     0.47039   0.83010   0.83737   0.00000  Uiso   1.00
C1202  C     0.52961   0.83660   0.66263   0.00000  Uiso   1.00
C1203  C     0.45417   0.82189   0.88675   0.00000  Uiso   1.00
C1204  C     0.54581   0.84490   0.61328   0.00000  Uiso   1.00
C1205  C     0.39177   0.80946   0.96057   0.00000  Uiso   1.00
C1206  C     0.60818   0.85745   0.53947   0.00000  Uiso   1.00
C1207  C     0.40535   0.81692   0.91357   0.00000  Uiso   1.00
C1208  C     0.59463   0.84992   0.58645   0.00000  Uiso   1.00
C1209  C     0.48881   0.81760   0.90752   0.00000  Uiso   1.00
C1210  C     0.51116   0.84929   0.59255   0.00000  Uiso   1.00
C1211  C     0.47423   0.82272   0.95504   0.00000  Uiso   1.00
C1212  C     0.52572   0.84425   0.54502   0.00000  Uiso   1.00
C1213  C     0.42592   0.81309   0.98208   0.00000  Uiso   1.00
C1214  C     0.57402   0.85387   0.51797   0.00000  Uiso   1.00
C1215  C     0.50687   0.83526   0.97610   0.00000  Uiso   1.00
C1216  C     0.49306   0.83173   0.52396   0.00000  Uiso   1.00
H1217  H     0.62172   0.85004   0.60209   0.00000  Uiso   1.00
H1218  H     0.37827   0.81677   0.89793   0.00000  Uiso   1.00
H1219  H     0.35446   0.80240   0.98002   0.00000  Uiso   1.00
H1220  H     0.64548   0.86453   0.52003   0.00000  Uiso   1.00
H1221  H     0.43942   0.80470   0.58471   0.00000  Uiso   1.00
H1222  H     0.56050   0.86229   0.91535   0.00000  Uiso   1.00
H1223  H     0.56674   0.70512   0.69266   0.00000  Uiso   1.00
H1224  H     0.43326   0.96155   0.80735   0.00000  Uiso   1.00
H1225  H     0.39442   0.78079   0.70579   0.00000  Uiso   1.00
H1226  H     0.60557   0.88587   0.79421   0.00000  Uiso   1.00
N1227  N     0.38093   0.83334   0.75001   0.00000  Uiso   1.00
N1228  N     0.61907   0.83332   0.74999   0.00000  Uiso   1.00
O1229  O     0.46179   0.89442   0.75001   0.00000  Uiso   1.00
O1230  O     0.53821   0.77225   0.75000   0.00000  Uiso   1.00
O1231  O     0.53823   0.89441   0.75000   0.00000  Uiso   1.00
O1232  O     0.46177   0.77226   0.75000   0.00000  Uiso   1.00
O1233  O     0.43994   0.83334   0.81613   0.00000  Uiso   1.00
O1234  O     0.56006   0.83333   0.68388   0.00000  Uiso   1.00
O1235  O     0.51639   0.83333   0.81612   0.00000  Uiso   1.00
O1236  O     0.48361   0.83334   0.68388   0.00000  Uiso   1.00
Zn1237 Zn    0.44896   0.83334   0.75000   0.00000  Uiso   1.00
Zn1238 Zn    0.55104   0.83333   0.75000   0.00000  Uiso   1.00
C1239  C     0.36913   0.78700   0.55677   0.00000  Uiso   1.00
N1240  N     0.66665   0.77158   0.57878   0.00000  Uiso   1.00
C1241  C     0.63083   0.87994   0.94327   0.00000  Uiso   1.00
N1242  N     0.33334   0.89531   0.92125   0.00000  Uiso   1.00
C1243  C     0.46407   0.86881   0.61753   0.00000  Uiso   1.00
N1244  N     0.42668   0.88441   0.63732   0.00000  Uiso   1.00
C1245  C     0.53594   0.79810   0.88259   0.00000  Uiso   1.00
N1246  N     0.57334   0.78252   0.86284   0.00000  Uiso   1.00
C1247  C     0.57714   0.95650   0.68006   0.00000  Uiso   1.00
N1248  N     0.60817   0.93903   0.65130   0.00000  Uiso   1.00
C1249  C     0.42288   0.71016   0.81995   0.00000  Uiso   1.00
N1250  N     0.39186   0.72763   0.84871   0.00000  Uiso   1.00
C1251  C     0.64139   0.76921   0.69850   0.00000  Uiso   1.00
H1252  H     0.34125   0.75358   0.67401   0.00000  Uiso   1.00
H1253  H     0.62091   0.74497   0.72262   0.00000  Uiso   1.00
H1254  H     0.62087   0.78137   0.67790   0.00000  Uiso   1.00
C1255  C     0.35855   0.89738   0.80163   0.00000  Uiso   1.00
H1256  H     0.65869   0.91298   0.82613   0.00000  Uiso   1.00
H1257  H     0.37900   0.88516   0.82226   0.00000  Uiso   1.00
H1258  H     0.37905   0.92166   0.77761   0.00000  Uiso   1.00
C1259  C     0.83334   0.91317   0.74926   0.00000  Uiso   1.00
C1260  C     0.83333   0.75350   0.75074   0.00000  Uiso   1.00
C1261  C     0.78157   0.81345   0.54919   0.00000  Uiso   1.00
C1262  C     0.88502   0.85355   0.95087   0.00000  Uiso   1.00
C1263  C     0.74747   0.80572   0.52914   0.00000  Uiso   1.00
C1264  C     0.91913   0.86126   0.97092   0.00000  Uiso   1.00
C1265  C     0.87166   0.97831   0.71603   0.00000  Uiso   1.00
C1266  C     0.79501   0.68835   0.78397   0.00000  Uiso   1.00
C1267  C     0.87143   0.68806   0.71794   0.00000  Uiso   1.00
C1268  C     0.79524   0.97861   0.78206   0.00000  Uiso   1.00
C1269  C     0.83339   0.70934   0.75158   0.00000  Uiso   1.00
C1270  C     0.83328   0.95733   0.74842   0.00000  Uiso   1.00
C1271  C     0.98677   0.80376   0.72507   0.00000  Uiso   1.00
C1272  C     0.67988   0.86289   0.77495   0.00000  Uiso   1.00
C1273  C     0.70114   0.80414   0.72523   0.00000  Uiso   1.00
C1274  C     0.96552   0.86253   0.77477   0.00000  Uiso   1.00
C1275  C     0.80373   0.83010   0.83737   0.00000  Uiso   1.00
C1276  C     0.86294   0.83660   0.66263   0.00000  Uiso   1.00
C1277  C     0.78751   0.82189   0.88675   0.00000  Uiso   1.00
C1278  C     0.87915   0.84490   0.61328   0.00000  Uiso   1.00
C1279  C     0.72510   0.80946   0.96057   0.00000  Uiso   1.00
C1280  C     0.94152   0.85745   0.53947   0.00000  Uiso   1.00
C1281  C     0.73868   0.81692   0.91357   0.00000  Uiso   1.00
C1282  C     0.92796   0.84992   0.58645   0.00000  Uiso   1.00
C1283  C     0.82214   0.81760   0.90752   0.00000  Uiso   1.00
C1284  C     0.84450   0.84929   0.59255   0.00000  Uiso   1.00
C1285  C     0.80756   0.82272   0.95504   0.00000  Uiso   1.00
C1286  C     0.85905   0.84425   0.54502   0.00000  Uiso   1.00
C1287  C     0.75925   0.81309   0.98208   0.00000  Uiso   1.00
C1288  C     0.90735   0.85387   0.51797   0.00000  Uiso   1.00
C1289  C     0.84020   0.83526   0.97610   0.00000  Uiso   1.00
C1290  C     0.82639   0.83173   0.52396   0.00000  Uiso   1.00
H1291  H     0.95505   0.85004   0.60209   0.00000  Uiso   1.00
H1292  H     0.71160   0.81677   0.89793   0.00000  Uiso   1.00
H1293  H     0.68779   0.80240   0.98002   0.00000  Uiso   1.00
H1294  H     0.97882   0.86453   0.52003   0.00000  Uiso   1.00
H1295  H     0.77275   0.80470   0.58471   0.00000  Uiso   1.00
H1296  H     0.89384   0.86229   0.91535   0.00000  Uiso   1.00
H1297  H     0.90008   0.70512   0.69266   0.00000  Uiso   1.00
H1298  H     0.76660   0.96155   0.80735   0.00000  Uiso   1.00
H1299  H     0.72776   0.78079   0.70579   0.00000  Uiso   1.00
H1300  H     0.93891   0.88587   0.79421   0.00000  Uiso   1.00
N1301  N     0.71426   0.83334   0.75001   0.00000  Uiso   1.00
N1302  N     0.95241   0.83332   0.74999   0.00000  Uiso   1.00
O1303  O     0.79512   0.89442   0.75001   0.00000  Uiso   1.00
O1304  O     0.87154   0.77225   0.75000   0.00000  Uiso   1.00
O1305  O     0.87157   0.89441   0.75000   0.00000  Uiso   1.00
O1306  O     0.79510   0.77226   0.75000   0.00000  Uiso   1.00
O1307  O     0.77328   0.83334   0.81613   0.00000  Uiso   1.00
O1308  O     0.89339   0.83333   0.68388   0.00000  Uiso   1.00
O1309  O     0.84972   0.83333   0.81612   0.00000  Uiso   1.00
O1310  O     0.81695   0.83334   0.68388   0.00000  Uiso   1.00
Zn1311 Zn    0.78229   0.83334   0.75000   0.00000  Uiso   1.00
Zn1312 Zn    0.88438   0.83333   0.75000   0.00000  Uiso   1.00
C1313  C     0.70246   0.78700   0.55677   0.00000  Uiso   1.00
N1314  N     0.99998   0.77158   0.57878   0.00000  Uiso   1.00
C1315  C     0.96417   0.87994   0.94327   0.00000  Uiso   1.00
N1316  N     0.66667   0.89531   0.92125   0.00000  Uiso   1.00
C1317  C     0.79740   0.86881   0.61753   0.00000  Uiso   1.00
N1318  N     0.76001   0.88441   0.63732   0.00000  Uiso   1.00
C1319  C     0.86927   0.79810   0.88259   0.00000  Uiso   1.00
N1320  N     0.90668   0.78252   0.86284   0.00000  Uiso   1.00
C1321  C     0.91047   0.95650   0.68006   0.00000  Uiso   1.00
N1322  N     0.94150   0.93903   0.65130   0.00000  Uiso   1.00
C1323  C     0.75621   0.71016   0.81995   0.00000  Uiso   1.00
N1324  N     0.72519   0.72763   0.84871   0.00000  Uiso   1.00
C1325  C     0.97473   0.76921   0.69850   0.00000  Uiso   1.00
H1326  H     0.67459   0.75358   0.67401   0.00000  Uiso   1.00
H1327  H     0.95424   0.74497   0.72262   0.00000  Uiso   1.00
H1328  H     0.95420   0.78137   0.67790   0.00000  Uiso   1.00
C1329  C     0.69189   0.89738   0.80163   0.00000  Uiso   1.00
H1330  H     0.99202   0.91298   0.82613   0.00000  Uiso   1.00
H1331  H     0.71233   0.88516   0.82226   0.00000  Uiso   1.00
H1332  H     0.71238   0.92166   0.77761   0.00000  Uiso   1.00
loop_
_geom_bond_atom_site_label_1
_geom_bond_atom_site_label_2
_geom_bond_distance
_geom_bond_site_symmetry_2
_ccdc_geom_bond_type
C1     O45     1.286   .     A
C1     C12     1.409   .     S
C1     O47     1.282   .     A
C2     O46     1.286   .     A
C2     C11     1.409   .     S
C2     O48     1.282   .     A
C3     C5      1.395   .     A
C3     C32     1.417   .     A
C3     H37     1.083   .     S
C4     C6      1.395   .     A
C4     C31     1.417   .     A
C4     H38     1.083   .     S
C5     C55     1.445   .     S
C5     C695    1.404   1_554 S
C6     C57     1.445   .     S
C6     C696    1.404   .     S
C7     C63     1.447   .     S
C7     C12     1.404   .     A
C7     C231    1.375   .     S
C8     C11     1.404   .     A
C8     C65     1.447   .     S
C8     C454    1.375   1_545 S
C9     H39     1.085   .     S
C9     C11     1.393   .     A
C9     C451    1.375   1_545 S
C10    C12     1.393   .     A
C10    H40     1.085   .     S
C10    C230    1.375   .     S
C13    C67     1.499   .     S
C13    N44     1.384   .     A
C13    C89     1.420   .     S
C14    C71     1.499   .     S
C14    N43     1.384   .     A
C14    C164    1.420   1_455 S
C15    N43     1.356   .     A
C15    H41     1.083   .     S
C15    C161    1.420   1_455 S
C16    N44     1.356   .     A
C16    H42     1.083   .     S
C16    C88     1.420   .     S
C17    O51     1.291   .     A
C17    O49     1.305   .     A
C17    C19     1.465   .     S
C18    C20     1.465   .     S
C18    O50     1.305   .     A
C18    O52     1.291   .     A
C19    C23     1.400   .     A
C19    C25     1.407   .     A
C20    C24     1.400   .     A
C20    C26     1.407   .     A
C21    H35     1.082   .     S
C21    C23     1.397   .     A
C21    C29     1.412   .     A
C22    H36     1.082   .     S
C22    C24     1.397   .     A
C22    C30     1.412   .     A
C23    H34     1.083   .     S
C24    H33     1.083   .     S
C25    C61     1.457   .     S
C25    C27     1.394   .     A
C26    C59     1.457   .     S
C26    C28     1.394   .     A
C27    C29     1.417   .     A
C27    C31     1.417   .     A
C28    C30     1.416   .     A
C28    C32     1.417   .     A
C29    C671    1.404   .     S
C30    C672    1.404   1_554 S
C31    C698    1.404   .     S
C32    C697    1.404   1_554 S
N43    Zn53    2.022   .     S
N44    Zn54    2.022   .     S
O45    Zn53    1.992   .     S
O46    Zn54    1.992   .     S
O47    Zn54    1.978   .     S
O48    Zn53    1.978   .     S
O49    Zn53    1.983   .     S
O50    Zn54    1.983   .     S
O51    Zn54    1.943   .     S
O52    Zn53    1.943   .     S
C55    N204    1.157   1_455 S
N56    C129    1.157   .     S
C57    N132    1.157   .     S
N58    C205    1.157   1_455 S
C59    N60     1.158   .     T
C61    N62     1.158   .     T
C63    N64     1.157   .     T
C65    N66     1.157   .     T
C67    H69     1.108   .     S
C67    H70     1.103   .     S
C67    H142    1.111   .     S
H68    C215    1.111   1_455 S
C71    H74     1.107   .     S
C71    H73     1.102   .     S
C71    H220    1.111   1_455 S
H72    C145    1.111   .     S
C75    O119    1.286   .     A
C75    C86     1.409   .     S
C75    O121    1.282   .     A
C76    O120    1.286   .     A
C76    C85     1.409   .     S
C76    O122    1.282   .     A
C77    C79     1.395   .     A
C77    C106    1.417   .     A
C77    H111    1.083   .     S
C78    C80     1.395   .     A
C78    C105    1.417   .     A
C78    H112    1.083   .     S
C79    C129    1.445   .     S
C79    C769    1.404   1_554 S
C80    C131    1.445   .     S
C80    C770    1.404   .     S
C81    C137    1.447   .     S
C81    C86     1.404   .     A
C81    C305    1.375   .     S
C82    C85     1.404   .     A
C82    C139    1.447   .     S
C82    C528    1.375   1_545 S
C83    H113    1.085   .     S
C83    C85     1.393   .     A
C83    C525    1.375   1_545 S
C84    C86     1.393   .     A
C84    H114    1.085   .     S
C84    C304    1.375   .     S
C87    C141    1.499   .     S
C87    N118    1.384   .     A
C87    C163    1.420   .     S
C88    C145    1.499   .     S
C88    N117    1.384   .     A
C89    N117    1.356   .     A
C89    H115    1.083   .     S
C90    N118    1.356   .     A
C90    H116    1.083   .     S
C90    C162    1.420   .     S
C91    O125    1.291   .     A
C91    O123    1.305   .     A
C91    C93     1.465   .     S
C92    C94     1.465   .     S
C92    O124    1.305   .     A
C92    O126    1.291   .     A
C93    C97     1.400   .     A
C93    C99     1.407   .     A
C94    C98     1.400   .     A
C94    C100    1.407   .     A
C95    H109    1.082   .     S
C95    C97     1.397   .     A
C95    C103    1.412   .     A
C96    H110    1.082   .     S
C96    C98     1.397   .     A
C96    C104    1.412   .     A
C97    H108    1.083   .     S
C98    H107    1.083   .     S
C99    C135    1.457   .     S
C99    C101    1.394   .     A
C100   C133    1.457   .     S
C100   C102    1.394   .     A
C101   C103    1.417   .     A
C101   C105    1.417   .     A
C102   C104    1.416   .     A
C102   C106    1.417   .     A
C103   C745    1.404   .     S
C104   C746    1.404   1_554 S
C105   C772    1.404   .     S
C106   C771    1.404   1_554 S
N117   Zn127   2.022   .     S
N118   Zn128   2.022   .     S
O119   Zn127   1.992   .     S
O120   Zn128   1.992   .     S
O121   Zn128   1.978   .     S
O122   Zn127   1.978   .     S
O123   Zn127   1.983   .     S
O124   Zn128   1.983   .     S
O125   Zn128   1.943   .     S
O126   Zn127   1.943   .     S
N130   C203    1.157   .     S
C131   N206    1.157   .     S
C133   N134    1.158   .     T
C135   N136    1.158   .     T
C137   N138    1.157   .     T
C139   N140    1.157   .     T
C141   H143    1.108   .     S
C141   H144    1.103   .     S
C141   H216    1.111   .     S
C145   H148    1.107   .     S
C145   H147    1.102   .     S
H146   C219    1.111   .     S
C149   O193    1.286   .     A
C149   C160    1.409   .     S
C149   O195    1.282   .     A
C150   O194    1.286   .     A
C150   C159    1.409   .     S
C150   O196    1.282   .     A
C151   C153    1.395   .     A
C151   C180    1.417   .     A
C151   H185    1.083   .     S
C152   C154    1.395   .     A
C152   C179    1.417   .     A
C152   H186    1.083   .     S
C153   C203    1.445   .     S
C153   C843    1.404   1_554 S
C154   C205    1.445   .     S
C154   C844    1.404   .     S
C155   C211    1.447   .     S
C155   C160    1.404   .     A
C155   C379    1.375   .     S
C156   C159    1.404   .     A
C156   C213    1.447   .     S
C156   C602    1.375   1_545 S
C157   H187    1.085   .     S
C157   C159    1.393   .     A
C157   C599    1.375   1_545 S
C158   C160    1.393   .     A
C158   H188    1.085   .     S
C158   C378    1.375   .     S
C161   C215    1.499   .     S
C161   N192    1.384   .     A
C161   C15     1.420   1_655 S
C162   C219    1.499   .     S
C162   N191    1.384   .     A
C163   N191    1.356   .     A
C163   H189    1.083   .     S
C164   N192    1.356   .     A
C164   H190    1.083   .     S
C164   C14     1.420   1_655 S
C165   O199    1.291   .     A
C165   O197    1.305   .     A
C165   C167    1.465   .     S
C166   C168    1.465   .     S
C166   O198    1.305   .     A
C166   O200    1.291   .     A
C167   C171    1.400   .     A
C167   C173    1.407   .     A
C168   C172    1.400   .     A
C168   C174    1.407   .     A
C169   H183    1.082   .     S
C169   C171    1.397   .     A
C169   C177    1.412   .     A
C170   H184    1.082   .     S
C170   C172    1.397   .     A
C170   C178    1.412   .     A
C171   H182    1.083   .     S
C172   H181    1.083   .     S
C173   C209    1.457   .     S
C173   C175    1.394   .     A
C174   C207    1.457   .     S
C174   C176    1.394   .     A
C175   C177    1.417   .     A
C175   C179    1.417   .     A
C176   C178    1.416   .     A
C176   C180    1.417   .     A
C177   C819    1.404   .     S
C178   C820    1.404   1_554 S
C179   C846    1.404   .     S
C180   C845    1.404   1_554 S
N191   Zn201   2.022   .     S
N192   Zn202   2.022   .     S
O193   Zn201   1.992   .     S
O194   Zn202   1.992   .     S
O195   Zn202   1.978   .     S
O196   Zn201   1.978   .     S
O197   Zn201   1.983   .     S
O198   Zn202   1.983   .     S
O199   Zn202   1.943   .     S
O200   Zn201   1.943   .     S
N204   C55     1.157   1_655 S
C205   N58     1.157   1_655 S
C207   N208    1.158   .     T
C209   N210    1.158   .     T
C211   N212    1.157   .     T
C213   N214    1.157   .     T
C215   H217    1.108   .     S
C215   H218    1.103   .     S
C215   H68     1.111   1_655 S
C219   H222    1.107   .     S
C219   H221    1.102   .     S
H220   C71     1.111   1_655 S
C223   O267    1.286   .     A
C223   C234    1.409   .     S
C223   O269    1.282   .     A
C224   O268    1.286   .     A
C224   C233    1.409   .     S
C224   O270    1.282   .     A
C225   C227    1.395   .     A
C225   C254    1.417   .     A
C225   H259    1.083   .     S
C226   C228    1.395   .     A
C226   C253    1.417   .     A
C226   H260    1.083   .     S
C227   C277    1.445   .     S
C227   C917    1.404   1_554 S
C228   C279    1.445   .     S
C228   C918    1.404   .     S
C229   C285    1.447   .     S
C229   C234    1.404   .     A
C229   C453    1.375   .     S
C230   C233    1.404   .     A
C230   C287    1.447   .     S
C231   H261    1.085   .     S
C231   C233    1.393   .     A
C232   C234    1.393   .     A
C232   H262    1.085   .     S
C232   C452    1.375   .     S
C235   C289    1.499   .     S
C235   N266    1.384   .     A
C235   C311    1.420   .     S
C236   C293    1.499   .     S
C236   N265    1.384   .     A
C236   C386    1.420   1_455 S
C237   N265    1.356   .     A
C237   H263    1.083   .     S
C237   C383    1.420   1_455 S
C238   N266    1.356   .     A
C238   H264    1.083   .     S
C238   C310    1.420   .     S
C239   O273    1.291   .     A
C239   O271    1.305   .     A
C239   C241    1.465   .     S
C240   C242    1.465   .     S
C240   O272    1.305   .     A
C240   O274    1.291   .     A
C241   C245    1.400   .     A
C241   C247    1.407   .     A
C242   C246    1.400   .     A
C242   C248    1.407   .     A
C243   H257    1.082   .     S
C243   C245    1.397   .     A
C243   C251    1.412   .     A
C244   H258    1.082   .     S
C244   C246    1.397   .     A
C244   C252    1.412   .     A
C245   H256    1.083   .     S
C246   H255    1.083   .     S
C247   C283    1.457   .     S
C247   C249    1.394   .     A
C248   C281    1.457   .     S
C248   C250    1.394   .     A
C249   C251    1.417   .     A
C249   C253    1.417   .     A
C250   C252    1.416   .     A
C250   C254    1.417   .     A
C251   C893    1.404   .     S
C252   C894    1.404   1_554 S
C253   C920    1.404   .     S
C254   C919    1.404   1_554 S
N265   Zn275   2.022   .     S
N266   Zn276   2.022   .     S
O267   Zn275   1.992   .     S
O268   Zn276   1.992   .     S
O269   Zn276   1.978   .     S
O270   Zn275   1.978   .     S
O271   Zn275   1.983   .     S
O272   Zn276   1.983   .     S
O273   Zn276   1.943   .     S
O274   Zn275   1.943   .     S
C277   N426    1.157   1_455 S
N278   C351    1.157   .     S
C279   N354    1.157   .     S
N280   C427    1.157   1_455 S
C281   N282    1.158   .     T
C283   N284    1.158   .     T
C285   N286    1.157   .     T
C287   N288    1.157   .     T
C289   H291    1.108   .     S
C289   H292    1.103   .     S
C289   H364    1.111   .     S
H290   C437    1.111   1_455 S
C293   H296    1.107   .     S
C293   H295    1.102   .     S
C293   H442    1.111   1_455 S
H294   C367    1.111   .     S
C297   O341    1.286   .     A
C297   C308    1.409   .     S
C297   O343    1.282   .     A
C298   O342    1.286   .     A
C298   C307    1.409   .     S
C298   O344    1.282   .     A
C299   C301    1.395   .     A
C299   C328    1.417   .     A
C299   H333    1.083   .     S
C300   C302    1.395   .     A
C300   C327    1.417   .     A
C300   H334    1.083   .     S
C301   C351    1.445   .     S
C301   C991    1.404   1_554 S
C302   C353    1.445   .     S
C302   C992    1.404   .     S
C303   C359    1.447   .     S
C303   C308    1.404   .     A
C303   C527    1.375   .     S
C304   C307    1.404   .     A
C304   C361    1.447   .     S
C305   H335    1.085   .     S
C305   C307    1.393   .     A
C306   C308    1.393   .     A
C306   H336    1.085   .     S
C306   C526    1.375   .     S
C309   C363    1.499   .     S
C309   N340    1.384   .     A
C309   C385    1.420   .     S
C310   C367    1.499   .     S
C310   N339    1.384   .     A
C311   N339    1.356   .     A
C311   H337    1.083   .     S
C312   N340    1.356   .     A
C312   H338    1.083   .     S
C312   C384    1.420   .     S
C313   O347    1.291   .     A
C313   O345    1.305   .     A
C313   C315    1.465   .     S
C314   C316    1.465   .     S
C314   O346    1.305   .     A
C314   O348    1.291   .     A
C315   C319    1.400   .     A
C315   C321    1.407   .     A
C316   C320    1.400   .     A
C316   C322    1.407   .     A
C317   H331    1.082   .     S
C317   C319    1.397   .     A
C317   C325    1.412   .     A
C318   H332    1.082   .     S
C318   C320    1.397   .     A
C318   C326    1.412   .     A
C319   H330    1.083   .     S
C320   H329    1.083   .     S
C321   C357    1.457   .     S
C321   C323    1.394   .     A
C322   C355    1.457   .     S
C322   C324    1.394   .     A
C323   C325    1.417   .     A
C323   C327    1.417   .     A
C324   C326    1.416   .     A
C324   C328    1.417   .     A
C325   C967    1.404   .     S
C326   C968    1.404   1_554 S
C327   C994    1.404   .     S
C328   C993    1.404   1_554 S
N339   Zn349   2.022   .     S
N340   Zn350   2.022   .     S
O341   Zn349   1.992   .     S
O342   Zn350   1.992   .     S
O343   Zn350   1.978   .     S
O344   Zn349   1.978   .     S
O345   Zn349   1.983   .     S
O346   Zn350   1.983   .     S
O347   Zn350   1.943   .     S
O348   Zn349   1.943   .     S
N352   C425    1.157   .     S
C353   N428    1.157   .     S
C355   N356    1.158   .     T
C357   N358    1.158   .     T
C359   N360    1.157   .     T
C361   N362    1.157   .     T
C363   H365    1.108   .     S
C363   H366    1.103   .     S
C363   H438    1.111   .     S
C367   H370    1.107   .     S
C367   H369    1.102   .     S
H368   C441    1.111   .     S
C371   O415    1.286   .     A
C371   C382    1.409   .     S
C371   O417    1.282   .     A
C372   O416    1.286   .     A
C372   C381    1.409   .     S
C372   O418    1.282   .     A
C373   C375    1.395   .     A
C373   C402    1.417   .     A
C373   H407    1.083   .     S
C374   C376    1.395   .     A
C374   C401    1.417   .     A
C374   H408    1.083   .     S
C375   C425    1.445   .     S
C375   C1065   1.404   1_554 S
C376   C427    1.445   .     S
C376   C1066   1.404   .     S
C377   C433    1.447   .     S
C377   C382    1.404   .     A
C377   C601    1.375   .     S
C378   C381    1.404   .     A
C378   C435    1.447   .     S
C379   H409    1.085   .     S
C379   C381    1.393   .     A
C380   C382    1.393   .     A
C380   H410    1.085   .     S
C380   C600    1.375   .     S
C383   C437    1.499   .     S
C383   N414    1.384   .     A
C383   C237    1.420   1_655 S
C384   C441    1.499   .     S
C384   N413    1.384   .     A
C385   N413    1.356   .     A
C385   H411    1.083   .     S
C386   N414    1.356   .     A
C386   H412    1.083   .     S
C386   C236    1.420   1_655 S
C387   O421    1.291   .     A
C387   O419    1.305   .     A
C387   C389    1.465   .     S
C388   C390    1.465   .     S
C388   O420    1.305   .     A
C388   O422    1.291   .     A
C389   C393    1.400   .     A
C389   C395    1.407   .     A
C390   C394    1.400   .     A
C390   C396    1.407   .     A
C391   H405    1.082   .     S
C391   C393    1.397   .     A
C391   C399    1.412   .     A
C392   H406    1.082   .     S
C392   C394    1.397   .     A
C392   C400    1.412   .     A
C393   H404    1.083   .     S
C394   H403    1.083   .     S
C395   C431    1.457   .     S
C395   C397    1.394   .     A
C396   C429    1.457   .     S
C396   C398    1.394   .     A
C397   C399    1.417   .     A
C397   C401    1.417   .     A
C398   C400    1.416   .     A
C398   C402    1.417   .     A
C399   C1041   1.404   .     S
C400   C1042   1.404   1_554 S
C401   C1068   1.404   .     S
C402   C1067   1.404   1_554 S
N413   Zn423   2.022   .     S
N414   Zn424   2.022   .     S
O415   Zn423   1.992   .     S
O416   Zn424   1.992   .     S
O417   Zn424   1.978   .     S
O418   Zn423   1.978   .     S
O419   Zn423   1.983   .     S
O420   Zn424   1.983   .     S
O421   Zn424   1.943   .     S
O422   Zn423   1.943   .     S
N426   C277    1.157   1_655 S
C427   N280    1.157   1_655 S
C429   N430    1.158   .     T
C431   N432    1.158   .     T
C433   N434    1.157   .     T
C435   N436    1.157   .     T
C437   H439    1.108   .     S
C437   H440    1.103   .     S
C437   H290    1.111   1_655 S
C441   H444    1.107   .     S
C441   H443    1.102   .     S
H442   C293    1.111   1_655 S
C445   O489    1.286   .     A
C445   C456    1.409   .     S
C445   O491    1.282   .     A
C446   O490    1.286   .     A
C446   C455    1.409   .     S
C446   O492    1.282   .     A
C447   C449    1.395   .     A
C447   C476    1.417   .     A
C447   H481    1.083   .     S
C448   C450    1.395   .     A
C448   C475    1.417   .     A
C448   H482    1.083   .     S
C449   C499    1.445   .     S
C449   C1139   1.404   1_554 S
C450   C501    1.445   .     S
C450   C1140   1.404   .     S
C451   C507    1.447   .     S
C451   C456    1.404   .     A
C451   C9      1.375   1_565 S
C452   C455    1.404   .     A
C452   C509    1.447   .     S
C453   H483    1.085   .     S
C453   C455    1.393   .     A
C454   C456    1.393   .     A
C454   H484    1.085   .     S
C454   C8      1.375   1_565 S
C457   C511    1.499   .     S
C457   N488    1.384   .     A
C457   C533    1.420   .     S
C458   C515    1.499   .     S
C458   N487    1.384   .     A
C458   C608    1.420   1_455 S
C459   N487    1.356   .     A
C459   H485    1.083   .     S
C459   C605    1.420   1_455 S
C460   N488    1.356   .     A
C460   H486    1.083   .     S
C460   C532    1.420   .     S
C461   O495    1.291   .     A
C461   O493    1.305   .     A
C461   C463    1.465   .     S
C462   C464    1.465   .     S
C462   O494    1.305   .     A
C462   O496    1.291   .     A
C463   C467    1.400   .     A
C463   C469    1.407   .     A
C464   C468    1.400   .     A
C464   C470    1.407   .     A
C465   H479    1.082   .     S
C465   C467    1.397   .     A
C465   C473    1.412   .     A
C466   H480    1.082   .     S
C466   C468    1.397   .     A
C466   C474    1.412   .     A
C467   H478    1.083   .     S
C468   H477    1.083   .     S
C469   C505    1.457   .     S
C469   C471    1.394   .     A
C470   C503    1.457   .     S
C470   C472    1.394   .     A
C471   C473    1.417   .     A
C471   C475    1.417   .     A
C472   C474    1.416   .     A
C472   C476    1.417   .     A
C473   C1115   1.404   .     S
C474   C1116   1.404   1_554 S
C475   C1142   1.404   .     S
C476   C1141   1.404   1_554 S
N487   Zn497   2.022   .     S
N488   Zn498   2.022   .     S
O489   Zn497   1.992   .     S
O490   Zn498   1.992   .     S
O491   Zn498   1.978   .     S
O492   Zn497   1.978   .     S
O493   Zn497   1.983   .     S
O494   Zn498   1.983   .     S
O495   Zn498   1.943   .     S
O496   Zn497   1.943   .     S
C499   N648    1.157   1_455 S
N500   C573    1.157   .     S
C501   N576    1.157   .     S
N502   C649    1.157   1_455 S
C503   N504    1.158   .     T
C505   N506    1.158   .     T
C507   N508    1.157   .     T
C509   N510    1.157   .     T
C511   H513    1.108   .     S
C511   H514    1.103   .     S
C511   H586    1.111   .     S
H512   C659    1.111   1_455 S
C515   H518    1.107   .     S
C515   H517    1.102   .     S
C515   H664    1.111   1_455 S
H516   C589    1.111   .     S
C519   O563    1.286   .     A
C519   C530    1.409   .     S
C519   O565    1.282   .     A
C520   O564    1.286   .     A
C520   C529    1.409   .     S
C520   O566    1.282   .     A
C521   C523    1.395   .     A
C521   C550    1.417   .     A
C521   H555    1.083   .     S
C522   C524    1.395   .     A
C522   C549    1.417   .     A
C522   H556    1.083   .     S
C523   C573    1.445   .     S
C523   C1213   1.404   1_554 S
C524   C575    1.445   .     S
C524   C1214   1.404   .     S
C525   C581    1.447   .     S
C525   C530    1.404   .     A
C525   C83     1.375   1_565 S
C526   C529    1.404   .     A
C526   C583    1.447   .     S
C527   H557    1.085   .     S
C527   C529    1.393   .     A
C528   C530    1.393   .     A
C528   H558    1.085   .     S
C528   C82     1.375   1_565 S
C531   C585    1.499   .     S
C531   N562    1.384   .     A
C531   C607    1.420   .     S
C532   C589    1.499   .     S
C532   N561    1.384   .     A
C533   N561    1.356   .     A
C533   H559    1.083   .     S
C534   N562    1.356   .     A
C534   H560    1.083   .     S
C534   C606    1.420   .     S
C535   O569    1.291   .     A
C535   O567    1.305   .     A
C535   C537    1.465   .     S
C536   C538    1.465   .     S
C536   O568    1.305   .     A
C536   O570    1.291   .     A
C537   C541    1.400   .     A
C537   C543    1.407   .     A
C538   C542    1.400   .     A
C538   C544    1.407   .     A
C539   H553    1.082   .     S
C539   C541    1.397   .     A
C539   C547    1.412   .     A
C540   H554    1.082   .     S
C540   C542    1.397   .     A
C540   C548    1.412   .     A
C541   H552    1.083   .     S
C542   H551    1.083   .     S
C543   C579    1.457   .     S
C543   C545    1.394   .     A
C544   C577    1.457   .     S
C544   C546    1.394   .     A
C545   C547    1.417   .     A
C545   C549    1.417   .     A
C546   C548    1.416   .     A
C546   C550    1.417   .     A
C547   C1189   1.404   .     S
C548   C1190   1.404   1_554 S
C549   C1216   1.404   .     S
C550   C1215   1.404   1_554 S
N561   Zn571   2.022   .     S
N562   Zn572   2.022   .     S
O563   Zn571   1.992   .     S
O564   Zn572   1.992   .     S
O565   Zn572   1.978   .     S
O566   Zn571   1.978   .     S
O567   Zn571   1.983   .     S
O568   Zn572   1.983   .     S
O569   Zn572   1.943   .     S
O570   Zn571   1.943   .     S
N574   C647    1.157   .     S
C575   N650    1.157   .     S
C577   N578    1.158   .     T
C579   N580    1.158   .     T
C581   N582    1.157   .     T
C583   N584    1.157   .     T
C585   H587    1.108   .     S
C585   H588    1.103   .     S
C585   H660    1.111   .     S
C589   H592    1.107   .     S
C589   H591    1.102   .     S
H590   C663    1.111   .     S
C593   O637    1.286   .     A
C593   C604    1.409   .     S
C593   O639    1.282   .     A
C594   O638    1.286   .     A
C594   C603    1.409   .     S
C594   O640    1.282   .     A
C595   C597    1.395   .     A
C595   C624    1.417   .     A
C595   H629    1.083   .     S
C596   C598    1.395   .     A
C596   C623    1.417   .     A
C596   H630    1.083   .     S
C597   C647    1.445   .     S
C597   C1287   1.404   1_554 S
C598   C649    1.445   .     S
C598   C1288   1.404   .     S
C599   C655    1.447   .     S
C599   C604    1.404   .     A
C599   C157    1.375   1_565 S
C600   C603    1.404   .     A
C600   C657    1.447   .     S
C601   H631    1.085   .     S
C601   C603    1.393   .     A
C602   C604    1.393   .     A
C602   H632    1.085   .     S
C602   C156    1.375   1_565 S
C605   C659    1.499   .     S
C605   N636    1.384   .     A
C605   C459    1.420   1_655 S
C606   C663    1.499   .     S
C606   N635    1.384   .     A
C607   N635    1.356   .     A
C607   H633    1.083   .     S
C608   N636    1.356   .     A
C608   H634    1.083   .     S
C608   C458    1.420   1_655 S
C609   O643    1.291   .     A
C609   O641    1.305   .     A
C609   C611    1.465   .     S
C610   C612    1.465   .     S
C610   O642    1.305   .     A
C610   O644    1.291   .     A
C611   C615    1.400   .     A
C611   C617    1.407   .     A
C612   C616    1.400   .     A
C612   C618    1.407   .     A
C613   H627    1.082   .     S
C613   C615    1.397   .     A
C613   C621    1.412   .     A
C614   H628    1.082   .     S
C614   C616    1.397   .     A
C614   C622    1.412   .     A
C615   H626    1.083   .     S
C616   H625    1.083   .     S
C617   C653    1.457   .     S
C617   C619    1.394   .     A
C618   C651    1.457   .     S
C618   C620    1.394   .     A
C619   C621    1.417   .     A
C619   C623    1.417   .     A
C620   C622    1.416   .     A
C620   C624    1.417   .     A
C621   C1263   1.404   .     S
C622   C1264   1.404   1_554 S
C623   C1290   1.404   .     S
C624   C1289   1.404   1_554 S
N635   Zn645   2.022   .     S
N636   Zn646   2.022   .     S
O637   Zn645   1.992   .     S
O638   Zn646   1.992   .     S
O639   Zn646   1.978   .     S
O640   Zn645   1.978   .     S
O641   Zn645   1.983   .     S
O642   Zn646   1.983   .     S
O643   Zn646   1.943   .     S
O644   Zn645   1.943   .     S
N648   C499    1.157   1_655 S
C649   N502    1.157   1_655 S
C651   N652    1.158   .     T
C653   N654    1.158   .     T
C655   N656    1.157   .     T
C657   N658    1.157   .     T
C659   H661    1.108   .     S
C659   H662    1.103   .     S
C659   H512    1.111   1_655 S
C663   H666    1.107   .     S
C663   H665    1.102   .     S
H664   C515    1.111   1_655 S
C667   O711    1.286   .     A
C667   C678    1.409   .     S
C667   O713    1.282   .     A
C668   O712    1.286   .     A
C668   C677    1.409   .     S
C668   O714    1.282   .     A
C669   C671    1.395   .     A
C669   C698    1.417   .     A
C669   H703    1.083   .     S
C670   C672    1.395   .     A
C670   C697    1.417   .     A
C670   H704    1.083   .     S
C671   C721    1.445   .     S
C672   C723    1.445   .     S
C672   C30     1.404   1_556 S
C673   C729    1.447   .     S
C673   C678    1.404   .     A
C673   C897    1.375   .     S
C674   C677    1.404   .     A
C674   C731    1.447   .     S
C674   C1120   1.375   1_545 S
C675   H705    1.085   .     S
C675   C677    1.393   .     A
C675   C1117   1.375   1_545 S
C676   C678    1.393   .     A
C676   H706    1.085   .     S
C676   C896    1.375   .     S
C679   C733    1.499   .     S
C679   N710    1.384   .     A
C679   C755    1.420   .     S
C680   C737    1.499   .     S
C680   N709    1.384   .     A
C680   C830    1.420   1_455 S
C681   N709    1.356   .     A
C681   H707    1.083   .     S
C681   C827    1.420   1_455 S
C682   N710    1.356   .     A
C682   H708    1.083   .     S
C682   C754    1.420   .     S
C683   O717    1.291   .     A
C683   O715    1.305   .     A
C683   C685    1.465   .     S
C684   C686    1.465   .     S
C684   O716    1.305   .     A
C684   O718    1.291   .     A
C685   C689    1.400   .     A
C685   C691    1.407   .     A
C686   C690    1.400   .     A
C686   C692    1.407   .     A
C687   H701    1.082   .     S
C687   C689    1.397   .     A
C687   C695    1.412   .     A
C688   H702    1.082   .     S
C688   C690    1.397   .     A
C688   C696    1.412   .     A
C689   H700    1.083   .     S
C690   H699    1.083   .     S
C691   C727    1.457   .     S
C691   C693    1.394   .     A
C692   C725    1.457   .     S
C692   C694    1.394   .     A
C693   C695    1.417   .     A
C693   C697    1.417   .     A
C694   C696    1.416   .     A
C694   C698    1.417   .     A
C695   C5      1.404   1_556 S
C697   C32     1.404   1_556 S
N709   Zn719   2.022   .     S
N710   Zn720   2.022   .     S
O711   Zn719   1.992   .     S
O712   Zn720   1.992   .     S
O713   Zn720   1.978   .     S
O714   Zn719   1.978   .     S
O715   Zn719   1.983   .     S
O716   Zn720   1.983   .     S
O717   Zn720   1.943   .     S
O718   Zn719   1.943   .     S
C721   N870    1.157   1_455 S
N722   C795    1.157   .     S
C723   N798    1.157   .     S
N724   C871    1.157   1_455 S
C725   N726    1.158   .     T
C727   N728    1.158   .     T
C729   N730    1.157   .     T
C731   N732    1.157   .     T
C733   H735    1.108   .     S
C733   H736    1.103   .     S
C733   H808    1.111   .     S
H734   C881    1.111   1_455 S
C737   H740    1.107   .     S
C737   H739    1.102   .     S
C737   H886    1.111   1_455 S
H738   C811    1.111   .     S
C741   O785    1.286   .     A
C741   C752    1.409   .     S
C741   O787    1.282   .     A
C742   O786    1.286   .     A
C742   C751    1.409   .     S
C742   O788    1.282   .     A
C743   C745    1.395   .     A
C743   C772    1.417   .     A
C743   H777    1.083   .     S
C744   C746    1.395   .     A
C744   C771    1.417   .     A
C744   H778    1.083   .     S
C745   C795    1.445   .     S
C746   C797    1.445   .     S
C746   C104    1.404   1_556 S
C747   C803    1.447   .     S
C747   C752    1.404   .     A
C747   C971    1.375   .     S
C748   C751    1.404   .     A
C748   C805    1.447   .     S
C748   C1194   1.375   1_545 S
C749   H779    1.085   .     S
C749   C751    1.393   .     A
C749   C1191   1.375   1_545 S
C750   C752    1.393   .     A
C750   H780    1.085   .     S
C750   C970    1.375   .     S
C753   C807    1.499   .     S
C753   N784    1.384   .     A
C753   C829    1.420   .     S
C754   C811    1.499   .     S
C754   N783    1.384   .     A
C755   N783    1.356   .     A
C755   H781    1.083   .     S
C756   N784    1.356   .     A
C756   H782    1.083   .     S
C756   C828    1.420   .     S
C757   O791    1.291   .     A
C757   O789    1.305   .     A
C757   C759    1.465   .     S
C758   C760    1.465   .     S
C758   O790    1.305   .     A
C758   O792    1.291   .     A
C759   C763    1.400   .     A
C759   C765    1.407   .     A
C760   C764    1.400   .     A
C760   C766    1.407   .     A
C761   H775    1.082   .     S
C761   C763    1.397   .     A
C761   C769    1.412   .     A
C762   H776    1.082   .     S
C762   C764    1.397   .     A
C762   C770    1.412   .     A
C763   H774    1.083   .     S
C764   H773    1.083   .     S
C765   C801    1.457   .     S
C765   C767    1.394   .     A
C766   C799    1.457   .     S
C766   C768    1.394   .     A
C767   C769    1.417   .     A
C767   C771    1.417   .     A
C768   C770    1.416   .     A
C768   C772    1.417   .     A
C769   C79     1.404   1_556 S
C771   C106    1.404   1_556 S
N783   Zn793   2.022   .     S
N784   Zn794   2.022   .     S
O785   Zn793   1.992   .     S
O786   Zn794   1.992   .     S
O787   Zn794   1.978   .     S
O788   Zn793   1.978   .     S
O789   Zn793   1.983   .     S
O790   Zn794   1.983   .     S
O791   Zn794   1.943   .     S
O792   Zn793   1.943   .     S
N796   C869    1.157   .     S
C797   N872    1.157   .     S
C799   N800    1.158   .     T
C801   N802    1.158   .     T
C803   N804    1.157   .     T
C805   N806    1.157   .     T
C807   H809    1.108   .     S
C807   H810    1.103   .     S
C807   H882    1.111   .     S
C811   H814    1.107   .     S
C811   H813    1.102   .     S
H812   C885    1.111   .     S
C815   O859    1.286   .     A
C815   C826    1.409   .     S
C815   O861    1.282   .     A
C816   O860    1.286   .     A
C816   C825    1.409   .     S
C816   O862    1.282   .     A
C817   C819    1.395   .     A
C817   C846    1.417   .     A
C817   H851    1.083   .     S
C818   C820    1.395   .     A
C818   C845    1.417   .     A
C818   H852    1.083   .     S
C819   C869    1.445   .     S
C820   C871    1.445   .     S
C820   C178    1.404   1_556 S
C821   C877    1.447   .     S
C821   C826    1.404   .     A
C821   C1045   1.375   .     S
C822   C825    1.404   .     A
C822   C879    1.447   .     S
C822   C1268   1.375   1_545 S
C823   H853    1.085   .     S
C823   C825    1.393   .     A
C823   C1265   1.375   1_545 S
C824   C826    1.393   .     A
C824   H854    1.085   .     S
C824   C1044   1.375   .     S
C827   C881    1.499   .     S
C827   N858    1.384   .     A
C827   C681    1.420   1_655 S
C828   C885    1.499   .     S
C828   N857    1.384   .     A
C829   N857    1.356   .     A
C829   H855    1.083   .     S
C830   N858    1.356   .     A
C830   H856    1.083   .     S
C830   C680    1.420   1_655 S
C831   O865    1.291   .     A
C831   O863    1.305   .     A
C831   C833    1.465   .     S
C832   C834    1.465   .     S
C832   O864    1.305   .     A
C832   O866    1.291   .     A
C833   C837    1.400   .     A
C833   C839    1.407   .     A
C834   C838    1.400   .     A
C834   C840    1.407   .     A
C835   H849    1.082   .     S
C835   C837    1.397   .     A
C835   C843    1.412   .     A
C836   H850    1.082   .     S
C836   C838    1.397   .     A
C836   C844    1.412   .     A
C837   H848    1.083   .     S
C838   H847    1.083   .     S
C839   C875    1.457   .     S
C839   C841    1.394   .     A
C840   C873    1.457   .     S
C840   C842    1.394   .     A
C841   C843    1.417   .     A
C841   C845    1.417   .     A
C842   C844    1.416   .     A
C842   C846    1.417   .     A
C843   C153    1.404   1_556 S
C845   C180    1.404   1_556 S
N857   Zn867   2.022   .     S
N858   Zn868   2.022   .     S
O859   Zn867   1.992   .     S
O860   Zn868   1.992   .     S
O861   Zn868   1.978   .     S
O862   Zn867   1.978   .     S
O863   Zn867   1.983   .     S
O864   Zn868   1.983   .     S
O865   Zn868   1.943   .     S
O866   Zn867   1.943   .     S
N870   C721    1.157   1_655 S
C871   N724    1.157   1_655 S
C873   N874    1.158   .     T
C875   N876    1.158   .     T
C877   N878    1.157   .     T
C879   N880    1.157   .     T
C881   H883    1.108   .     S
C881   H884    1.103   .     S
C881   H734    1.111   1_655 S
C885   H888    1.107   .     S
C885   H887    1.102   .     S
H886   C737    1.111   1_655 S
C889   O933    1.286   .     A
C889   C900    1.409   .     S
C889   O935    1.282   .     A
C890   O934    1.286   .     A
C890   C899    1.409   .     S
C890   O936    1.282   .     A
C891   C893    1.395   .     A
C891   C920    1.417   .     A
C891   H925    1.083   .     S
C892   C894    1.395   .     A
C892   C919    1.417   .     A
C892   H926    1.083   .     S
C893   C943    1.445   .     S
C894   C945    1.445   .     S
C894   C252    1.404   1_556 S
C895   C951    1.447   .     S
C895   C900    1.404   .     A
C895   C1119   1.375   .     S
C896   C899    1.404   .     A
C896   C953    1.447   .     S
C897   H927    1.085   .     S
C897   C899    1.393   .     A
C898   C900    1.393   .     A
C898   H928    1.085   .     S
C898   C1118   1.375   .     S
C901   C955    1.499   .     S
C901   N932    1.384   .     A
C901   C977    1.420   .     S
C902   C959    1.499   .     S
C902   N931    1.384   .     A
C902   C1052   1.420   1_455 S
C903   N931    1.356   .     A
C903   H929    1.083   .     S
C903   C1049   1.420   1_455 S
C904   N932    1.356   .     A
C904   H930    1.083   .     S
C904   C976    1.420   .     S
C905   O939    1.291   .     A
C905   O937    1.305   .     A
C905   C907    1.465   .     S
C906   C908    1.465   .     S
C906   O938    1.305   .     A
C906   O940    1.291   .     A
C907   C911    1.400   .     A
C907   C913    1.407   .     A
C908   C912    1.400   .     A
C908   C914    1.407   .     A
C909   H923    1.082   .     S
C909   C911    1.397   .     A
C909   C917    1.412   .     A
C910   H924    1.082   .     S
C910   C912    1.397   .     A
C910   C918    1.412   .     A
C911   H922    1.083   .     S
C912   H921    1.083   .     S
C913   C949    1.457   .     S
C913   C915    1.394   .     A
C914   C947    1.457   .     S
C914   C916    1.394   .     A
C915   C917    1.417   .     A
C915   C919    1.417   .     A
C916   C918    1.416   .     A
C916   C920    1.417   .     A
C917   C227    1.404   1_556 S
C919   C254    1.404   1_556 S
N931   Zn941   2.022   .     S
N932   Zn942   2.022   .     S
O933   Zn941   1.992   .     S
O934   Zn942   1.992   .     S
O935   Zn942   1.978   .     S
O936   Zn941   1.978   .     S
O937   Zn941   1.983   .     S
O938   Zn942   1.983   .     S
O939   Zn942   1.943   .     S
O940   Zn941   1.943   .     S
C943   N1092   1.157   1_455 S
N944   C1017   1.157   .     S
C945   N1020   1.157   .     S
N946   C1093   1.157   1_455 S
C947   N948    1.158   .     T
C949   N950    1.158   .     T
C951   N952    1.157   .     T
C953   N954    1.157   .     T
C955   H957    1.108   .     S
C955   H958    1.103   .     S
C955   H1030   1.111   .     S
H956   C1103   1.111   1_455 S
C959   H962    1.107   .     S
C959   H961    1.102   .     S
C959   H1108   1.111   1_455 S
H960   C1033   1.111   .     S
C963   O1007   1.286   .     A
C963   C974    1.409   .     S
C963   O1009   1.282   .     A
C964   O1008   1.286   .     A
C964   C973    1.409   .     S
C964   O1010   1.282   .     A
C965   C967    1.395   .     A
C965   C994    1.417   .     A
C965   H999    1.083   .     S
C966   C968    1.395   .     A
C966   C993    1.417   .     A
C966   H1000   1.083   .     S
C967   C1017   1.445   .     S
C968   C1019   1.445   .     S
C968   C326    1.404   1_556 S
C969   C1025   1.447   .     S
C969   C974    1.404   .     A
C969   C1193   1.375   .     S
C970   C973    1.404   .     A
C970   C1027   1.447   .     S
C971   H1001   1.085   .     S
C971   C973    1.393   .     A
C972   C974    1.393   .     A
C972   H1002   1.085   .     S
C972   C1192   1.375   .     S
C975   C1029   1.499   .     S
C975   N1006   1.384   .     A
C975   C1051   1.420   .     S
C976   C1033   1.499   .     S
C976   N1005   1.384   .     A
C977   N1005   1.356   .     A
C977   H1003   1.083   .     S
C978   N1006   1.356   .     A
C978   H1004   1.083   .     S
C978   C1050   1.420   .     S
C979   O1013   1.291   .     A
C979   O1011   1.305   .     A
C979   C981    1.465   .     S
C980   C982    1.465   .     S
C980   O1012   1.305   .     A
C980   O1014   1.291   .     A
C981   C985    1.400   .     A
C981   C987    1.407   .     A
C982   C986    1.400   .     A
C982   C988    1.407   .     A
C983   H997    1.082   .     S
C983   C985    1.397   .     A
C983   C991    1.412   .     A
C984   H998    1.082   .     S
C984   C986    1.397   .     A
C984   C992    1.412   .     A
C985   H996    1.083   .     S
C986   H995    1.083   .     S
C987   C1023   1.457   .     S
C987   C989    1.394   .     A
C988   C1021   1.457   .     S
C988   C990    1.394   .     A
C989   C991    1.417   .     A
C989   C993    1.417   .     A
C990   C992    1.416   .     A
C990   C994    1.417   .     A
C991   C301    1.404   1_556 S
C993   C328    1.404   1_556 S
N1005  Zn1015  2.022   .     S
N1006  Zn1016  2.022   .     S
O1007  Zn1015  1.992   .     S
O1008  Zn1016  1.992   .     S
O1009  Zn1016  1.978   .     S
O1010  Zn1015  1.978   .     S
O1011  Zn1015  1.983   .     S
O1012  Zn1016  1.983   .     S
O1013  Zn1016  1.943   .     S
O1014  Zn1015  1.943   .     S
N1018  C1091   1.157   .     S
C1019  N1094   1.157   .     S
C1021  N1022   1.158   .     T
C1023  N1024   1.158   .     T
C1025  N1026   1.157   .     T
C1027  N1028   1.157   .     T
C1029  H1031   1.108   .     S
C1029  H1032   1.103   .     S
C1029  H1104   1.111   .     S
C1033  H1036   1.107   .     S
C1033  H1035   1.102   .     S
H1034  C1107   1.111   .     S
C1037  O1081   1.286   .     A
C1037  C1048   1.409   .     S
C1037  O1083   1.282   .     A
C1038  O1082   1.286   .     A
C1038  C1047   1.409   .     S
C1038  O1084   1.282   .     A
C1039  C1041   1.395   .     A
C1039  C1068   1.417   .     A
C1039  H1073   1.083   .     S
C1040  C1042   1.395   .     A
C1040  C1067   1.417   .     A
C1040  H1074   1.083   .     S
C1041  C1091   1.445   .     S
C1042  C1093   1.445   .     S
C1042  C400    1.404   1_556 S
C1043  C1099   1.447   .     S
C1043  C1048   1.404   .     A
C1043  C1267   1.375   .     S
C1044  C1047   1.404   .     A
C1044  C1101   1.447   .     S
C1045  H1075   1.085   .     S
C1045  C1047   1.393   .     A
C1046  C1048   1.393   .     A
C1046  H1076   1.085   .     S
C1046  C1266   1.375   .     S
C1049  C1103   1.499   .     S
C1049  N1080   1.384   .     A
C1049  C903    1.420   1_655 S
C1050  C1107   1.499   .     S
C1050  N1079   1.384   .     A
C1051  N1079   1.356   .     A
C1051  H1077   1.083   .     S
C1052  N1080   1.356   .     A
C1052  H1078   1.083   .     S
C1052  C902    1.420   1_655 S
C1053  O1087   1.291   .     A
C1053  O1085   1.305   .     A
C1053  C1055   1.465   .     S
C1054  C1056   1.465   .     S
C1054  O1086   1.305   .     A
C1054  O1088   1.291   .     A
C1055  C1059   1.400   .     A
C1055  C1061   1.407   .     A
C1056  C1060   1.400   .     A
C1056  C1062   1.407   .     A
C1057  H1071   1.082   .     S
C1057  C1059   1.397   .     A
C1057  C1065   1.412   .     A
C1058  H1072   1.082   .     S
C1058  C1060   1.397   .     A
C1058  C1066   1.412   .     A
C1059  H1070   1.083   .     S
C1060  H1069   1.083   .     S
C1061  C1097   1.457   .     S
C1061  C1063   1.394   .     A
C1062  C1095   1.457   .     S
C1062  C1064   1.394   .     A
C1063  C1065   1.417   .     A
C1063  C1067   1.417   .     A
C1064  C1066   1.416   .     A
C1064  C1068   1.417   .     A
C1065  C375    1.404   1_556 S
C1067  C402    1.404   1_556 S
N1079  Zn1089  2.022   .     S
N1080  Zn1090  2.022   .     S
O1081  Zn1089  1.992   .     S
O1082  Zn1090  1.992   .     S
O1083  Zn1090  1.978   .     S
O1084  Zn1089  1.978   .     S
O1085  Zn1089  1.983   .     S
O1086  Zn1090  1.983   .     S
O1087  Zn1090  1.943   .     S
O1088  Zn1089  1.943   .     S
N1092  C943    1.157   1_655 S
C1093  N946    1.157   1_655 S
C1095  N1096   1.158   .     T
C1097  N1098   1.158   .     T
C1099  N1100   1.157   .     T
C1101  N1102   1.157   .     T
C1103  H1105   1.108   .     S
C1103  H1106   1.103   .     S
C1103  H956    1.111   1_655 S
C1107  H1110   1.107   .     S
C1107  H1109   1.102   .     S
H1108  C959    1.111   1_655 S
C1111  O1155   1.286   .     A
C1111  C1122   1.409   .     S
C1111  O1157   1.282   .     A
C1112  O1156   1.286   .     A
C1112  C1121   1.409   .     S
C1112  O1158   1.282   .     A
C1113  C1115   1.395   .     A
C1113  C1142   1.417   .     A
C1113  H1147   1.083   .     S
C1114  C1116   1.395   .     A
C1114  C1141   1.417   .     A
C1114  H1148   1.083   .     S
C1115  C1165   1.445   .     S
C1116  C1167   1.445   .     S
C1116  C474    1.404   1_556 S
C1117  C1173   1.447   .     S
C1117  C1122   1.404   .     A
C1117  C675    1.375   1_565 S
C1118  C1121   1.404   .     A
C1118  C1175   1.447   .     S
C1119  H1149   1.085   .     S
C1119  C1121   1.393   .     A
C1120  C1122   1.393   .     A
C1120  H1150   1.085   .     S
C1120  C674    1.375   1_565 S
C1123  C1177   1.499   .     S
C1123  N1154   1.384   .     A
C1123  C1199   1.420   .     S
C1124  C1181   1.499   .     S
C1124  N1153   1.384   .     A
C1124  C1274   1.420   1_455 S
C1125  N1153   1.356   .     A
C1125  H1151   1.083   .     S
C1125  C1271   1.420   1_455 S
C1126  N1154   1.356   .     A
C1126  H1152   1.083   .     S
C1126  C1198   1.420   .     S
C1127  O1161   1.291   .     A
C1127  O1159   1.305   .     A
C1127  C1129   1.465   .     S
C1128  C1130   1.465   .     S
C1128  O1160   1.305   .     A
C1128  O1162   1.291   .     A
C1129  C1133   1.400   .     A
C1129  C1135   1.407   .     A
C1130  C1134   1.400   .     A
C1130  C1136   1.407   .     A
C1131  H1145   1.082   .     S
C1131  C1133   1.397   .     A
C1131  C1139   1.412   .     A
C1132  H1146   1.082   .     S
C1132  C1134   1.397   .     A
C1132  C1140   1.412   .     A
C1133  H1144   1.083   .     S
C1134  H1143   1.083   .     S
C1135  C1171   1.457   .     S
C1135  C1137   1.394   .     A
C1136  C1169   1.457   .     S
C1136  C1138   1.394   .     A
C1137  C1139   1.417   .     A
C1137  C1141   1.417   .     A
C1138  C1140   1.416   .     A
C1138  C1142   1.417   .     A
C1139  C449    1.404   1_556 S
C1141  C476    1.404   1_556 S
N1153  Zn1163  2.022   .     S
N1154  Zn1164  2.022   .     S
O1155  Zn1163  1.992   .     S
O1156  Zn1164  1.992   .     S
O1157  Zn1164  1.978   .     S
O1158  Zn1163  1.978   .     S
O1159  Zn1163  1.983   .     S
O1160  Zn1164  1.983   .     S
O1161  Zn1164  1.943   .     S
O1162  Zn1163  1.943   .     S
C1165  N1314   1.157   1_455 S
N1166  C1239   1.157   .     S
C1167  N1242   1.157   .     S
N1168  C1315   1.157   1_455 S
C1169  N1170   1.158   .     T
C1171  N1172   1.158   .     T
C1173  N1174   1.157   .     T
C1175  N1176   1.157   .     T
C1177  H1179   1.108   .     S
C1177  H1180   1.103   .     S
C1177  H1252   1.111   .     S
H1178  C1325   1.111   1_455 S
C1181  H1184   1.107   .     S
C1181  H1183   1.102   .     S
C1181  H1330   1.111   1_455 S
H1182  C1255   1.111   .     S
C1185  O1229   1.286   .     A
C1185  C1196   1.409   .     S
C1185  O1231   1.282   .     A
C1186  O1230   1.286   .     A
C1186  C1195   1.409   .     S
C1186  O1232   1.282   .     A
C1187  C1189   1.395   .     A
C1187  C1216   1.417   .     A
C1187  H1221   1.083   .     S
C1188  C1190   1.395   .     A
C1188  C1215   1.417   .     A
C1188  H1222   1.083   .     S
C1189  C1239   1.445   .     S
C1190  C1241   1.445   .     S
C1190  C548    1.404   1_556 S
C1191  C1247   1.447   .     S
C1191  C1196   1.404   .     A
C1191  C749    1.375   1_565 S
C1192  C1195   1.404   .     A
C1192  C1249   1.447   .     S
C1193  H1223   1.085   .     S
C1193  C1195   1.393   .     A
C1194  C1196   1.393   .     A
C1194  H1224   1.085   .     S
C1194  C748    1.375   1_565 S
C1197  C1251   1.499   .     S
C1197  N1228   1.384   .     A
C1197  C1273   1.420   .     S
C1198  C1255   1.499   .     S
C1198  N1227   1.384   .     A
C1199  N1227   1.356   .     A
C1199  H1225   1.083   .     S
C1200  N1228   1.356   .     A
C1200  H1226   1.083   .     S
C1200  C1272   1.420   .     S
C1201  O1235   1.291   .     A
C1201  O1233   1.305   .     A
C1201  C1203   1.465   .     S
C1202  C1204   1.465   .     S
C1202  O1234   1.305   .     A
C1202  O1236   1.291   .     A
C1203  C1207   1.400   .     A
C1203  C1209   1.407   .     A
C1204  C1208   1.400   .     A
C1204  C1210   1.407   .     A
C1205  H1219   1.082   .     S
C1205  C1207   1.397   .     A
C1205  C1213   1.412   .     A
C1206  H1220   1.082   .     S
C1206  C1208   1.397   .     A
C1206  C1214   1.412   .     A
C1207  H1218   1.083   .     S
C1208  H1217   1.083   .     S
C1209  C1245   1.457   .     S
C1209  C1211   1.394   .     A
C1210  C1243   1.457   .     S
C1210  C1212   1.394   .     A
C1211  C1213   1.417   .     A
C1211  C1215   1.417   .     A
C1212  C1214   1.416   .     A
C1212  C1216   1.417   .     A
C1213  C523    1.404   1_556 S
C1215  C550    1.404   1_556 S
N1227  Zn1237  2.022   .     S
N1228  Zn1238  2.022   .     S
O1229  Zn1237  1.992   .     S
O1230  Zn1238  1.992   .     S
O1231  Zn1238  1.978   .     S
O1232  Zn1237  1.978   .     S
O1233  Zn1237  1.983   .     S
O1234  Zn1238  1.983   .     S
O1235  Zn1238  1.943   .     S
O1236  Zn1237  1.943   .     S
N1240  C1313   1.157   .     S
C1241  N1316   1.157   .     S
C1243  N1244   1.158   .     T
C1245  N1246   1.158   .     T
C1247  N1248   1.157   .     T
C1249  N1250   1.157   .     T
C1251  H1253   1.108   .     S
C1251  H1254   1.103   .     S
C1251  H1326   1.111   .     S
C1255  H1258   1.107   .     S
C1255  H1257   1.102   .     S
H1256  C1329   1.111   .     S
C1259  O1303   1.286   .     A
C1259  C1270   1.409   .     S
C1259  O1305   1.282   .     A
C1260  O1304   1.286   .     A
C1260  C1269   1.409   .     S
C1260  O1306   1.282   .     A
C1261  C1263   1.395   .     A
C1261  C1290   1.417   .     A
C1261  H1295   1.083   .     S
C1262  C1264   1.395   .     A
C1262  C1289   1.417   .     A
C1262  H1296   1.083   .     S
C1263  C1313   1.445   .     S
C1264  C1315   1.445   .     S
C1264  C622    1.404   1_556 S
C1265  C1321   1.447   .     S
C1265  C1270   1.404   .     A
C1265  C823    1.375   1_565 S
C1266  C1269   1.404   .     A
C1266  C1323   1.447   .     S
C1267  H1297   1.085   .     S
C1267  C1269   1.393   .     A
C1268  C1270   1.393   .     A
C1268  H1298   1.085   .     S
C1268  C822    1.375   1_565 S
C1271  C1325   1.499   .     S
C1271  N1302   1.384   .     A
C1271  C1125   1.420   1_655 S
C1272  C1329   1.499   .     S
C1272  N1301   1.384   .     A
C1273  N1301   1.356   .     A
C1273  H1299   1.083   .     S
C1274  N1302   1.356   .     A
C1274  H1300   1.083   .     S
C1274  C1124   1.420   1_655 S
C1275  O1309   1.291   .     A
C1275  O1307   1.305   .     A
C1275  C1277   1.465   .     S
C1276  C1278   1.465   .     S
C1276  O1308   1.305   .     A
C1276  O1310   1.291   .     A
C1277  C1281   1.400   .     A
C1277  C1283   1.407   .     A
C1278  C1282   1.400   .     A
C1278  C1284   1.407   .     A
C1279  H1293   1.082   .     S
C1279  C1281   1.397   .     A
C1279  C1287   1.412   .     A
C1280  H1294   1.082   .     S
C1280  C1282   1.397   .     A
C1280  C1288   1.412   .     A
C1281  H1292   1.083   .     S
C1282  H1291   1.083   .     S
C1283  C1319   1.457   .     S
C1283  C1285   1.394   .     A
C1284  C1317   1.457   .     S
C1284  C1286   1.394   .     A
C1285  C1287   1.417   .     A
C1285  C1289   1.417   .     A
C1286  C1288   1.416   .     A
C1286  C1290   1.417   .     A
C1287  C597    1.404   1_556 S
C1289  C624    1.404   1_556 S
N1301  Zn1311  2.022   .     S
N1302  Zn1312  2.022   .     S
O1303  Zn1311  1.992   .     S
O1304  Zn1312  1.992   .     S
O1305  Zn1312  1.978   .     S
O1306  Zn1311  1.978   .     S
O1307  Zn1311  1.983   .     S
O1308  Zn1312  1.983   .     S
O1309  Zn1312  1.943   .     S
O1310  Zn1311  1.943   .     S
N1314  C1165   1.157   1_655 S
C1315  N1168   1.157   1_655 S
C1317  N1318   1.158   .     T
C1319  N1320   1.158   .     T
C1321  N1322   1.157   .     T
C1323  N1324   1.157   .     T
C1325  H1327   1.108   .     S
C1325  H1328   1.103   .     S
C1325  H1178   1.111   1_655 S
C1329  H1332   1.107   .     S
C1329  H1331   1.102   .     S
H1330  C1181   1.111   1_655 S
