data_str_m3_o10_o16_pcu_sym.13
_audit_creation_date              2020-01-03
_audit_creation_method            'Materials Studio'
_symmetry_space_group_name_H-M    'P1'
_symmetry_Int_Tables_number       1
_symmetry_cell_setting            triclinic
loop_
_symmetry_equiv_pos_as_xyz
  x,y,z
_cell_length_a                    23.4834
_cell_length_b                    25.6546
_cell_length_c                    24.0302
_cell_angle_alpha                 91.4642
_cell_angle_beta                  100.6383
_cell_angle_gamma                 94.2705
loop_
_atom_site_label
_atom_site_type_symbol
_atom_site_fract_x
_atom_site_fract_y
_atom_site_fract_z
_atom_site_U_iso_or_equiv
_atom_site_adp_type
_atom_site_occupancy
C1     C     0.01433   0.26483   0.24662   0.00000  Uiso   1.00
C2     C     0.05262   0.17220   0.41703   0.00000  Uiso   1.00
C3     C     0.02085   0.31923   0.24168   0.00000  Uiso   1.00
C4     C     0.03520   0.16876   0.35552   0.00000  Uiso   1.00
C5     C     0.30870   0.01353   0.24548   0.00000  Uiso   1.00
C6     C     0.31764   0.06835   0.24875   0.00000  Uiso   1.00
C7     C     0.29789   0.16323   0.14453   0.00000  Uiso   1.00
C8     C     0.26913   0.09981   0.49919   0.00000  Uiso   1.00
C9     C     0.27865   0.15528   0.08366   0.00000  Uiso   1.00
C10    C     0.02736   0.20814   0.44794   0.00000  Uiso   1.00
C11    C     0.05454   0.22421   0.00256   0.00000  Uiso   1.00
C12    C     0.13499   0.17108   0.49399   0.00000  Uiso   1.00
C13    C     0.10886   0.20753   0.02488   0.00000  Uiso   1.00
C14    C     0.02336   0.09702   0.07117   0.00000  Uiso   1.00
C15    C     0.07821   0.06379   0.38776   0.00000  Uiso   1.00
C16    C     0.10215   0.14830   0.44300   0.00000  Uiso   1.00
C17    C     0.19186   0.15555   0.01214   0.00000  Uiso   1.00
C18    C     0.21308   0.11565   0.48128   0.00000  Uiso   1.00
C19    C     0.17639   0.08870   0.43600   0.00000  Uiso   1.00
C20    C     0.12007   0.10273   0.41912   0.00000  Uiso   1.00
C21    C     0.22763   0.17726   0.06114   0.00000  Uiso   1.00
C22    C     0.30195   0.11870   0.05104   0.00000  Uiso   1.00
H23    H     0.26595   0.32950   0.24919   0.00000  Uiso   1.00
H24    H     0.06350   0.00325   0.23763   0.00000  Uiso   1.00
H25    H     0.15678   0.12510   0.20830   0.00000  Uiso   1.00
H26    H     0.17654   0.20823   0.29171   0.00000  Uiso   1.00
H27    H     0.19028   0.05445   0.41638   0.00000  Uiso   1.00
H28    H     0.28552   0.07002   0.47485   0.00000  Uiso   1.00
H29    H     0.21474   0.20856   0.08565   0.00000  Uiso   1.00
H30    H     0.32168   0.22584   0.42884   0.00000  Uiso   1.00
H31    H     0.12846   0.22325   0.06656   0.00000  Uiso   1.00
H32    H     0.03506   0.25198   0.02648   0.00000  Uiso   1.00
N33    N     0.14493   0.15223   0.23542   0.00000  Uiso   1.00
N34    N     0.18840   0.18110   0.26457   0.00000  Uiso   1.00
N35    N     0.06725   0.07965   0.08716   0.00000  Uiso   1.00
N36    N     0.04459   0.03167   0.36437   0.00000  Uiso   1.00
O37    O     0.29769   0.24629   0.25357   0.00000  Uiso   1.00
O38    O     0.05742   0.23704   0.24423   0.00000  Uiso   1.00
O39    O     0.31490   0.17358   0.33380   0.00000  Uiso   1.00
O40    O     0.07463   0.16433   0.32446   0.00000  Uiso   1.00
O41    O     0.27592   0.09629   0.25576   0.00000  Uiso   1.00
O42    O     0.03565   0.08704   0.24642   0.00000  Uiso   1.00
O43    O     0.25870   0.16901   0.17554   0.00000  Uiso   1.00
O44    O     0.01843   0.15976   0.16620   0.00000  Uiso   1.00
Zn45   Zn    0.27119   0.17284   0.25623   0.00000  Uiso   1.00
Zn46   Zn    0.06214   0.16049   0.24376   0.00000  Uiso   1.00
C47    C     0.34766   0.26483   0.24662   0.00000  Uiso   1.00
C48    C     0.38596   0.17220   0.41703   0.00000  Uiso   1.00
C49    C     0.35418   0.31923   0.24168   0.00000  Uiso   1.00
C50    C     0.36854   0.16876   0.35552   0.00000  Uiso   1.00
C51    C     0.64204   0.01353   0.24548   0.00000  Uiso   1.00
C52    C     0.65098   0.06835   0.24875   0.00000  Uiso   1.00
C53    C     0.63122   0.16323   0.14453   0.00000  Uiso   1.00
C54    C     0.60247   0.09981   0.49919   0.00000  Uiso   1.00
C55    C     0.61198   0.15528   0.08366   0.00000  Uiso   1.00
C56    C     0.36070   0.20814   0.44794   0.00000  Uiso   1.00
C57    C     0.38788   0.22421   0.00256   0.00000  Uiso   1.00
C58    C     0.46832   0.17108   0.49399   0.00000  Uiso   1.00
C59    C     0.44220   0.20753   0.02488   0.00000  Uiso   1.00
C60    C     0.35669   0.09702   0.07117   0.00000  Uiso   1.00
C61    C     0.41154   0.06379   0.38776   0.00000  Uiso   1.00
C62    C     0.43548   0.14830   0.44300   0.00000  Uiso   1.00
C63    C     0.52519   0.15555   0.01214   0.00000  Uiso   1.00
C64    C     0.54642   0.11565   0.48128   0.00000  Uiso   1.00
C65    C     0.50972   0.08870   0.43600   0.00000  Uiso   1.00
C66    C     0.45341   0.10273   0.41912   0.00000  Uiso   1.00
C67    C     0.56096   0.17726   0.06114   0.00000  Uiso   1.00
C68    C     0.63528   0.11870   0.05104   0.00000  Uiso   1.00
H69    H     0.59928   0.32950   0.24919   0.00000  Uiso   1.00
H70    H     0.39684   0.00325   0.23763   0.00000  Uiso   1.00
H71    H     0.49011   0.12510   0.20830   0.00000  Uiso   1.00
H72    H     0.50988   0.20823   0.29171   0.00000  Uiso   1.00
H73    H     0.52361   0.05445   0.41638   0.00000  Uiso   1.00
H74    H     0.61885   0.07002   0.47485   0.00000  Uiso   1.00
H75    H     0.54808   0.20856   0.08565   0.00000  Uiso   1.00
H76    H     0.65501   0.22584   0.42884   0.00000  Uiso   1.00
H77    H     0.46180   0.22325   0.06656   0.00000  Uiso   1.00
H78    H     0.36839   0.25198   0.02648   0.00000  Uiso   1.00
N79    N     0.47827   0.15223   0.23542   0.00000  Uiso   1.00
N80    N     0.52173   0.18110   0.26457   0.00000  Uiso   1.00
N81    N     0.40059   0.07965   0.08716   0.00000  Uiso   1.00
N82    N     0.37792   0.03167   0.36437   0.00000  Uiso   1.00
O83    O     0.63102   0.24629   0.25357   0.00000  Uiso   1.00
O84    O     0.39075   0.23704   0.24423   0.00000  Uiso   1.00
O85    O     0.64823   0.17358   0.33380   0.00000  Uiso   1.00
O86    O     0.40796   0.16433   0.32446   0.00000  Uiso   1.00
O87    O     0.60925   0.09629   0.25576   0.00000  Uiso   1.00
O88    O     0.36898   0.08704   0.24642   0.00000  Uiso   1.00
O89    O     0.59204   0.16901   0.17554   0.00000  Uiso   1.00
O90    O     0.35177   0.15976   0.16620   0.00000  Uiso   1.00
Zn91   Zn    0.60453   0.17284   0.25623   0.00000  Uiso   1.00
Zn92   Zn    0.39547   0.16049   0.24376   0.00000  Uiso   1.00
C93    C     0.68099   0.26483   0.24662   0.00000  Uiso   1.00
C94    C     0.71929   0.17220   0.41703   0.00000  Uiso   1.00
C95    C     0.68751   0.31923   0.24168   0.00000  Uiso   1.00
C96    C     0.70187   0.16876   0.35552   0.00000  Uiso   1.00
C97    C     0.97537   0.01353   0.24548   0.00000  Uiso   1.00
C98    C     0.98431   0.06835   0.24875   0.00000  Uiso   1.00
C99    C     0.96455   0.16323   0.14453   0.00000  Uiso   1.00
C100   C     0.93580   0.09981   0.49919   0.00000  Uiso   1.00
C101   C     0.94532   0.15528   0.08366   0.00000  Uiso   1.00
C102   C     0.69403   0.20814   0.44794   0.00000  Uiso   1.00
C103   C     0.72121   0.22421   0.00256   0.00000  Uiso   1.00
C104   C     0.80166   0.17108   0.49399   0.00000  Uiso   1.00
C105   C     0.77553   0.20753   0.02488   0.00000  Uiso   1.00
C106   C     0.69002   0.09702   0.07117   0.00000  Uiso   1.00
C107   C     0.74488   0.06379   0.38776   0.00000  Uiso   1.00
C108   C     0.76882   0.14830   0.44300   0.00000  Uiso   1.00
C109   C     0.85853   0.15555   0.01214   0.00000  Uiso   1.00
C110   C     0.87975   0.11565   0.48128   0.00000  Uiso   1.00
C111   C     0.84305   0.08870   0.43600   0.00000  Uiso   1.00
C112   C     0.78674   0.10273   0.41912   0.00000  Uiso   1.00
C113   C     0.89429   0.17726   0.06114   0.00000  Uiso   1.00
C114   C     0.96861   0.11870   0.05104   0.00000  Uiso   1.00
H115   H     0.93261   0.32950   0.24919   0.00000  Uiso   1.00
H116   H     0.73017   0.00325   0.23763   0.00000  Uiso   1.00
H117   H     0.82345   0.12510   0.20830   0.00000  Uiso   1.00
H118   H     0.84321   0.20823   0.29171   0.00000  Uiso   1.00
H119   H     0.85694   0.05445   0.41638   0.00000  Uiso   1.00
H120   H     0.95219   0.07002   0.47485   0.00000  Uiso   1.00
H121   H     0.88141   0.20856   0.08565   0.00000  Uiso   1.00
H122   H     0.98834   0.22584   0.42884   0.00000  Uiso   1.00
H123   H     0.79513   0.22325   0.06656   0.00000  Uiso   1.00
H124   H     0.70172   0.25198   0.02648   0.00000  Uiso   1.00
N125   N     0.81160   0.15223   0.23542   0.00000  Uiso   1.00
N126   N     0.85507   0.18110   0.26457   0.00000  Uiso   1.00
N127   N     0.73392   0.07965   0.08716   0.00000  Uiso   1.00
N128   N     0.71126   0.03167   0.36437   0.00000  Uiso   1.00
O129   O     0.96435   0.24629   0.25357   0.00000  Uiso   1.00
O130   O     0.72408   0.23704   0.24423   0.00000  Uiso   1.00
O131   O     0.98157   0.17358   0.33380   0.00000  Uiso   1.00
O132   O     0.74130   0.16433   0.32446   0.00000  Uiso   1.00
O133   O     0.94258   0.09629   0.25576   0.00000  Uiso   1.00
O134   O     0.70231   0.08704   0.24642   0.00000  Uiso   1.00
O135   O     0.92537   0.16901   0.17554   0.00000  Uiso   1.00
O136   O     0.68510   0.15976   0.16620   0.00000  Uiso   1.00
Zn137  Zn    0.93786   0.17284   0.25623   0.00000  Uiso   1.00
Zn138  Zn    0.72881   0.16049   0.24376   0.00000  Uiso   1.00
C139   C     0.01433   0.59816   0.24662   0.00000  Uiso   1.00
C140   C     0.05262   0.50553   0.41703   0.00000  Uiso   1.00
C141   C     0.02085   0.65256   0.24168   0.00000  Uiso   1.00
C142   C     0.03520   0.50210   0.35552   0.00000  Uiso   1.00
C143   C     0.30870   0.34686   0.24548   0.00000  Uiso   1.00
C144   C     0.31764   0.40168   0.24875   0.00000  Uiso   1.00
C145   C     0.29789   0.49656   0.14453   0.00000  Uiso   1.00
C146   C     0.26913   0.43315   0.49919   0.00000  Uiso   1.00
C147   C     0.27865   0.48862   0.08366   0.00000  Uiso   1.00
C148   C     0.02736   0.54147   0.44794   0.00000  Uiso   1.00
C149   C     0.05454   0.55754   0.00256   0.00000  Uiso   1.00
C150   C     0.13499   0.50441   0.49399   0.00000  Uiso   1.00
C151   C     0.10886   0.54087   0.02488   0.00000  Uiso   1.00
C152   C     0.02336   0.43035   0.07117   0.00000  Uiso   1.00
C153   C     0.07821   0.39713   0.38776   0.00000  Uiso   1.00
C154   C     0.10215   0.48163   0.44300   0.00000  Uiso   1.00
C155   C     0.19186   0.48889   0.01214   0.00000  Uiso   1.00
C156   C     0.21308   0.44898   0.48128   0.00000  Uiso   1.00
C157   C     0.17639   0.42203   0.43600   0.00000  Uiso   1.00
C158   C     0.12007   0.43607   0.41912   0.00000  Uiso   1.00
C159   C     0.22763   0.51060   0.06114   0.00000  Uiso   1.00
C160   C     0.30195   0.45204   0.05104   0.00000  Uiso   1.00
H161   H     0.26595   0.66283   0.24919   0.00000  Uiso   1.00
H162   H     0.06350   0.33658   0.23763   0.00000  Uiso   1.00
H163   H     0.15678   0.45843   0.20830   0.00000  Uiso   1.00
H164   H     0.17654   0.54156   0.29171   0.00000  Uiso   1.00
H165   H     0.19028   0.38778   0.41638   0.00000  Uiso   1.00
H166   H     0.28552   0.40336   0.47485   0.00000  Uiso   1.00
H167   H     0.21474   0.54189   0.08565   0.00000  Uiso   1.00
H168   H     0.32168   0.55917   0.42884   0.00000  Uiso   1.00
H169   H     0.12846   0.55659   0.06656   0.00000  Uiso   1.00
H170   H     0.03506   0.58532   0.02648   0.00000  Uiso   1.00
N171   N     0.14493   0.48556   0.23542   0.00000  Uiso   1.00
N172   N     0.18840   0.51444   0.26457   0.00000  Uiso   1.00
N173   N     0.06725   0.41299   0.08716   0.00000  Uiso   1.00
N174   N     0.04459   0.36500   0.36437   0.00000  Uiso   1.00
O175   O     0.29769   0.57963   0.25357   0.00000  Uiso   1.00
O176   O     0.05742   0.57038   0.24423   0.00000  Uiso   1.00
O177   O     0.31490   0.50691   0.33380   0.00000  Uiso   1.00
O178   O     0.07463   0.49766   0.32446   0.00000  Uiso   1.00
O179   O     0.27592   0.42962   0.25576   0.00000  Uiso   1.00
O180   O     0.03565   0.42037   0.24642   0.00000  Uiso   1.00
O181   O     0.25870   0.50234   0.17554   0.00000  Uiso   1.00
O182   O     0.01843   0.49309   0.16620   0.00000  Uiso   1.00
Zn183  Zn    0.27119   0.50618   0.25623   0.00000  Uiso   1.00
Zn184  Zn    0.06214   0.49382   0.24376   0.00000  Uiso   1.00
C185   C     0.34766   0.59816   0.24662   0.00000  Uiso   1.00
C186   C     0.38596   0.50553   0.41703   0.00000  Uiso   1.00
C187   C     0.35418   0.65256   0.24168   0.00000  Uiso   1.00
C188   C     0.36854   0.50210   0.35552   0.00000  Uiso   1.00
C189   C     0.64204   0.34686   0.24548   0.00000  Uiso   1.00
C190   C     0.65098   0.40168   0.24875   0.00000  Uiso   1.00
C191   C     0.63122   0.49656   0.14453   0.00000  Uiso   1.00
C192   C     0.60247   0.43315   0.49919   0.00000  Uiso   1.00
C193   C     0.61198   0.48862   0.08366   0.00000  Uiso   1.00
C194   C     0.36070   0.54147   0.44794   0.00000  Uiso   1.00
C195   C     0.38788   0.55754   0.00256   0.00000  Uiso   1.00
C196   C     0.46832   0.50441   0.49399   0.00000  Uiso   1.00
C197   C     0.44220   0.54087   0.02488   0.00000  Uiso   1.00
C198   C     0.35669   0.43035   0.07117   0.00000  Uiso   1.00
C199   C     0.41154   0.39713   0.38776   0.00000  Uiso   1.00
C200   C     0.43548   0.48163   0.44300   0.00000  Uiso   1.00
C201   C     0.52519   0.48889   0.01214   0.00000  Uiso   1.00
C202   C     0.54642   0.44898   0.48128   0.00000  Uiso   1.00
C203   C     0.50972   0.42203   0.43600   0.00000  Uiso   1.00
C204   C     0.45341   0.43607   0.41912   0.00000  Uiso   1.00
C205   C     0.56096   0.51060   0.06114   0.00000  Uiso   1.00
C206   C     0.63528   0.45204   0.05104   0.00000  Uiso   1.00
H207   H     0.59928   0.66283   0.24919   0.00000  Uiso   1.00
H208   H     0.39684   0.33658   0.23763   0.00000  Uiso   1.00
H209   H     0.49011   0.45843   0.20830   0.00000  Uiso   1.00
H210   H     0.50988   0.54156   0.29171   0.00000  Uiso   1.00
H211   H     0.52361   0.38778   0.41638   0.00000  Uiso   1.00
H212   H     0.61885   0.40336   0.47485   0.00000  Uiso   1.00
H213   H     0.54808   0.54189   0.08565   0.00000  Uiso   1.00
H214   H     0.65501   0.55917   0.42884   0.00000  Uiso   1.00
H215   H     0.46180   0.55659   0.06656   0.00000  Uiso   1.00
H216   H     0.36839   0.58532   0.02648   0.00000  Uiso   1.00
N217   N     0.47827   0.48556   0.23542   0.00000  Uiso   1.00
N218   N     0.52173   0.51444   0.26457   0.00000  Uiso   1.00
N219   N     0.40059   0.41299   0.08716   0.00000  Uiso   1.00
N220   N     0.37792   0.36500   0.36437   0.00000  Uiso   1.00
O221   O     0.63102   0.57963   0.25357   0.00000  Uiso   1.00
O222   O     0.39075   0.57038   0.24423   0.00000  Uiso   1.00
O223   O     0.64823   0.50691   0.33380   0.00000  Uiso   1.00
O224   O     0.40796   0.49766   0.32446   0.00000  Uiso   1.00
O225   O     0.60925   0.42962   0.25576   0.00000  Uiso   1.00
O226   O     0.36898   0.42037   0.24642   0.00000  Uiso   1.00
O227   O     0.59204   0.50234   0.17554   0.00000  Uiso   1.00
O228   O     0.35177   0.49309   0.16620   0.00000  Uiso   1.00
Zn229  Zn    0.60453   0.50618   0.25623   0.00000  Uiso   1.00
Zn230  Zn    0.39547   0.49382   0.24376   0.00000  Uiso   1.00
C231   C     0.68099   0.59816   0.24662   0.00000  Uiso   1.00
C232   C     0.71929   0.50553   0.41703   0.00000  Uiso   1.00
C233   C     0.68751   0.65256   0.24168   0.00000  Uiso   1.00
C234   C     0.70187   0.50210   0.35552   0.00000  Uiso   1.00
C235   C     0.97537   0.34686   0.24548   0.00000  Uiso   1.00
C236   C     0.98431   0.40168   0.24875   0.00000  Uiso   1.00
C237   C     0.96455   0.49656   0.14453   0.00000  Uiso   1.00
C238   C     0.93580   0.43315   0.49919   0.00000  Uiso   1.00
C239   C     0.94532   0.48862   0.08366   0.00000  Uiso   1.00
C240   C     0.69403   0.54147   0.44794   0.00000  Uiso   1.00
C241   C     0.72121   0.55754   0.00256   0.00000  Uiso   1.00
C242   C     0.80166   0.50441   0.49399   0.00000  Uiso   1.00
C243   C     0.77553   0.54087   0.02488   0.00000  Uiso   1.00
C244   C     0.69002   0.43035   0.07117   0.00000  Uiso   1.00
C245   C     0.74488   0.39713   0.38776   0.00000  Uiso   1.00
C246   C     0.76882   0.48163   0.44300   0.00000  Uiso   1.00
C247   C     0.85853   0.48889   0.01214   0.00000  Uiso   1.00
C248   C     0.87975   0.44898   0.48128   0.00000  Uiso   1.00
C249   C     0.84305   0.42203   0.43600   0.00000  Uiso   1.00
C250   C     0.78674   0.43607   0.41912   0.00000  Uiso   1.00
C251   C     0.89429   0.51060   0.06114   0.00000  Uiso   1.00
C252   C     0.96861   0.45204   0.05104   0.00000  Uiso   1.00
H253   H     0.93261   0.66283   0.24919   0.00000  Uiso   1.00
H254   H     0.73017   0.33658   0.23763   0.00000  Uiso   1.00
H255   H     0.82345   0.45843   0.20830   0.00000  Uiso   1.00
H256   H     0.84321   0.54156   0.29171   0.00000  Uiso   1.00
H257   H     0.85694   0.38778   0.41638   0.00000  Uiso   1.00
H258   H     0.95219   0.40336   0.47485   0.00000  Uiso   1.00
H259   H     0.88141   0.54189   0.08565   0.00000  Uiso   1.00
H260   H     0.98834   0.55917   0.42884   0.00000  Uiso   1.00
H261   H     0.79513   0.55659   0.06656   0.00000  Uiso   1.00
H262   H     0.70172   0.58532   0.02648   0.00000  Uiso   1.00
N263   N     0.81160   0.48556   0.23542   0.00000  Uiso   1.00
N264   N     0.85507   0.51444   0.26457   0.00000  Uiso   1.00
N265   N     0.73392   0.41299   0.08716   0.00000  Uiso   1.00
N266   N     0.71126   0.36500   0.36437   0.00000  Uiso   1.00
O267   O     0.96435   0.57963   0.25357   0.00000  Uiso   1.00
O268   O     0.72408   0.57038   0.24423   0.00000  Uiso   1.00
O269   O     0.98157   0.50691   0.33380   0.00000  Uiso   1.00
O270   O     0.74130   0.49766   0.32446   0.00000  Uiso   1.00
O271   O     0.94258   0.42962   0.25576   0.00000  Uiso   1.00
O272   O     0.70231   0.42037   0.24642   0.00000  Uiso   1.00
O273   O     0.92537   0.50234   0.17554   0.00000  Uiso   1.00
O274   O     0.68510   0.49309   0.16620   0.00000  Uiso   1.00
Zn275  Zn    0.93786   0.50618   0.25623   0.00000  Uiso   1.00
Zn276  Zn    0.72881   0.49382   0.24376   0.00000  Uiso   1.00
C277   C     0.01433   0.93149   0.24662   0.00000  Uiso   1.00
C278   C     0.05262   0.83886   0.41703   0.00000  Uiso   1.00
C279   C     0.02085   0.98589   0.24168   0.00000  Uiso   1.00
C280   C     0.03520   0.83543   0.35552   0.00000  Uiso   1.00
C281   C     0.30870   0.68019   0.24548   0.00000  Uiso   1.00
C282   C     0.31764   0.73502   0.24875   0.00000  Uiso   1.00
C283   C     0.29789   0.82989   0.14453   0.00000  Uiso   1.00
C284   C     0.26913   0.76648   0.49919   0.00000  Uiso   1.00
C285   C     0.27865   0.82195   0.08366   0.00000  Uiso   1.00
C286   C     0.02736   0.87481   0.44794   0.00000  Uiso   1.00
C287   C     0.05454   0.89088   0.00256   0.00000  Uiso   1.00
C288   C     0.13499   0.83774   0.49399   0.00000  Uiso   1.00
C289   C     0.10886   0.87420   0.02488   0.00000  Uiso   1.00
C290   C     0.02336   0.76369   0.07117   0.00000  Uiso   1.00
C291   C     0.07821   0.73046   0.38776   0.00000  Uiso   1.00
C292   C     0.10215   0.81497   0.44300   0.00000  Uiso   1.00
C293   C     0.19186   0.82222   0.01214   0.00000  Uiso   1.00
C294   C     0.21308   0.78231   0.48128   0.00000  Uiso   1.00
C295   C     0.17639   0.75536   0.43600   0.00000  Uiso   1.00
C296   C     0.12007   0.76940   0.41912   0.00000  Uiso   1.00
C297   C     0.22763   0.84393   0.06114   0.00000  Uiso   1.00
C298   C     0.30195   0.78537   0.05104   0.00000  Uiso   1.00
H299   H     0.26595   0.99616   0.24919   0.00000  Uiso   1.00
H300   H     0.06350   0.66992   0.23763   0.00000  Uiso   1.00
H301   H     0.15678   0.79177   0.20830   0.00000  Uiso   1.00
H302   H     0.17654   0.87489   0.29171   0.00000  Uiso   1.00
H303   H     0.19028   0.72112   0.41638   0.00000  Uiso   1.00
H304   H     0.28552   0.73669   0.47485   0.00000  Uiso   1.00
H305   H     0.21474   0.87522   0.08565   0.00000  Uiso   1.00
H306   H     0.32168   0.89251   0.42884   0.00000  Uiso   1.00
H307   H     0.12846   0.88992   0.06656   0.00000  Uiso   1.00
H308   H     0.03506   0.91865   0.02648   0.00000  Uiso   1.00
N309   N     0.14493   0.81890   0.23542   0.00000  Uiso   1.00
N310   N     0.18840   0.84777   0.26457   0.00000  Uiso   1.00
N311   N     0.06725   0.74632   0.08716   0.00000  Uiso   1.00
N312   N     0.04459   0.69834   0.36437   0.00000  Uiso   1.00
O313   O     0.29769   0.91296   0.25357   0.00000  Uiso   1.00
O314   O     0.05742   0.90371   0.24423   0.00000  Uiso   1.00
O315   O     0.31490   0.84024   0.33380   0.00000  Uiso   1.00
O316   O     0.07463   0.83099   0.32446   0.00000  Uiso   1.00
O317   O     0.27592   0.76296   0.25576   0.00000  Uiso   1.00
O318   O     0.03565   0.75371   0.24642   0.00000  Uiso   1.00
O319   O     0.25870   0.83567   0.17554   0.00000  Uiso   1.00
O320   O     0.01843   0.82642   0.16620   0.00000  Uiso   1.00
Zn321  Zn    0.27119   0.83951   0.25623   0.00000  Uiso   1.00
Zn322  Zn    0.06214   0.82716   0.24376   0.00000  Uiso   1.00
C323   C     0.34766   0.93149   0.24662   0.00000  Uiso   1.00
C324   C     0.38596   0.83886   0.41703   0.00000  Uiso   1.00
C325   C     0.35418   0.98589   0.24168   0.00000  Uiso   1.00
C326   C     0.36854   0.83543   0.35552   0.00000  Uiso   1.00
C327   C     0.64204   0.68019   0.24548   0.00000  Uiso   1.00
C328   C     0.65098   0.73502   0.24875   0.00000  Uiso   1.00
C329   C     0.63122   0.82989   0.14453   0.00000  Uiso   1.00
C330   C     0.60247   0.76648   0.49919   0.00000  Uiso   1.00
C331   C     0.61198   0.82195   0.08366   0.00000  Uiso   1.00
C332   C     0.36070   0.87481   0.44794   0.00000  Uiso   1.00
C333   C     0.38788   0.89088   0.00256   0.00000  Uiso   1.00
C334   C     0.46832   0.83774   0.49399   0.00000  Uiso   1.00
C335   C     0.44220   0.87420   0.02488   0.00000  Uiso   1.00
C336   C     0.35669   0.76369   0.07117   0.00000  Uiso   1.00
C337   C     0.41154   0.73046   0.38776   0.00000  Uiso   1.00
C338   C     0.43548   0.81497   0.44300   0.00000  Uiso   1.00
C339   C     0.52519   0.82222   0.01214   0.00000  Uiso   1.00
C340   C     0.54642   0.78231   0.48128   0.00000  Uiso   1.00
C341   C     0.50972   0.75536   0.43600   0.00000  Uiso   1.00
C342   C     0.45341   0.76940   0.41912   0.00000  Uiso   1.00
C343   C     0.56096   0.84393   0.06114   0.00000  Uiso   1.00
C344   C     0.63528   0.78537   0.05104   0.00000  Uiso   1.00
H345   H     0.59928   0.99616   0.24919   0.00000  Uiso   1.00
H346   H     0.39684   0.66992   0.23763   0.00000  Uiso   1.00
H347   H     0.49011   0.79177   0.20830   0.00000  Uiso   1.00
H348   H     0.50988   0.87489   0.29171   0.00000  Uiso   1.00
H349   H     0.52361   0.72112   0.41638   0.00000  Uiso   1.00
H350   H     0.61885   0.73669   0.47485   0.00000  Uiso   1.00
H351   H     0.54808   0.87522   0.08565   0.00000  Uiso   1.00
H352   H     0.65501   0.89251   0.42884   0.00000  Uiso   1.00
H353   H     0.46180   0.88992   0.06656   0.00000  Uiso   1.00
H354   H     0.36839   0.91865   0.02648   0.00000  Uiso   1.00
N355   N     0.47827   0.81890   0.23542   0.00000  Uiso   1.00
N356   N     0.52173   0.84777   0.26457   0.00000  Uiso   1.00
N357   N     0.40059   0.74632   0.08716   0.00000  Uiso   1.00
N358   N     0.37792   0.69834   0.36437   0.00000  Uiso   1.00
O359   O     0.63102   0.91296   0.25357   0.00000  Uiso   1.00
O360   O     0.39075   0.90371   0.24423   0.00000  Uiso   1.00
O361   O     0.64823   0.84024   0.33380   0.00000  Uiso   1.00
O362   O     0.40796   0.83099   0.32446   0.00000  Uiso   1.00
O363   O     0.60925   0.76296   0.25576   0.00000  Uiso   1.00
O364   O     0.36898   0.75371   0.24642   0.00000  Uiso   1.00
O365   O     0.59204   0.83567   0.17554   0.00000  Uiso   1.00
O366   O     0.35177   0.82642   0.16620   0.00000  Uiso   1.00
Zn367  Zn    0.60453   0.83951   0.25623   0.00000  Uiso   1.00
Zn368  Zn    0.39547   0.82716   0.24376   0.00000  Uiso   1.00
C369   C     0.68099   0.93149   0.24662   0.00000  Uiso   1.00
C370   C     0.71929   0.83886   0.41703   0.00000  Uiso   1.00
C371   C     0.68751   0.98589   0.24168   0.00000  Uiso   1.00
C372   C     0.70187   0.83543   0.35552   0.00000  Uiso   1.00
C373   C     0.97537   0.68019   0.24548   0.00000  Uiso   1.00
C374   C     0.98431   0.73502   0.24875   0.00000  Uiso   1.00
C375   C     0.96455   0.82989   0.14453   0.00000  Uiso   1.00
C376   C     0.93580   0.76648   0.49919   0.00000  Uiso   1.00
C377   C     0.94532   0.82195   0.08366   0.00000  Uiso   1.00
C378   C     0.69403   0.87481   0.44794   0.00000  Uiso   1.00
C379   C     0.72121   0.89088   0.00256   0.00000  Uiso   1.00
C380   C     0.80166   0.83774   0.49399   0.00000  Uiso   1.00
C381   C     0.77553   0.87420   0.02488   0.00000  Uiso   1.00
C382   C     0.69002   0.76369   0.07117   0.00000  Uiso   1.00
C383   C     0.74488   0.73046   0.38776   0.00000  Uiso   1.00
C384   C     0.76882   0.81497   0.44300   0.00000  Uiso   1.00
C385   C     0.85853   0.82222   0.01214   0.00000  Uiso   1.00
C386   C     0.87975   0.78231   0.48128   0.00000  Uiso   1.00
C387   C     0.84305   0.75536   0.43600   0.00000  Uiso   1.00
C388   C     0.78674   0.76940   0.41912   0.00000  Uiso   1.00
C389   C     0.89429   0.84393   0.06114   0.00000  Uiso   1.00
C390   C     0.96861   0.78537   0.05104   0.00000  Uiso   1.00
H391   H     0.93261   0.99616   0.24919   0.00000  Uiso   1.00
H392   H     0.73017   0.66992   0.23763   0.00000  Uiso   1.00
H393   H     0.82345   0.79177   0.20830   0.00000  Uiso   1.00
H394   H     0.84321   0.87489   0.29171   0.00000  Uiso   1.00
H395   H     0.85694   0.72112   0.41638   0.00000  Uiso   1.00
H396   H     0.95219   0.73669   0.47485   0.00000  Uiso   1.00
H397   H     0.88141   0.87522   0.08565   0.00000  Uiso   1.00
H398   H     0.98834   0.89251   0.42884   0.00000  Uiso   1.00
H399   H     0.79513   0.88992   0.06656   0.00000  Uiso   1.00
H400   H     0.70172   0.91865   0.02648   0.00000  Uiso   1.00
N401   N     0.81160   0.81890   0.23542   0.00000  Uiso   1.00
N402   N     0.85507   0.84777   0.26457   0.00000  Uiso   1.00
N403   N     0.73392   0.74632   0.08716   0.00000  Uiso   1.00
N404   N     0.71126   0.69834   0.36437   0.00000  Uiso   1.00
O405   O     0.96435   0.91296   0.25357   0.00000  Uiso   1.00
O406   O     0.72408   0.90371   0.24423   0.00000  Uiso   1.00
O407   O     0.98157   0.84024   0.33380   0.00000  Uiso   1.00
O408   O     0.74130   0.83099   0.32446   0.00000  Uiso   1.00
O409   O     0.94258   0.76296   0.25576   0.00000  Uiso   1.00
O410   O     0.70231   0.75371   0.24642   0.00000  Uiso   1.00
O411   O     0.92537   0.83567   0.17554   0.00000  Uiso   1.00
O412   O     0.68510   0.82642   0.16620   0.00000  Uiso   1.00
Zn413  Zn    0.93786   0.83951   0.25623   0.00000  Uiso   1.00
Zn414  Zn    0.72881   0.82716   0.24376   0.00000  Uiso   1.00
C415   C     0.01433   0.26483   0.74662   0.00000  Uiso   1.00
C416   C     0.05262   0.17220   0.91703   0.00000  Uiso   1.00
C417   C     0.02085   0.31923   0.74168   0.00000  Uiso   1.00
C418   C     0.03520   0.16876   0.85552   0.00000  Uiso   1.00
C419   C     0.30870   0.01353   0.74548   0.00000  Uiso   1.00
C420   C     0.31764   0.06835   0.74875   0.00000  Uiso   1.00
C421   C     0.29789   0.16323   0.64453   0.00000  Uiso   1.00
C422   C     0.26913   0.09981   0.99919   0.00000  Uiso   1.00
C423   C     0.27865   0.15528   0.58366   0.00000  Uiso   1.00
C424   C     0.02736   0.20814   0.94794   0.00000  Uiso   1.00
C425   C     0.05454   0.22421   0.50256   0.00000  Uiso   1.00
C426   C     0.13499   0.17108   0.99399   0.00000  Uiso   1.00
C427   C     0.10886   0.20753   0.52488   0.00000  Uiso   1.00
C428   C     0.02336   0.09702   0.57117   0.00000  Uiso   1.00
C429   C     0.07821   0.06379   0.88776   0.00000  Uiso   1.00
C430   C     0.10215   0.14830   0.94300   0.00000  Uiso   1.00
C431   C     0.19186   0.15555   0.51214   0.00000  Uiso   1.00
C432   C     0.21308   0.11565   0.98128   0.00000  Uiso   1.00
C433   C     0.17639   0.08870   0.93600   0.00000  Uiso   1.00
C434   C     0.12007   0.10273   0.91912   0.00000  Uiso   1.00
C435   C     0.22763   0.17726   0.56114   0.00000  Uiso   1.00
C436   C     0.30195   0.11870   0.55104   0.00000  Uiso   1.00
H437   H     0.26595   0.32950   0.74919   0.00000  Uiso   1.00
H438   H     0.06350   0.00325   0.73763   0.00000  Uiso   1.00
H439   H     0.15678   0.12510   0.70830   0.00000  Uiso   1.00
H440   H     0.17654   0.20823   0.79171   0.00000  Uiso   1.00
H441   H     0.19028   0.05445   0.91638   0.00000  Uiso   1.00
H442   H     0.28552   0.07002   0.97485   0.00000  Uiso   1.00
H443   H     0.21474   0.20856   0.58565   0.00000  Uiso   1.00
H444   H     0.32168   0.22584   0.92884   0.00000  Uiso   1.00
H445   H     0.12846   0.22325   0.56656   0.00000  Uiso   1.00
H446   H     0.03506   0.25198   0.52648   0.00000  Uiso   1.00
N447   N     0.14493   0.15223   0.73542   0.00000  Uiso   1.00
N448   N     0.18840   0.18110   0.76457   0.00000  Uiso   1.00
N449   N     0.06725   0.07965   0.58716   0.00000  Uiso   1.00
N450   N     0.04459   0.03167   0.86437   0.00000  Uiso   1.00
O451   O     0.29769   0.24629   0.75357   0.00000  Uiso   1.00
O452   O     0.05742   0.23704   0.74423   0.00000  Uiso   1.00
O453   O     0.31490   0.17358   0.83380   0.00000  Uiso   1.00
O454   O     0.07463   0.16433   0.82446   0.00000  Uiso   1.00
O455   O     0.27592   0.09629   0.75576   0.00000  Uiso   1.00
O456   O     0.03565   0.08704   0.74642   0.00000  Uiso   1.00
O457   O     0.25870   0.16901   0.67554   0.00000  Uiso   1.00
O458   O     0.01843   0.15976   0.66620   0.00000  Uiso   1.00
Zn459  Zn    0.27119   0.17284   0.75623   0.00000  Uiso   1.00
Zn460  Zn    0.06214   0.16049   0.74376   0.00000  Uiso   1.00
C461   C     0.34766   0.26483   0.74662   0.00000  Uiso   1.00
C462   C     0.38596   0.17220   0.91703   0.00000  Uiso   1.00
C463   C     0.35418   0.31923   0.74168   0.00000  Uiso   1.00
C464   C     0.36854   0.16876   0.85552   0.00000  Uiso   1.00
C465   C     0.64204   0.01353   0.74548   0.00000  Uiso   1.00
C466   C     0.65098   0.06835   0.74875   0.00000  Uiso   1.00
C467   C     0.63122   0.16323   0.64453   0.00000  Uiso   1.00
C468   C     0.60247   0.09981   0.99919   0.00000  Uiso   1.00
C469   C     0.61198   0.15528   0.58366   0.00000  Uiso   1.00
C470   C     0.36070   0.20814   0.94794   0.00000  Uiso   1.00
C471   C     0.38788   0.22421   0.50256   0.00000  Uiso   1.00
C472   C     0.46832   0.17108   0.99399   0.00000  Uiso   1.00
C473   C     0.44220   0.20753   0.52488   0.00000  Uiso   1.00
C474   C     0.35669   0.09702   0.57117   0.00000  Uiso   1.00
C475   C     0.41154   0.06379   0.88776   0.00000  Uiso   1.00
C476   C     0.43548   0.14830   0.94300   0.00000  Uiso   1.00
C477   C     0.52519   0.15555   0.51214   0.00000  Uiso   1.00
C478   C     0.54642   0.11565   0.98128   0.00000  Uiso   1.00
C479   C     0.50972   0.08870   0.93600   0.00000  Uiso   1.00
C480   C     0.45341   0.10273   0.91912   0.00000  Uiso   1.00
C481   C     0.56096   0.17726   0.56114   0.00000  Uiso   1.00
C482   C     0.63528   0.11870   0.55104   0.00000  Uiso   1.00
H483   H     0.59928   0.32950   0.74919   0.00000  Uiso   1.00
H484   H     0.39684   0.00325   0.73763   0.00000  Uiso   1.00
H485   H     0.49011   0.12510   0.70830   0.00000  Uiso   1.00
H486   H     0.50988   0.20823   0.79171   0.00000  Uiso   1.00
H487   H     0.52361   0.05445   0.91638   0.00000  Uiso   1.00
H488   H     0.61885   0.07002   0.97485   0.00000  Uiso   1.00
H489   H     0.54808   0.20856   0.58565   0.00000  Uiso   1.00
H490   H     0.65501   0.22584   0.92884   0.00000  Uiso   1.00
H491   H     0.46180   0.22325   0.56656   0.00000  Uiso   1.00
H492   H     0.36839   0.25198   0.52648   0.00000  Uiso   1.00
N493   N     0.47827   0.15223   0.73542   0.00000  Uiso   1.00
N494   N     0.52173   0.18110   0.76457   0.00000  Uiso   1.00
N495   N     0.40059   0.07965   0.58716   0.00000  Uiso   1.00
N496   N     0.37792   0.03167   0.86437   0.00000  Uiso   1.00
O497   O     0.63102   0.24629   0.75357   0.00000  Uiso   1.00
O498   O     0.39075   0.23704   0.74423   0.00000  Uiso   1.00
O499   O     0.64823   0.17358   0.83380   0.00000  Uiso   1.00
O500   O     0.40796   0.16433   0.82446   0.00000  Uiso   1.00
O501   O     0.60925   0.09629   0.75576   0.00000  Uiso   1.00
O502   O     0.36898   0.08704   0.74642   0.00000  Uiso   1.00
O503   O     0.59204   0.16901   0.67554   0.00000  Uiso   1.00
O504   O     0.35177   0.15976   0.66620   0.00000  Uiso   1.00
Zn505  Zn    0.60453   0.17284   0.75623   0.00000  Uiso   1.00
Zn506  Zn    0.39547   0.16049   0.74376   0.00000  Uiso   1.00
C507   C     0.68099   0.26483   0.74662   0.00000  Uiso   1.00
C508   C     0.71929   0.17220   0.91703   0.00000  Uiso   1.00
C509   C     0.68751   0.31923   0.74168   0.00000  Uiso   1.00
C510   C     0.70187   0.16876   0.85552   0.00000  Uiso   1.00
C511   C     0.97537   0.01353   0.74548   0.00000  Uiso   1.00
C512   C     0.98431   0.06835   0.74875   0.00000  Uiso   1.00
C513   C     0.96455   0.16323   0.64453   0.00000  Uiso   1.00
C514   C     0.93580   0.09981   0.99919   0.00000  Uiso   1.00
C515   C     0.94532   0.15528   0.58366   0.00000  Uiso   1.00
C516   C     0.69403   0.20814   0.94794   0.00000  Uiso   1.00
C517   C     0.72121   0.22421   0.50256   0.00000  Uiso   1.00
C518   C     0.80166   0.17108   0.99399   0.00000  Uiso   1.00
C519   C     0.77553   0.20753   0.52488   0.00000  Uiso   1.00
C520   C     0.69002   0.09702   0.57117   0.00000  Uiso   1.00
C521   C     0.74488   0.06379   0.88776   0.00000  Uiso   1.00
C522   C     0.76882   0.14830   0.94300   0.00000  Uiso   1.00
C523   C     0.85853   0.15555   0.51214   0.00000  Uiso   1.00
C524   C     0.87975   0.11565   0.98128   0.00000  Uiso   1.00
C525   C     0.84305   0.08870   0.93600   0.00000  Uiso   1.00
C526   C     0.78674   0.10273   0.91912   0.00000  Uiso   1.00
C527   C     0.89429   0.17726   0.56114   0.00000  Uiso   1.00
C528   C     0.96861   0.11870   0.55104   0.00000  Uiso   1.00
H529   H     0.93261   0.32950   0.74919   0.00000  Uiso   1.00
H530   H     0.73017   0.00325   0.73763   0.00000  Uiso   1.00
H531   H     0.82345   0.12510   0.70830   0.00000  Uiso   1.00
H532   H     0.84321   0.20823   0.79171   0.00000  Uiso   1.00
H533   H     0.85694   0.05445   0.91638   0.00000  Uiso   1.00
H534   H     0.95219   0.07002   0.97485   0.00000  Uiso   1.00
H535   H     0.88141   0.20856   0.58565   0.00000  Uiso   1.00
H536   H     0.98834   0.22584   0.92884   0.00000  Uiso   1.00
H537   H     0.79513   0.22325   0.56656   0.00000  Uiso   1.00
H538   H     0.70172   0.25198   0.52648   0.00000  Uiso   1.00
N539   N     0.81160   0.15223   0.73542   0.00000  Uiso   1.00
N540   N     0.85507   0.18110   0.76457   0.00000  Uiso   1.00
N541   N     0.73392   0.07965   0.58716   0.00000  Uiso   1.00
N542   N     0.71126   0.03167   0.86437   0.00000  Uiso   1.00
O543   O     0.96435   0.24629   0.75357   0.00000  Uiso   1.00
O544   O     0.72408   0.23704   0.74423   0.00000  Uiso   1.00
O545   O     0.98157   0.17358   0.83380   0.00000  Uiso   1.00
O546   O     0.74130   0.16433   0.82446   0.00000  Uiso   1.00
O547   O     0.94258   0.09629   0.75576   0.00000  Uiso   1.00
O548   O     0.70231   0.08704   0.74642   0.00000  Uiso   1.00
O549   O     0.92537   0.16901   0.67554   0.00000  Uiso   1.00
O550   O     0.68510   0.15976   0.66620   0.00000  Uiso   1.00
Zn551  Zn    0.93786   0.17284   0.75623   0.00000  Uiso   1.00
Zn552  Zn    0.72881   0.16049   0.74376   0.00000  Uiso   1.00
C553   C     0.01433   0.59816   0.74662   0.00000  Uiso   1.00
C554   C     0.05262   0.50553   0.91703   0.00000  Uiso   1.00
C555   C     0.02085   0.65256   0.74168   0.00000  Uiso   1.00
C556   C     0.03520   0.50210   0.85552   0.00000  Uiso   1.00
C557   C     0.30870   0.34686   0.74548   0.00000  Uiso   1.00
C558   C     0.31764   0.40168   0.74875   0.00000  Uiso   1.00
C559   C     0.29789   0.49656   0.64453   0.00000  Uiso   1.00
C560   C     0.26913   0.43315   0.99919   0.00000  Uiso   1.00
C561   C     0.27865   0.48862   0.58366   0.00000  Uiso   1.00
C562   C     0.02736   0.54147   0.94794   0.00000  Uiso   1.00
C563   C     0.05454   0.55754   0.50256   0.00000  Uiso   1.00
C564   C     0.13499   0.50441   0.99399   0.00000  Uiso   1.00
C565   C     0.10886   0.54087   0.52488   0.00000  Uiso   1.00
C566   C     0.02336   0.43035   0.57117   0.00000  Uiso   1.00
C567   C     0.07821   0.39713   0.88776   0.00000  Uiso   1.00
C568   C     0.10215   0.48163   0.94300   0.00000  Uiso   1.00
C569   C     0.19186   0.48889   0.51214   0.00000  Uiso   1.00
C570   C     0.21308   0.44898   0.98128   0.00000  Uiso   1.00
C571   C     0.17639   0.42203   0.93600   0.00000  Uiso   1.00
C572   C     0.12007   0.43607   0.91912   0.00000  Uiso   1.00
C573   C     0.22763   0.51060   0.56114   0.00000  Uiso   1.00
C574   C     0.30195   0.45204   0.55104   0.00000  Uiso   1.00
H575   H     0.26595   0.66283   0.74919   0.00000  Uiso   1.00
H576   H     0.06350   0.33658   0.73763   0.00000  Uiso   1.00
H577   H     0.15678   0.45843   0.70830   0.00000  Uiso   1.00
H578   H     0.17654   0.54156   0.79171   0.00000  Uiso   1.00
H579   H     0.19028   0.38778   0.91638   0.00000  Uiso   1.00
H580   H     0.28552   0.40336   0.97485   0.00000  Uiso   1.00
H581   H     0.21474   0.54189   0.58565   0.00000  Uiso   1.00
H582   H     0.32168   0.55917   0.92884   0.00000  Uiso   1.00
H583   H     0.12846   0.55659   0.56656   0.00000  Uiso   1.00
H584   H     0.03506   0.58532   0.52648   0.00000  Uiso   1.00
N585   N     0.14493   0.48556   0.73542   0.00000  Uiso   1.00
N586   N     0.18840   0.51444   0.76457   0.00000  Uiso   1.00
N587   N     0.06725   0.41299   0.58716   0.00000  Uiso   1.00
N588   N     0.04459   0.36500   0.86437   0.00000  Uiso   1.00
O589   O     0.29769   0.57963   0.75357   0.00000  Uiso   1.00
O590   O     0.05742   0.57038   0.74423   0.00000  Uiso   1.00
O591   O     0.31490   0.50691   0.83380   0.00000  Uiso   1.00
O592   O     0.07463   0.49766   0.82446   0.00000  Uiso   1.00
O593   O     0.27592   0.42962   0.75576   0.00000  Uiso   1.00
O594   O     0.03565   0.42037   0.74642   0.00000  Uiso   1.00
O595   O     0.25870   0.50234   0.67554   0.00000  Uiso   1.00
O596   O     0.01843   0.49309   0.66620   0.00000  Uiso   1.00
Zn597  Zn    0.27119   0.50618   0.75623   0.00000  Uiso   1.00
Zn598  Zn    0.06214   0.49382   0.74376   0.00000  Uiso   1.00
C599   C     0.34766   0.59816   0.74662   0.00000  Uiso   1.00
C600   C     0.38596   0.50553   0.91703   0.00000  Uiso   1.00
C601   C     0.35418   0.65256   0.74168   0.00000  Uiso   1.00
C602   C     0.36854   0.50210   0.85552   0.00000  Uiso   1.00
C603   C     0.64204   0.34686   0.74548   0.00000  Uiso   1.00
C604   C     0.65098   0.40168   0.74875   0.00000  Uiso   1.00
C605   C     0.63122   0.49656   0.64453   0.00000  Uiso   1.00
C606   C     0.60247   0.43315   0.99919   0.00000  Uiso   1.00
C607   C     0.61198   0.48862   0.58366   0.00000  Uiso   1.00
C608   C     0.36070   0.54147   0.94794   0.00000  Uiso   1.00
C609   C     0.38788   0.55754   0.50256   0.00000  Uiso   1.00
C610   C     0.46832   0.50441   0.99399   0.00000  Uiso   1.00
C611   C     0.44220   0.54087   0.52488   0.00000  Uiso   1.00
C612   C     0.35669   0.43035   0.57117   0.00000  Uiso   1.00
C613   C     0.41154   0.39713   0.88776   0.00000  Uiso   1.00
C614   C     0.43548   0.48163   0.94300   0.00000  Uiso   1.00
C615   C     0.52519   0.48889   0.51214   0.00000  Uiso   1.00
C616   C     0.54642   0.44898   0.98128   0.00000  Uiso   1.00
C617   C     0.50972   0.42203   0.93600   0.00000  Uiso   1.00
C618   C     0.45341   0.43607   0.91912   0.00000  Uiso   1.00
C619   C     0.56096   0.51060   0.56114   0.00000  Uiso   1.00
C620   C     0.63528   0.45204   0.55104   0.00000  Uiso   1.00
H621   H     0.59928   0.66283   0.74919   0.00000  Uiso   1.00
H622   H     0.39684   0.33658   0.73763   0.00000  Uiso   1.00
H623   H     0.49011   0.45843   0.70830   0.00000  Uiso   1.00
H624   H     0.50988   0.54156   0.79171   0.00000  Uiso   1.00
H625   H     0.52361   0.38778   0.91638   0.00000  Uiso   1.00
H626   H     0.61885   0.40336   0.97485   0.00000  Uiso   1.00
H627   H     0.54808   0.54189   0.58565   0.00000  Uiso   1.00
H628   H     0.65501   0.55917   0.92884   0.00000  Uiso   1.00
H629   H     0.46180   0.55659   0.56656   0.00000  Uiso   1.00
H630   H     0.36839   0.58532   0.52648   0.00000  Uiso   1.00
N631   N     0.47827   0.48556   0.73542   0.00000  Uiso   1.00
N632   N     0.52173   0.51444   0.76457   0.00000  Uiso   1.00
N633   N     0.40059   0.41299   0.58716   0.00000  Uiso   1.00
N634   N     0.37792   0.36500   0.86437   0.00000  Uiso   1.00
O635   O     0.63102   0.57963   0.75357   0.00000  Uiso   1.00
O636   O     0.39075   0.57038   0.74423   0.00000  Uiso   1.00
O637   O     0.64823   0.50691   0.83380   0.00000  Uiso   1.00
O638   O     0.40796   0.49766   0.82446   0.00000  Uiso   1.00
O639   O     0.60925   0.42962   0.75576   0.00000  Uiso   1.00
O640   O     0.36898   0.42037   0.74642   0.00000  Uiso   1.00
O641   O     0.59204   0.50234   0.67554   0.00000  Uiso   1.00
O642   O     0.35177   0.49309   0.66620   0.00000  Uiso   1.00
Zn643  Zn    0.60453   0.50618   0.75623   0.00000  Uiso   1.00
Zn644  Zn    0.39547   0.49382   0.74376   0.00000  Uiso   1.00
C645   C     0.68099   0.59816   0.74662   0.00000  Uiso   1.00
C646   C     0.71929   0.50553   0.91703   0.00000  Uiso   1.00
C647   C     0.68751   0.65256   0.74168   0.00000  Uiso   1.00
C648   C     0.70187   0.50210   0.85552   0.00000  Uiso   1.00
C649   C     0.97537   0.34686   0.74548   0.00000  Uiso   1.00
C650   C     0.98431   0.40168   0.74875   0.00000  Uiso   1.00
C651   C     0.96455   0.49656   0.64453   0.00000  Uiso   1.00
C652   C     0.93580   0.43315   0.99919   0.00000  Uiso   1.00
C653   C     0.94532   0.48862   0.58366   0.00000  Uiso   1.00
C654   C     0.69403   0.54147   0.94794   0.00000  Uiso   1.00
C655   C     0.72121   0.55754   0.50256   0.00000  Uiso   1.00
C656   C     0.80166   0.50441   0.99399   0.00000  Uiso   1.00
C657   C     0.77553   0.54087   0.52488   0.00000  Uiso   1.00
C658   C     0.69002   0.43035   0.57117   0.00000  Uiso   1.00
C659   C     0.74488   0.39713   0.88776   0.00000  Uiso   1.00
C660   C     0.76882   0.48163   0.94300   0.00000  Uiso   1.00
C661   C     0.85853   0.48889   0.51214   0.00000  Uiso   1.00
C662   C     0.87975   0.44898   0.98128   0.00000  Uiso   1.00
C663   C     0.84305   0.42203   0.93600   0.00000  Uiso   1.00
C664   C     0.78674   0.43607   0.91912   0.00000  Uiso   1.00
C665   C     0.89429   0.51060   0.56114   0.00000  Uiso   1.00
C666   C     0.96861   0.45204   0.55104   0.00000  Uiso   1.00
H667   H     0.93261   0.66283   0.74919   0.00000  Uiso   1.00
H668   H     0.73017   0.33658   0.73763   0.00000  Uiso   1.00
H669   H     0.82345   0.45843   0.70830   0.00000  Uiso   1.00
H670   H     0.84321   0.54156   0.79171   0.00000  Uiso   1.00
H671   H     0.85694   0.38778   0.91638   0.00000  Uiso   1.00
H672   H     0.95219   0.40336   0.97485   0.00000  Uiso   1.00
H673   H     0.88141   0.54189   0.58565   0.00000  Uiso   1.00
H674   H     0.98834   0.55917   0.92884   0.00000  Uiso   1.00
H675   H     0.79513   0.55659   0.56656   0.00000  Uiso   1.00
H676   H     0.70172   0.58532   0.52648   0.00000  Uiso   1.00
N677   N     0.81160   0.48556   0.73542   0.00000  Uiso   1.00
N678   N     0.85507   0.51444   0.76457   0.00000  Uiso   1.00
N679   N     0.73392   0.41299   0.58716   0.00000  Uiso   1.00
N680   N     0.71126   0.36500   0.86437   0.00000  Uiso   1.00
O681   O     0.96435   0.57963   0.75357   0.00000  Uiso   1.00
O682   O     0.72408   0.57038   0.74423   0.00000  Uiso   1.00
O683   O     0.98157   0.50691   0.83380   0.00000  Uiso   1.00
O684   O     0.74130   0.49766   0.82446   0.00000  Uiso   1.00
O685   O     0.94258   0.42962   0.75576   0.00000  Uiso   1.00
O686   O     0.70231   0.42037   0.74642   0.00000  Uiso   1.00
O687   O     0.92537   0.50234   0.67554   0.00000  Uiso   1.00
O688   O     0.68510   0.49309   0.66620   0.00000  Uiso   1.00
Zn689  Zn    0.93786   0.50618   0.75623   0.00000  Uiso   1.00
Zn690  Zn    0.72881   0.49382   0.74376   0.00000  Uiso   1.00
C691   C     0.01433   0.93149   0.74662   0.00000  Uiso   1.00
C692   C     0.05262   0.83886   0.91703   0.00000  Uiso   1.00
C693   C     0.02085   0.98589   0.74168   0.00000  Uiso   1.00
C694   C     0.03520   0.83543   0.85552   0.00000  Uiso   1.00
C695   C     0.30870   0.68019   0.74548   0.00000  Uiso   1.00
C696   C     0.31764   0.73502   0.74875   0.00000  Uiso   1.00
C697   C     0.29789   0.82989   0.64453   0.00000  Uiso   1.00
C698   C     0.26913   0.76648   0.99919   0.00000  Uiso   1.00
C699   C     0.27865   0.82195   0.58366   0.00000  Uiso   1.00
C700   C     0.02736   0.87481   0.94794   0.00000  Uiso   1.00
C701   C     0.05454   0.89088   0.50256   0.00000  Uiso   1.00
C702   C     0.13499   0.83774   0.99399   0.00000  Uiso   1.00
C703   C     0.10886   0.87420   0.52488   0.00000  Uiso   1.00
C704   C     0.02336   0.76369   0.57117   0.00000  Uiso   1.00
C705   C     0.07821   0.73046   0.88776   0.00000  Uiso   1.00
C706   C     0.10215   0.81497   0.94300   0.00000  Uiso   1.00
C707   C     0.19186   0.82222   0.51214   0.00000  Uiso   1.00
C708   C     0.21308   0.78231   0.98128   0.00000  Uiso   1.00
C709   C     0.17639   0.75536   0.93600   0.00000  Uiso   1.00
C710   C     0.12007   0.76940   0.91912   0.00000  Uiso   1.00
C711   C     0.22763   0.84393   0.56114   0.00000  Uiso   1.00
C712   C     0.30195   0.78537   0.55104   0.00000  Uiso   1.00
H713   H     0.26595   0.99616   0.74919   0.00000  Uiso   1.00
H714   H     0.06350   0.66992   0.73763   0.00000  Uiso   1.00
H715   H     0.15678   0.79177   0.70830   0.00000  Uiso   1.00
H716   H     0.17654   0.87489   0.79171   0.00000  Uiso   1.00
H717   H     0.19028   0.72112   0.91638   0.00000  Uiso   1.00
H718   H     0.28552   0.73669   0.97485   0.00000  Uiso   1.00
H719   H     0.21474   0.87522   0.58565   0.00000  Uiso   1.00
H720   H     0.32168   0.89251   0.92884   0.00000  Uiso   1.00
H721   H     0.12846   0.88992   0.56656   0.00000  Uiso   1.00
H722   H     0.03506   0.91865   0.52648   0.00000  Uiso   1.00
N723   N     0.14493   0.81890   0.73542   0.00000  Uiso   1.00
N724   N     0.18840   0.84777   0.76457   0.00000  Uiso   1.00
N725   N     0.06725   0.74632   0.58716   0.00000  Uiso   1.00
N726   N     0.04459   0.69834   0.86437   0.00000  Uiso   1.00
O727   O     0.29769   0.91296   0.75357   0.00000  Uiso   1.00
O728   O     0.05742   0.90371   0.74423   0.00000  Uiso   1.00
O729   O     0.31490   0.84024   0.83380   0.00000  Uiso   1.00
O730   O     0.07463   0.83099   0.82446   0.00000  Uiso   1.00
O731   O     0.27592   0.76296   0.75576   0.00000  Uiso   1.00
O732   O     0.03565   0.75371   0.74642   0.00000  Uiso   1.00
O733   O     0.25870   0.83567   0.67554   0.00000  Uiso   1.00
O734   O     0.01843   0.82642   0.66620   0.00000  Uiso   1.00
Zn735  Zn    0.27119   0.83951   0.75623   0.00000  Uiso   1.00
Zn736  Zn    0.06214   0.82716   0.74376   0.00000  Uiso   1.00
C737   C     0.34766   0.93149   0.74662   0.00000  Uiso   1.00
C738   C     0.38596   0.83886   0.91703   0.00000  Uiso   1.00
C739   C     0.35418   0.98589   0.74168   0.00000  Uiso   1.00
C740   C     0.36854   0.83543   0.85552   0.00000  Uiso   1.00
C741   C     0.64204   0.68019   0.74548   0.00000  Uiso   1.00
C742   C     0.65098   0.73502   0.74875   0.00000  Uiso   1.00
C743   C     0.63122   0.82989   0.64453   0.00000  Uiso   1.00
C744   C     0.60247   0.76648   0.99919   0.00000  Uiso   1.00
C745   C     0.61198   0.82195   0.58366   0.00000  Uiso   1.00
C746   C     0.36070   0.87481   0.94794   0.00000  Uiso   1.00
C747   C     0.38788   0.89088   0.50256   0.00000  Uiso   1.00
C748   C     0.46832   0.83774   0.99399   0.00000  Uiso   1.00
C749   C     0.44220   0.87420   0.52488   0.00000  Uiso   1.00
C750   C     0.35669   0.76369   0.57117   0.00000  Uiso   1.00
C751   C     0.41154   0.73046   0.88776   0.00000  Uiso   1.00
C752   C     0.43548   0.81497   0.94300   0.00000  Uiso   1.00
C753   C     0.52519   0.82222   0.51214   0.00000  Uiso   1.00
C754   C     0.54642   0.78231   0.98128   0.00000  Uiso   1.00
C755   C     0.50972   0.75536   0.93600   0.00000  Uiso   1.00
C756   C     0.45341   0.76940   0.91912   0.00000  Uiso   1.00
C757   C     0.56096   0.84393   0.56114   0.00000  Uiso   1.00
C758   C     0.63528   0.78537   0.55104   0.00000  Uiso   1.00
H759   H     0.59928   0.99616   0.74919   0.00000  Uiso   1.00
H760   H     0.39684   0.66992   0.73763   0.00000  Uiso   1.00
H761   H     0.49011   0.79177   0.70830   0.00000  Uiso   1.00
H762   H     0.50988   0.87489   0.79171   0.00000  Uiso   1.00
H763   H     0.52361   0.72112   0.91638   0.00000  Uiso   1.00
H764   H     0.61885   0.73669   0.97485   0.00000  Uiso   1.00
H765   H     0.54808   0.87522   0.58565   0.00000  Uiso   1.00
H766   H     0.65501   0.89251   0.92884   0.00000  Uiso   1.00
H767   H     0.46180   0.88992   0.56656   0.00000  Uiso   1.00
H768   H     0.36839   0.91865   0.52648   0.00000  Uiso   1.00
N769   N     0.47827   0.81890   0.73542   0.00000  Uiso   1.00
N770   N     0.52173   0.84777   0.76457   0.00000  Uiso   1.00
N771   N     0.40059   0.74632   0.58716   0.00000  Uiso   1.00
N772   N     0.37792   0.69834   0.86437   0.00000  Uiso   1.00
O773   O     0.63102   0.91296   0.75357   0.00000  Uiso   1.00
O774   O     0.39075   0.90371   0.74423   0.00000  Uiso   1.00
O775   O     0.64823   0.84024   0.83380   0.00000  Uiso   1.00
O776   O     0.40796   0.83099   0.82446   0.00000  Uiso   1.00
O777   O     0.60925   0.76296   0.75576   0.00000  Uiso   1.00
O778   O     0.36898   0.75371   0.74642   0.00000  Uiso   1.00
O779   O     0.59204   0.83567   0.67554   0.00000  Uiso   1.00
O780   O     0.35177   0.82642   0.66620   0.00000  Uiso   1.00
Zn781  Zn    0.60453   0.83951   0.75623   0.00000  Uiso   1.00
Zn782  Zn    0.39547   0.82716   0.74376   0.00000  Uiso   1.00
C783   C     0.68099   0.93149   0.74662   0.00000  Uiso   1.00
C784   C     0.71929   0.83886   0.91703   0.00000  Uiso   1.00
C785   C     0.68751   0.98589   0.74168   0.00000  Uiso   1.00
C786   C     0.70187   0.83543   0.85552   0.00000  Uiso   1.00
C787   C     0.97537   0.68019   0.74548   0.00000  Uiso   1.00
C788   C     0.98431   0.73502   0.74875   0.00000  Uiso   1.00
C789   C     0.96455   0.82989   0.64453   0.00000  Uiso   1.00
C790   C     0.93580   0.76648   0.99919   0.00000  Uiso   1.00
C791   C     0.94532   0.82195   0.58366   0.00000  Uiso   1.00
C792   C     0.69403   0.87481   0.94794   0.00000  Uiso   1.00
C793   C     0.72121   0.89088   0.50256   0.00000  Uiso   1.00
C794   C     0.80166   0.83774   0.99399   0.00000  Uiso   1.00
C795   C     0.77553   0.87420   0.52488   0.00000  Uiso   1.00
C796   C     0.69002   0.76369   0.57117   0.00000  Uiso   1.00
C797   C     0.74488   0.73046   0.88776   0.00000  Uiso   1.00
C798   C     0.76882   0.81497   0.94300   0.00000  Uiso   1.00
C799   C     0.85853   0.82222   0.51214   0.00000  Uiso   1.00
C800   C     0.87975   0.78231   0.98128   0.00000  Uiso   1.00
C801   C     0.84305   0.75536   0.93600   0.00000  Uiso   1.00
C802   C     0.78674   0.76940   0.91912   0.00000  Uiso   1.00
C803   C     0.89429   0.84393   0.56114   0.00000  Uiso   1.00
C804   C     0.96861   0.78537   0.55104   0.00000  Uiso   1.00
H805   H     0.93261   0.99616   0.74919   0.00000  Uiso   1.00
H806   H     0.73017   0.66992   0.73763   0.00000  Uiso   1.00
H807   H     0.82345   0.79177   0.70830   0.00000  Uiso   1.00
H808   H     0.84321   0.87489   0.79171   0.00000  Uiso   1.00
H809   H     0.85694   0.72112   0.91638   0.00000  Uiso   1.00
H810   H     0.95219   0.73669   0.97485   0.00000  Uiso   1.00
H811   H     0.88141   0.87522   0.58565   0.00000  Uiso   1.00
H812   H     0.98834   0.89251   0.92884   0.00000  Uiso   1.00
H813   H     0.79513   0.88992   0.56656   0.00000  Uiso   1.00
H814   H     0.70172   0.91865   0.52648   0.00000  Uiso   1.00
N815   N     0.81160   0.81890   0.73542   0.00000  Uiso   1.00
N816   N     0.85507   0.84777   0.76457   0.00000  Uiso   1.00
N817   N     0.73392   0.74632   0.58716   0.00000  Uiso   1.00
N818   N     0.71126   0.69834   0.86437   0.00000  Uiso   1.00
O819   O     0.96435   0.91296   0.75357   0.00000  Uiso   1.00
O820   O     0.72408   0.90371   0.74423   0.00000  Uiso   1.00
O821   O     0.98157   0.84024   0.83380   0.00000  Uiso   1.00
O822   O     0.74130   0.83099   0.82446   0.00000  Uiso   1.00
O823   O     0.94258   0.76296   0.75576   0.00000  Uiso   1.00
O824   O     0.70231   0.75371   0.74642   0.00000  Uiso   1.00
O825   O     0.92537   0.83567   0.67554   0.00000  Uiso   1.00
O826   O     0.68510   0.82642   0.66620   0.00000  Uiso   1.00
Zn827  Zn    0.93786   0.83951   0.75623   0.00000  Uiso   1.00
Zn828  Zn    0.72881   0.82716   0.74376   0.00000  Uiso   1.00
loop_
_geom_bond_atom_site_label_1
_geom_bond_atom_site_label_2
_geom_bond_distance
_geom_bond_site_symmetry_2
_ccdc_geom_bond_type
C1     O38     1.289   .     A
C1     C3      1.403   .     S
C1     O129    1.275   1_455 S
C2     C4      1.458   .     S
C2     C10     1.401   .     A
C2     C16     1.406   .     A
C3     C235    1.340   1_455 S
C3     H162    1.088   .     S
C4     O40     1.301   .     A
C4     O131    1.288   1_455 S
C5     C6      1.405   .     S
C5     C325    1.340   1_545 S
C5     H299    1.088   1_545 S
C6     O41     1.289   .     A
C6     O88     1.275   .     S
C7     O43     1.301   .     A
C7     C9      1.453   .     S
C7     O90     1.287   .     S
C8     H28     1.086   .     S
C8     C18     1.401   .     A
C8     C436    1.393   .     S
C9     C21     1.387   .     A
C9     C22     1.411   .     A
C10    C425    1.387   .     S
C10    H122    1.083   1_455 S
C11    C13     1.392   .     A
C11    H32     1.083   .     S
C11    C424    1.387   1_554 S
C12    C16     1.409   .     A
C12    C427    1.421   .     S
C12    C431    1.416   .     S
C13    H31     1.077   .     S
C13    C426    1.421   1_554 S
C14    N35     1.157   .     T
C14    C114    1.445   1_455 S
C15    C20     1.440   .     S
C15    N36     1.155   .     T
C16    C20     1.415   .     A
C17    C21     1.391   .     A
C17    C426    1.416   1_554 S
C17    C432    1.421   1_554 S
C18    C19     1.390   .     A
C18    C431    1.421   .     S
C19    C20     1.387   .     A
C19    H27     1.086   .     S
C21    H29     1.077   .     S
C22    C422    1.393   1_554 S
C22    C60     1.445   .     S
H23    C143    1.088   .     S
H24    C279    1.088   1_545 S
H25    N33     1.029   .     S
H26    N34     1.029   .     S
H30    C56     1.083   .     S
N33    N34     1.295   .     D
N33    Zn46    2.017   .     S
N34    Zn45    2.017   .     S
O37    Zn45    1.946   .     S
O37    C47     1.275   .     S
O38    Zn46    1.975   .     S
O39    Zn45    1.954   .     S
O39    C50     1.288   .     S
O40    Zn46    1.906   .     S
O41    Zn45    1.975   .     S
O42    Zn46    1.946   .     S
O42    C98     1.275   1_455 S
O43    Zn45    1.906   .     S
O44    Zn46    1.954   .     S
O44    C99     1.287   1_455 S
C47    O84     1.289   .     A
C47    C49     1.403   .     S
C48    C50     1.458   .     S
C48    C56     1.401   .     A
C48    C62     1.406   .     A
C49    C143    1.340   .     S
C49    H208    1.088   .     S
C50    O86     1.301   .     A
C51    C52     1.405   .     S
C51    C371    1.340   1_545 S
C51    H345    1.088   1_545 S
C52    O87     1.289   .     A
C52    O134    1.275   .     S
C53    O89     1.301   .     A
C53    C55     1.453   .     S
C53    O136    1.287   .     S
C54    H74     1.086   .     S
C54    C64     1.401   .     A
C54    C482    1.393   .     S
C55    C67     1.387   .     A
C55    C68     1.411   .     A
C56    C471    1.387   .     S
C57    C59     1.392   .     A
C57    H78     1.083   .     S
C57    C470    1.387   1_554 S
C58    C62     1.409   .     A
C58    C473    1.421   .     S
C58    C477    1.416   .     S
C59    H77     1.077   .     S
C59    C472    1.421   1_554 S
C60    N81     1.157   .     T
C61    C66     1.440   .     S
C61    N82     1.155   .     T
C62    C66     1.415   .     A
C63    C67     1.391   .     A
C63    C472    1.416   1_554 S
C63    C478    1.421   1_554 S
C64    C65     1.390   .     A
C64    C477    1.421   .     S
C65    C66     1.387   .     A
C65    H73     1.086   .     S
C67    H75     1.077   .     S
C68    C468    1.393   1_554 S
C68    C106    1.445   .     S
H69    C189    1.088   .     S
H70    C325    1.088   1_545 S
H71    N79     1.029   .     S
H72    N80     1.029   .     S
H76    C102    1.083   .     S
N79    N80     1.295   .     D
N79    Zn92    2.017   .     S
N80    Zn91    2.017   .     S
O83    Zn91    1.946   .     S
O83    C93     1.275   .     S
O84    Zn92    1.975   .     S
O85    Zn91    1.954   .     S
O85    C96     1.288   .     S
O86    Zn92    1.906   .     S
O87    Zn91    1.975   .     S
O88    Zn92    1.946   .     S
O89    Zn91    1.906   .     S
O90    Zn92    1.954   .     S
C93    O130    1.289   .     A
C93    C95     1.403   .     S
C94    C96     1.458   .     S
C94    C102    1.401   .     A
C94    C108    1.406   .     A
C95    C189    1.340   .     S
C95    H254    1.088   .     S
C96    O132    1.301   .     A
C97    C98     1.405   .     S
C97    C279    1.340   1_645 S
C97    H391    1.088   1_545 S
C98    O133    1.289   .     A
C98    O42     1.275   1_655 S
C99    O135    1.301   .     A
C99    C101    1.453   .     S
C99    O44     1.287   1_655 S
C100   H120    1.086   .     S
C100   C110    1.401   .     A
C100   C528    1.393   .     S
C101   C113    1.387   .     A
C101   C114    1.411   .     A
C102   C517    1.387   .     S
C103   C105    1.392   .     A
C103   H124    1.083   .     S
C103   C516    1.387   1_554 S
C104   C108    1.409   .     A
C104   C519    1.421   .     S
C104   C523    1.416   .     S
C105   H123    1.077   .     S
C105   C518    1.421   1_554 S
C106   N127    1.157   .     T
C107   C112    1.440   .     S
C107   N128    1.155   .     T
C108   C112    1.415   .     A
C109   C113    1.391   .     A
C109   C518    1.416   1_554 S
C109   C524    1.421   1_554 S
C110   C111    1.390   .     A
C110   C523    1.421   .     S
C111   C112    1.387   .     A
C111   H119    1.086   .     S
C113   H121    1.077   .     S
C114   C514    1.393   1_554 S
C114   C14     1.445   1_655 S
H115   C235    1.088   .     S
H116   C371    1.088   1_545 S
H117   N125    1.029   .     S
H118   N126    1.029   .     S
H122   C10     1.083   1_655 S
N125   N126    1.295   .     D
N125   Zn138   2.017   .     S
N126   Zn137   2.017   .     S
O129   Zn137   1.946   .     S
O129   C1      1.275   1_655 S
O130   Zn138   1.975   .     S
O131   Zn137   1.954   .     S
O131   C4      1.288   1_655 S
O132   Zn138   1.906   .     S
O133   Zn137   1.975   .     S
O134   Zn138   1.946   .     S
O135   Zn137   1.906   .     S
O136   Zn138   1.954   .     S
C139   O176    1.289   .     A
C139   C141    1.403   .     S
C139   O267    1.275   1_455 S
C140   C142    1.458   .     S
C140   C148    1.401   .     A
C140   C154    1.406   .     A
C141   C373    1.340   1_455 S
C141   H300    1.088   .     S
C142   O178    1.301   .     A
C142   O269    1.288   1_455 S
C143   C144    1.405   .     S
C144   O179    1.289   .     A
C144   O226    1.275   .     S
C145   O181    1.301   .     A
C145   C147    1.453   .     S
C145   O228    1.287   .     S
C146   H166    1.086   .     S
C146   C156    1.401   .     A
C146   C574    1.393   .     S
C147   C159    1.387   .     A
C147   C160    1.411   .     A
C148   C563    1.387   .     S
C148   H260    1.083   1_455 S
C149   C151    1.392   .     A
C149   H170    1.083   .     S
C149   C562    1.387   1_554 S
C150   C154    1.409   .     A
C150   C565    1.421   .     S
C150   C569    1.416   .     S
C151   H169    1.077   .     S
C151   C564    1.421   1_554 S
C152   N173    1.157   .     T
C152   C252    1.445   1_455 S
C153   C158    1.440   .     S
C153   N174    1.155   .     T
C154   C158    1.415   .     A
C155   C159    1.391   .     A
C155   C564    1.416   1_554 S
C155   C570    1.421   1_554 S
C156   C157    1.390   .     A
C156   C569    1.421   .     S
C157   C158    1.387   .     A
C157   H165    1.086   .     S
C159   H167    1.077   .     S
C160   C560    1.393   1_554 S
C160   C198    1.445   .     S
H161   C281    1.088   .     S
H163   N171    1.029   .     S
H164   N172    1.029   .     S
H168   C194    1.083   .     S
N171   N172    1.295   .     D
N171   Zn184   2.017   .     S
N172   Zn183   2.017   .     S
O175   Zn183   1.946   .     S
O175   C185    1.275   .     S
O176   Zn184   1.975   .     S
O177   Zn183   1.954   .     S
O177   C188    1.288   .     S
O178   Zn184   1.906   .     S
O179   Zn183   1.975   .     S
O180   Zn184   1.946   .     S
O180   C236    1.275   1_455 S
O181   Zn183   1.906   .     S
O182   Zn184   1.954   .     S
O182   C237    1.287   1_455 S
C185   O222    1.289   .     A
C185   C187    1.403   .     S
C186   C188    1.458   .     S
C186   C194    1.401   .     A
C186   C200    1.406   .     A
C187   C281    1.340   .     S
C187   H346    1.088   .     S
C188   O224    1.301   .     A
C189   C190    1.405   .     S
C190   O225    1.289   .     A
C190   O272    1.275   .     S
C191   O227    1.301   .     A
C191   C193    1.453   .     S
C191   O274    1.287   .     S
C192   H212    1.086   .     S
C192   C202    1.401   .     A
C192   C620    1.393   .     S
C193   C205    1.387   .     A
C193   C206    1.411   .     A
C194   C609    1.387   .     S
C195   C197    1.392   .     A
C195   H216    1.083   .     S
C195   C608    1.387   1_554 S
C196   C200    1.409   .     A
C196   C611    1.421   .     S
C196   C615    1.416   .     S
C197   H215    1.077   .     S
C197   C610    1.421   1_554 S
C198   N219    1.157   .     T
C199   C204    1.440   .     S
C199   N220    1.155   .     T
C200   C204    1.415   .     A
C201   C205    1.391   .     A
C201   C610    1.416   1_554 S
C201   C616    1.421   1_554 S
C202   C203    1.390   .     A
C202   C615    1.421   .     S
C203   C204    1.387   .     A
C203   H211    1.086   .     S
C205   H213    1.077   .     S
C206   C606    1.393   1_554 S
C206   C244    1.445   .     S
H207   C327    1.088   .     S
H209   N217    1.029   .     S
H210   N218    1.029   .     S
H214   C240    1.083   .     S
N217   N218    1.295   .     D
N217   Zn230   2.017   .     S
N218   Zn229   2.017   .     S
O221   Zn229   1.946   .     S
O221   C231    1.275   .     S
O222   Zn230   1.975   .     S
O223   Zn229   1.954   .     S
O223   C234    1.288   .     S
O224   Zn230   1.906   .     S
O225   Zn229   1.975   .     S
O226   Zn230   1.946   .     S
O227   Zn229   1.906   .     S
O228   Zn230   1.954   .     S
C231   O268    1.289   .     A
C231   C233    1.403   .     S
C232   C234    1.458   .     S
C232   C240    1.401   .     A
C232   C246    1.406   .     A
C233   C327    1.340   .     S
C233   H392    1.088   .     S
C234   O270    1.301   .     A
C235   C236    1.405   .     S
C235   C3      1.340   1_655 S
C236   O271    1.289   .     A
C236   O180    1.275   1_655 S
C237   O273    1.301   .     A
C237   C239    1.453   .     S
C237   O182    1.287   1_655 S
C238   H258    1.086   .     S
C238   C248    1.401   .     A
C238   C666    1.393   .     S
C239   C251    1.387   .     A
C239   C252    1.411   .     A
C240   C655    1.387   .     S
C241   C243    1.392   .     A
C241   H262    1.083   .     S
C241   C654    1.387   1_554 S
C242   C246    1.409   .     A
C242   C657    1.421   .     S
C242   C661    1.416   .     S
C243   H261    1.077   .     S
C243   C656    1.421   1_554 S
C244   N265    1.157   .     T
C245   C250    1.440   .     S
C245   N266    1.155   .     T
C246   C250    1.415   .     A
C247   C251    1.391   .     A
C247   C656    1.416   1_554 S
C247   C662    1.421   1_554 S
C248   C249    1.390   .     A
C248   C661    1.421   .     S
C249   C250    1.387   .     A
C249   H257    1.086   .     S
C251   H259    1.077   .     S
C252   C652    1.393   1_554 S
C252   C152    1.445   1_655 S
H253   C373    1.088   .     S
H255   N263    1.029   .     S
H256   N264    1.029   .     S
H260   C148    1.083   1_655 S
N263   N264    1.295   .     D
N263   Zn276   2.017   .     S
N264   Zn275   2.017   .     S
O267   Zn275   1.946   .     S
O267   C139    1.275   1_655 S
O268   Zn276   1.975   .     S
O269   Zn275   1.954   .     S
O269   C142    1.288   1_655 S
O270   Zn276   1.906   .     S
O271   Zn275   1.975   .     S
O272   Zn276   1.946   .     S
O273   Zn275   1.906   .     S
O274   Zn276   1.954   .     S
C277   O314    1.289   .     A
C277   C279    1.403   .     S
C277   O405    1.275   1_455 S
C278   C280    1.458   .     S
C278   C286    1.401   .     A
C278   C292    1.406   .     A
C279   C97     1.340   1_465 S
C279   H24     1.088   1_565 S
C280   O316    1.301   .     A
C280   O407    1.288   1_455 S
C281   C282    1.405   .     S
C282   O317    1.289   .     A
C282   O364    1.275   .     S
C283   O319    1.301   .     A
C283   C285    1.453   .     S
C283   O366    1.287   .     S
C284   H304    1.086   .     S
C284   C294    1.401   .     A
C284   C712    1.393   .     S
C285   C297    1.387   .     A
C285   C298    1.411   .     A
C286   C701    1.387   .     S
C286   H398    1.083   1_455 S
C287   C289    1.392   .     A
C287   H308    1.083   .     S
C287   C700    1.387   1_554 S
C288   C292    1.409   .     A
C288   C703    1.421   .     S
C288   C707    1.416   .     S
C289   H307    1.077   .     S
C289   C702    1.421   1_554 S
C290   N311    1.157   .     T
C290   C390    1.445   1_455 S
C291   C296    1.440   .     S
C291   N312    1.155   .     T
C292   C296    1.415   .     A
C293   C297    1.391   .     A
C293   C702    1.416   1_554 S
C293   C708    1.421   1_554 S
C294   C295    1.390   .     A
C294   C707    1.421   .     S
C295   C296    1.387   .     A
C295   H303    1.086   .     S
C297   H305    1.077   .     S
C298   C698    1.393   1_554 S
C298   C336    1.445   .     S
H299   C5      1.088   1_565 S
H301   N309    1.029   .     S
H302   N310    1.029   .     S
H306   C332    1.083   .     S
N309   N310    1.295   .     D
N309   Zn322   2.017   .     S
N310   Zn321   2.017   .     S
O313   Zn321   1.946   .     S
O313   C323    1.275   .     S
O314   Zn322   1.975   .     S
O315   Zn321   1.954   .     S
O315   C326    1.288   .     S
O316   Zn322   1.906   .     S
O317   Zn321   1.975   .     S
O318   Zn322   1.946   .     S
O318   C374    1.275   1_455 S
O319   Zn321   1.906   .     S
O320   Zn322   1.954   .     S
O320   C375    1.287   1_455 S
C323   O360    1.289   .     A
C323   C325    1.403   .     S
C324   C326    1.458   .     S
C324   C332    1.401   .     A
C324   C338    1.406   .     A
C325   C5      1.340   1_565 S
C325   H70     1.088   1_565 S
C326   O362    1.301   .     A
C327   C328    1.405   .     S
C328   O363    1.289   .     A
C328   O410    1.275   .     S
C329   O365    1.301   .     A
C329   C331    1.453   .     S
C329   O412    1.287   .     S
C330   H350    1.086   .     S
C330   C340    1.401   .     A
C330   C758    1.393   .     S
C331   C343    1.387   .     A
C331   C344    1.411   .     A
C332   C747    1.387   .     S
C333   C335    1.392   .     A
C333   H354    1.083   .     S
C333   C746    1.387   1_554 S
C334   C338    1.409   .     A
C334   C749    1.421   .     S
C334   C753    1.416   .     S
C335   H353    1.077   .     S
C335   C748    1.421   1_554 S
C336   N357    1.157   .     T
C337   C342    1.440   .     S
C337   N358    1.155   .     T
C338   C342    1.415   .     A
C339   C343    1.391   .     A
C339   C748    1.416   1_554 S
C339   C754    1.421   1_554 S
C340   C341    1.390   .     A
C340   C753    1.421   .     S
C341   C342    1.387   .     A
C341   H349    1.086   .     S
C343   H351    1.077   .     S
C344   C744    1.393   1_554 S
C344   C382    1.445   .     S
H345   C51     1.088   1_565 S
H347   N355    1.029   .     S
H348   N356    1.029   .     S
H352   C378    1.083   .     S
N355   N356    1.295   .     D
N355   Zn368   2.017   .     S
N356   Zn367   2.017   .     S
O359   Zn367   1.946   .     S
O359   C369    1.275   .     S
O360   Zn368   1.975   .     S
O361   Zn367   1.954   .     S
O361   C372    1.288   .     S
O362   Zn368   1.906   .     S
O363   Zn367   1.975   .     S
O364   Zn368   1.946   .     S
O365   Zn367   1.906   .     S
O366   Zn368   1.954   .     S
C369   O406    1.289   .     A
C369   C371    1.403   .     S
C370   C372    1.458   .     S
C370   C378    1.401   .     A
C370   C384    1.406   .     A
C371   C51     1.340   1_565 S
C371   H116    1.088   1_565 S
C372   O408    1.301   .     A
C373   C374    1.405   .     S
C373   C141    1.340   1_655 S
C374   O409    1.289   .     A
C374   O318    1.275   1_655 S
C375   O411    1.301   .     A
C375   C377    1.453   .     S
C375   O320    1.287   1_655 S
C376   H396    1.086   .     S
C376   C386    1.401   .     A
C376   C804    1.393   .     S
C377   C389    1.387   .     A
C377   C390    1.411   .     A
C378   C793    1.387   .     S
C379   C381    1.392   .     A
C379   H400    1.083   .     S
C379   C792    1.387   1_554 S
C380   C384    1.409   .     A
C380   C795    1.421   .     S
C380   C799    1.416   .     S
C381   H399    1.077   .     S
C381   C794    1.421   1_554 S
C382   N403    1.157   .     T
C383   C388    1.440   .     S
C383   N404    1.155   .     T
C384   C388    1.415   .     A
C385   C389    1.391   .     A
C385   C794    1.416   1_554 S
C385   C800    1.421   1_554 S
C386   C387    1.390   .     A
C386   C799    1.421   .     S
C387   C388    1.387   .     A
C387   H395    1.086   .     S
C389   H397    1.077   .     S
C390   C790    1.393   1_554 S
C390   C290    1.445   1_655 S
H391   C97     1.088   1_565 S
H393   N401    1.029   .     S
H394   N402    1.029   .     S
H398   C286    1.083   1_655 S
N401   N402    1.295   .     D
N401   Zn414   2.017   .     S
N402   Zn413   2.017   .     S
O405   Zn413   1.946   .     S
O405   C277    1.275   1_655 S
O406   Zn414   1.975   .     S
O407   Zn413   1.954   .     S
O407   C280    1.288   1_655 S
O408   Zn414   1.906   .     S
O409   Zn413   1.975   .     S
O410   Zn414   1.946   .     S
O411   Zn413   1.906   .     S
O412   Zn414   1.954   .     S
C415   O452    1.289   .     A
C415   C417    1.403   .     S
C415   O543    1.275   1_455 S
C416   C418    1.458   .     S
C416   C424    1.401   .     A
C416   C430    1.406   .     A
C417   C649    1.340   1_455 S
C417   H576    1.088   .     S
C418   O454    1.301   .     A
C418   O545    1.288   1_455 S
C419   C420    1.405   .     S
C419   C739    1.340   1_545 S
C419   H713    1.088   1_545 S
C420   O455    1.289   .     A
C420   O502    1.275   .     S
C421   O457    1.301   .     A
C421   C423    1.453   .     S
C421   O504    1.287   .     S
C422   H442    1.086   .     S
C422   C432    1.401   .     A
C422   C22     1.393   1_556 S
C423   C435    1.387   .     A
C423   C436    1.411   .     A
C424   C11     1.387   1_556 S
C424   H536    1.083   1_455 S
C425   C427    1.392   .     A
C425   H446    1.083   .     S
C426   C430    1.409   .     A
C426   C13     1.421   1_556 S
C426   C17     1.416   1_556 S
C427   H445    1.077   .     S
C428   N449    1.157   .     T
C428   C528    1.445   1_455 S
C429   C434    1.440   .     S
C429   N450    1.155   .     T
C430   C434    1.415   .     A
C431   C435    1.391   .     A
C432   C433    1.390   .     A
C432   C17     1.421   1_556 S
C433   C434    1.387   .     A
C433   H441    1.086   .     S
C435   H443    1.077   .     S
C436   C474    1.445   .     S
H437   C557    1.088   .     S
H438   C693    1.088   1_545 S
H439   N447    1.029   .     S
H440   N448    1.029   .     S
H444   C470    1.083   .     S
N447   N448    1.295   .     D
N447   Zn460   2.017   .     S
N448   Zn459   2.017   .     S
O451   Zn459   1.946   .     S
O451   C461    1.275   .     S
O452   Zn460   1.975   .     S
O453   Zn459   1.954   .     S
O453   C464    1.288   .     S
O454   Zn460   1.906   .     S
O455   Zn459   1.975   .     S
O456   Zn460   1.946   .     S
O456   C512    1.275   1_455 S
O457   Zn459   1.906   .     S
O458   Zn460   1.954   .     S
O458   C513    1.287   1_455 S
C461   O498    1.289   .     A
C461   C463    1.403   .     S
C462   C464    1.458   .     S
C462   C470    1.401   .     A
C462   C476    1.406   .     A
C463   C557    1.340   .     S
C463   H622    1.088   .     S
C464   O500    1.301   .     A
C465   C466    1.405   .     S
C465   C785    1.340   1_545 S
C465   H759    1.088   1_545 S
C466   O501    1.289   .     A
C466   O548    1.275   .     S
C467   O503    1.301   .     A
C467   C469    1.453   .     S
C467   O550    1.287   .     S
C468   H488    1.086   .     S
C468   C478    1.401   .     A
C468   C68     1.393   1_556 S
C469   C481    1.387   .     A
C469   C482    1.411   .     A
C470   C57     1.387   1_556 S
C471   C473    1.392   .     A
C471   H492    1.083   .     S
C472   C476    1.409   .     A
C472   C59     1.421   1_556 S
C472   C63     1.416   1_556 S
C473   H491    1.077   .     S
C474   N495    1.157   .     T
C475   C480    1.440   .     S
C475   N496    1.155   .     T
C476   C480    1.415   .     A
C477   C481    1.391   .     A
C478   C479    1.390   .     A
C478   C63     1.421   1_556 S
C479   C480    1.387   .     A
C479   H487    1.086   .     S
C481   H489    1.077   .     S
C482   C520    1.445   .     S
H483   C603    1.088   .     S
H484   C739    1.088   1_545 S
H485   N493    1.029   .     S
H486   N494    1.029   .     S
H490   C516    1.083   .     S
N493   N494    1.295   .     D
N493   Zn506   2.017   .     S
N494   Zn505   2.017   .     S
O497   Zn505   1.946   .     S
O497   C507    1.275   .     S
O498   Zn506   1.975   .     S
O499   Zn505   1.954   .     S
O499   C510    1.288   .     S
O500   Zn506   1.906   .     S
O501   Zn505   1.975   .     S
O502   Zn506   1.946   .     S
O503   Zn505   1.906   .     S
O504   Zn506   1.954   .     S
C507   O544    1.289   .     A
C507   C509    1.403   .     S
C508   C510    1.458   .     S
C508   C516    1.401   .     A
C508   C522    1.406   .     A
C509   C603    1.340   .     S
C509   H668    1.088   .     S
C510   O546    1.301   .     A
C511   C512    1.405   .     S
C511   C693    1.340   1_645 S
C511   H805    1.088   1_545 S
C512   O547    1.289   .     A
C512   O456    1.275   1_655 S
C513   O549    1.301   .     A
C513   C515    1.453   .     S
C513   O458    1.287   1_655 S
C514   H534    1.086   .     S
C514   C524    1.401   .     A
C514   C114    1.393   1_556 S
C515   C527    1.387   .     A
C515   C528    1.411   .     A
C516   C103    1.387   1_556 S
C517   C519    1.392   .     A
C517   H538    1.083   .     S
C518   C522    1.409   .     A
C518   C105    1.421   1_556 S
C518   C109    1.416   1_556 S
C519   H537    1.077   .     S
C520   N541    1.157   .     T
C521   C526    1.440   .     S
C521   N542    1.155   .     T
C522   C526    1.415   .     A
C523   C527    1.391   .     A
C524   C525    1.390   .     A
C524   C109    1.421   1_556 S
C525   C526    1.387   .     A
C525   H533    1.086   .     S
C527   H535    1.077   .     S
C528   C428    1.445   1_655 S
H529   C649    1.088   .     S
H530   C785    1.088   1_545 S
H531   N539    1.029   .     S
H532   N540    1.029   .     S
H536   C424    1.083   1_655 S
N539   N540    1.295   .     D
N539   Zn552   2.017   .     S
N540   Zn551   2.017   .     S
O543   Zn551   1.946   .     S
O543   C415    1.275   1_655 S
O544   Zn552   1.975   .     S
O545   Zn551   1.954   .     S
O545   C418    1.288   1_655 S
O546   Zn552   1.906   .     S
O547   Zn551   1.975   .     S
O548   Zn552   1.946   .     S
O549   Zn551   1.906   .     S
O550   Zn552   1.954   .     S
C553   O590    1.289   .     A
C553   C555    1.403   .     S
C553   O681    1.275   1_455 S
C554   C556    1.458   .     S
C554   C562    1.401   .     A
C554   C568    1.406   .     A
C555   C787    1.340   1_455 S
C555   H714    1.088   .     S
C556   O592    1.301   .     A
C556   O683    1.288   1_455 S
C557   C558    1.405   .     S
C558   O593    1.289   .     A
C558   O640    1.275   .     S
C559   O595    1.301   .     A
C559   C561    1.453   .     S
C559   O642    1.287   .     S
C560   H580    1.086   .     S
C560   C570    1.401   .     A
C560   C160    1.393   1_556 S
C561   C573    1.387   .     A
C561   C574    1.411   .     A
C562   C149    1.387   1_556 S
C562   H674    1.083   1_455 S
C563   C565    1.392   .     A
C563   H584    1.083   .     S
C564   C568    1.409   .     A
C564   C151    1.421   1_556 S
C564   C155    1.416   1_556 S
C565   H583    1.077   .     S
C566   N587    1.157   .     T
C566   C666    1.445   1_455 S
C567   C572    1.440   .     S
C567   N588    1.155   .     T
C568   C572    1.415   .     A
C569   C573    1.391   .     A
C570   C571    1.390   .     A
C570   C155    1.421   1_556 S
C571   C572    1.387   .     A
C571   H579    1.086   .     S
C573   H581    1.077   .     S
C574   C612    1.445   .     S
H575   C695    1.088   .     S
H577   N585    1.029   .     S
H578   N586    1.029   .     S
H582   C608    1.083   .     S
N585   N586    1.295   .     D
N585   Zn598   2.017   .     S
N586   Zn597   2.017   .     S
O589   Zn597   1.946   .     S
O589   C599    1.275   .     S
O590   Zn598   1.975   .     S
O591   Zn597   1.954   .     S
O591   C602    1.288   .     S
O592   Zn598   1.906   .     S
O593   Zn597   1.975   .     S
O594   Zn598   1.946   .     S
O594   C650    1.275   1_455 S
O595   Zn597   1.906   .     S
O596   Zn598   1.954   .     S
O596   C651    1.287   1_455 S
C599   O636    1.289   .     A
C599   C601    1.403   .     S
C600   C602    1.458   .     S
C600   C608    1.401   .     A
C600   C614    1.406   .     A
C601   C695    1.340   .     S
C601   H760    1.088   .     S
C602   O638    1.301   .     A
C603   C604    1.405   .     S
C604   O639    1.289   .     A
C604   O686    1.275   .     S
C605   O641    1.301   .     A
C605   C607    1.453   .     S
C605   O688    1.287   .     S
C606   H626    1.086   .     S
C606   C616    1.401   .     A
C606   C206    1.393   1_556 S
C607   C619    1.387   .     A
C607   C620    1.411   .     A
C608   C195    1.387   1_556 S
C609   C611    1.392   .     A
C609   H630    1.083   .     S
C610   C614    1.409   .     A
C610   C197    1.421   1_556 S
C610   C201    1.416   1_556 S
C611   H629    1.077   .     S
C612   N633    1.157   .     T
C613   C618    1.440   .     S
C613   N634    1.155   .     T
C614   C618    1.415   .     A
C615   C619    1.391   .     A
C616   C617    1.390   .     A
C616   C201    1.421   1_556 S
C617   C618    1.387   .     A
C617   H625    1.086   .     S
C619   H627    1.077   .     S
C620   C658    1.445   .     S
H621   C741    1.088   .     S
H623   N631    1.029   .     S
H624   N632    1.029   .     S
H628   C654    1.083   .     S
N631   N632    1.295   .     D
N631   Zn644   2.017   .     S
N632   Zn643   2.017   .     S
O635   Zn643   1.946   .     S
O635   C645    1.275   .     S
O636   Zn644   1.975   .     S
O637   Zn643   1.954   .     S
O637   C648    1.288   .     S
O638   Zn644   1.906   .     S
O639   Zn643   1.975   .     S
O640   Zn644   1.946   .     S
O641   Zn643   1.906   .     S
O642   Zn644   1.954   .     S
C645   O682    1.289   .     A
C645   C647    1.403   .     S
C646   C648    1.458   .     S
C646   C654    1.401   .     A
C646   C660    1.406   .     A
C647   C741    1.340   .     S
C647   H806    1.088   .     S
C648   O684    1.301   .     A
C649   C650    1.405   .     S
C649   C417    1.340   1_655 S
C650   O685    1.289   .     A
C650   O594    1.275   1_655 S
C651   O687    1.301   .     A
C651   C653    1.453   .     S
C651   O596    1.287   1_655 S
C652   H672    1.086   .     S
C652   C662    1.401   .     A
C652   C252    1.393   1_556 S
C653   C665    1.387   .     A
C653   C666    1.411   .     A
C654   C241    1.387   1_556 S
C655   C657    1.392   .     A
C655   H676    1.083   .     S
C656   C660    1.409   .     A
C656   C243    1.421   1_556 S
C656   C247    1.416   1_556 S
C657   H675    1.077   .     S
C658   N679    1.157   .     T
C659   C664    1.440   .     S
C659   N680    1.155   .     T
C660   C664    1.415   .     A
C661   C665    1.391   .     A
C662   C663    1.390   .     A
C662   C247    1.421   1_556 S
C663   C664    1.387   .     A
C663   H671    1.086   .     S
C665   H673    1.077   .     S
C666   C566    1.445   1_655 S
H667   C787    1.088   .     S
H669   N677    1.029   .     S
H670   N678    1.029   .     S
H674   C562    1.083   1_655 S
N677   N678    1.295   .     D
N677   Zn690   2.017   .     S
N678   Zn689   2.017   .     S
O681   Zn689   1.946   .     S
O681   C553    1.275   1_655 S
O682   Zn690   1.975   .     S
O683   Zn689   1.954   .     S
O683   C556    1.288   1_655 S
O684   Zn690   1.906   .     S
O685   Zn689   1.975   .     S
O686   Zn690   1.946   .     S
O687   Zn689   1.906   .     S
O688   Zn690   1.954   .     S
C691   O728    1.289   .     A
C691   C693    1.403   .     S
C691   O819    1.275   1_455 S
C692   C694    1.458   .     S
C692   C700    1.401   .     A
C692   C706    1.406   .     A
C693   C511    1.340   1_465 S
C693   H438    1.088   1_565 S
C694   O730    1.301   .     A
C694   O821    1.288   1_455 S
C695   C696    1.405   .     S
C696   O731    1.289   .     A
C696   O778    1.275   .     S
C697   O733    1.301   .     A
C697   C699    1.453   .     S
C697   O780    1.287   .     S
C698   H718    1.086   .     S
C698   C708    1.401   .     A
C698   C298    1.393   1_556 S
C699   C711    1.387   .     A
C699   C712    1.411   .     A
C700   C287    1.387   1_556 S
C700   H812    1.083   1_455 S
C701   C703    1.392   .     A
C701   H722    1.083   .     S
C702   C706    1.409   .     A
C702   C289    1.421   1_556 S
C702   C293    1.416   1_556 S
C703   H721    1.077   .     S
C704   N725    1.157   .     T
C704   C804    1.445   1_455 S
C705   C710    1.440   .     S
C705   N726    1.155   .     T
C706   C710    1.415   .     A
C707   C711    1.391   .     A
C708   C709    1.390   .     A
C708   C293    1.421   1_556 S
C709   C710    1.387   .     A
C709   H717    1.086   .     S
C711   H719    1.077   .     S
C712   C750    1.445   .     S
H713   C419    1.088   1_565 S
H715   N723    1.029   .     S
H716   N724    1.029   .     S
H720   C746    1.083   .     S
N723   N724    1.295   .     D
N723   Zn736   2.017   .     S
N724   Zn735   2.017   .     S
O727   Zn735   1.946   .     S
O727   C737    1.275   .     S
O728   Zn736   1.975   .     S
O729   Zn735   1.954   .     S
O729   C740    1.288   .     S
O730   Zn736   1.906   .     S
O731   Zn735   1.975   .     S
O732   Zn736   1.946   .     S
O732   C788    1.275   1_455 S
O733   Zn735   1.906   .     S
O734   Zn736   1.954   .     S
O734   C789    1.287   1_455 S
C737   O774    1.289   .     A
C737   C739    1.403   .     S
C738   C740    1.458   .     S
C738   C746    1.401   .     A
C738   C752    1.406   .     A
C739   C419    1.340   1_565 S
C739   H484    1.088   1_565 S
C740   O776    1.301   .     A
C741   C742    1.405   .     S
C742   O777    1.289   .     A
C742   O824    1.275   .     S
C743   O779    1.301   .     A
C743   C745    1.453   .     S
C743   O826    1.287   .     S
C744   H764    1.086   .     S
C744   C754    1.401   .     A
C744   C344    1.393   1_556 S
C745   C757    1.387   .     A
C745   C758    1.411   .     A
C746   C333    1.387   1_556 S
C747   C749    1.392   .     A
C747   H768    1.083   .     S
C748   C752    1.409   .     A
C748   C335    1.421   1_556 S
C748   C339    1.416   1_556 S
C749   H767    1.077   .     S
C750   N771    1.157   .     T
C751   C756    1.440   .     S
C751   N772    1.155   .     T
C752   C756    1.415   .     A
C753   C757    1.391   .     A
C754   C755    1.390   .     A
C754   C339    1.421   1_556 S
C755   C756    1.387   .     A
C755   H763    1.086   .     S
C757   H765    1.077   .     S
C758   C796    1.445   .     S
H759   C465    1.088   1_565 S
H761   N769    1.029   .     S
H762   N770    1.029   .     S
H766   C792    1.083   .     S
N769   N770    1.295   .     D
N769   Zn782   2.017   .     S
N770   Zn781   2.017   .     S
O773   Zn781   1.946   .     S
O773   C783    1.275   .     S
O774   Zn782   1.975   .     S
O775   Zn781   1.954   .     S
O775   C786    1.288   .     S
O776   Zn782   1.906   .     S
O777   Zn781   1.975   .     S
O778   Zn782   1.946   .     S
O779   Zn781   1.906   .     S
O780   Zn782   1.954   .     S
C783   O820    1.289   .     A
C783   C785    1.403   .     S
C784   C786    1.458   .     S
C784   C792    1.401   .     A
C784   C798    1.406   .     A
C785   C465    1.340   1_565 S
C785   H530    1.088   1_565 S
C786   O822    1.301   .     A
C787   C788    1.405   .     S
C787   C555    1.340   1_655 S
C788   O823    1.289   .     A
C788   O732    1.275   1_655 S
C789   O825    1.301   .     A
C789   C791    1.453   .     S
C789   O734    1.287   1_655 S
C790   H810    1.086   .     S
C790   C800    1.401   .     A
C790   C390    1.393   1_556 S
C791   C803    1.387   .     A
C791   C804    1.411   .     A
C792   C379    1.387   1_556 S
C793   C795    1.392   .     A
C793   H814    1.083   .     S
C794   C798    1.409   .     A
C794   C381    1.421   1_556 S
C794   C385    1.416   1_556 S
C795   H813    1.077   .     S
C796   N817    1.157   .     T
C797   C802    1.440   .     S
C797   N818    1.155   .     T
C798   C802    1.415   .     A
C799   C803    1.391   .     A
C800   C801    1.390   .     A
C800   C385    1.421   1_556 S
C801   C802    1.387   .     A
C801   H809    1.086   .     S
C803   H811    1.077   .     S
C804   C704    1.445   1_655 S
H805   C511    1.088   1_565 S
H807   N815    1.029   .     S
H808   N816    1.029   .     S
H812   C700    1.083   1_655 S
N815   N816    1.295   .     D
N815   Zn828   2.017   .     S
N816   Zn827   2.017   .     S
O819   Zn827   1.946   .     S
O819   C691    1.275   1_655 S
O820   Zn828   1.975   .     S
O821   Zn827   1.954   .     S
O821   C694    1.288   1_655 S
O822   Zn828   1.906   .     S
O823   Zn827   1.975   .     S
O824   Zn828   1.946   .     S
O825   Zn827   1.906   .     S
O826   Zn828   1.954   .     S
