data_str_m3_o1_o18_pcu_sym.105
_audit_creation_date              2020-01-03
_audit_creation_method            'Materials Studio'
_symmetry_space_group_name_H-M    'P1'
_symmetry_Int_Tables_number       1
_symmetry_cell_setting            triclinic
loop_
_symmetry_equiv_pos_as_xyz
  x,y,z
_cell_length_a                    29.8460
_cell_length_b                    31.9410
_cell_length_c                    30.8465
_cell_angle_alpha                 89.8674
_cell_angle_beta                  68.5995
_cell_angle_gamma                 88.7321
loop_
_atom_site_label
_atom_site_type_symbol
_atom_site_fract_x
_atom_site_fract_y
_atom_site_fract_z
_atom_site_U_iso_or_equiv
_atom_site_adp_type
_atom_site_occupancy
C1     C     0.16739   0.24649   0.24779   0.00000  Uiso   1.00
C2     C     0.16612   0.08694   0.25232   0.00000  Uiso   1.00
C3     C     0.10279   0.17112   0.05662   0.00000  Uiso   1.00
C4     C     0.19727   0.11433   0.46204   0.00000  Uiso   1.00
C5     C     0.07020   0.18249   0.03524   0.00000  Uiso   1.00
C6     C     0.22807   0.10026   0.48414   0.00000  Uiso   1.00
C7     C     0.20715   0.31290   0.21662   0.00000  Uiso   1.00
C8     C     0.12908   0.02076   0.28607   0.00000  Uiso   1.00
C9     C     0.20528   0.02252   0.21957   0.00000  Uiso   1.00
C10    C     0.13015   0.31110   0.28231   0.00000  Uiso   1.00
C11    C     0.16650   0.04278   0.25325   0.00000  Uiso   1.00
C12    C     0.16791   0.29077   0.24737   0.00000  Uiso   1.00
C13    C     0.32070   0.13755   0.22415   0.00000  Uiso   1.00
C14    C     0.01309   0.19644   0.27454   0.00000  Uiso   1.00
C15    C     0.03441   0.13718   0.22586   0.00000  Uiso   1.00
C16    C     0.29937   0.19653   0.27326   0.00000  Uiso   1.00
C17    C     0.13664   0.16877   0.33806   0.00000  Uiso   1.00
C18    C     0.19648   0.16579   0.16222   0.00000  Uiso   1.00
C19    C     0.11796   0.17179   0.38931   0.00000  Uiso   1.00
C20    C     0.21299   0.15574   0.11283   0.00000  Uiso   1.00
C21    C     0.05164   0.18304   0.46308   0.00000  Uiso   1.00
C22    C     0.25264   0.10501   0.05212   0.00000  Uiso   1.00
C23    C     0.06848   0.17853   0.41459   0.00000  Uiso   1.00
C24    C     0.24557   0.12222   0.09554   0.00000  Uiso   1.00
C25    C     0.14934   0.16773   0.41396   0.00000  Uiso   1.00
C26    C     0.18655   0.17159   0.08687   0.00000  Uiso   1.00
C27    C     0.12964   0.15902   0.46151   0.00000  Uiso   1.00
C28    C     0.18497   0.14752   0.04922   0.00000  Uiso   1.00
C29    C     0.08281   0.17453   0.48718   0.00000  Uiso   1.00
C30    C     0.22238   0.11720   0.02822   0.00000  Uiso   1.00
C31    C     0.15850   0.14206   0.48456   0.00000  Uiso   1.00
C32    C     0.14854   0.15365   0.03072   0.00000  Uiso   1.00
H33    H     0.26518   0.10909   0.11584   0.00000  Uiso   1.00
H34    H     0.04345   0.18291   0.39680   0.00000  Uiso   1.00
H35    H     0.01430   0.19202   0.48129   0.00000  Uiso   1.00
H36    H     0.28000   0.08069   0.03907   0.00000  Uiso   1.00
H37    H     0.09263   0.17639   0.09353   0.00000  Uiso   1.00
H38    H     0.20254   0.10281   0.42753   0.00000  Uiso   1.00
H39    H     0.23423   0.04044   0.19555   0.00000  Uiso   1.00
H40    H     0.10306   0.29297   0.30806   0.00000  Uiso   1.00
H41    H     0.06080   0.11336   0.20765   0.00000  Uiso   1.00
H42    H     0.27333   0.22041   0.29153   0.00000  Uiso   1.00
N43    N     0.04759   0.16668   0.25001   0.00000  Uiso   1.00
N44    N     0.28574   0.16666   0.24999   0.00000  Uiso   1.00
O45    O     0.12846   0.22775   0.25000   0.00000  Uiso   1.00
O46    O     0.20488   0.10558   0.24999   0.00000  Uiso   1.00
O47    O     0.20490   0.22774   0.25000   0.00000  Uiso   1.00
O48    O     0.12843   0.10559   0.25000   0.00000  Uiso   1.00
O49    O     0.10661   0.16667   0.31612   0.00000  Uiso   1.00
O50    O     0.22672   0.16666   0.18387   0.00000  Uiso   1.00
O51    O     0.18305   0.16666   0.31612   0.00000  Uiso   1.00
O52    O     0.15028   0.16667   0.18388   0.00000  Uiso   1.00
Zn53   Zn    0.11562   0.16667   0.25000   0.00000  Uiso   1.00
Zn54   Zn    0.21771   0.16666   0.25000   0.00000  Uiso   1.00
S55    S     0.02073   0.21550   0.06662   0.00000  Uiso   1.00
O56    O     0.02224   0.25487   0.03940   0.00000  Uiso   1.00
O57    O     0.30800   0.19389   0.07336   0.00000  Uiso   1.00
O58    O     0.02287   0.22858   0.11865   0.00000  Uiso   1.00
H59    H     0.00536   0.20646   0.14037   0.00000  Uiso   1.00
S60    S     0.27488   0.06401   0.45403   0.00000  Uiso   1.00
O61    O     0.32264   0.08271   0.44758   0.00000  Uiso   1.00
O62    O     0.26904   0.02466   0.48222   0.00000  Uiso   1.00
O63    O     0.27312   0.05229   0.40151   0.00000  Uiso   1.00
H64    H     0.29244   0.02602   0.39172   0.00000  Uiso   1.00
S65    S     0.16710   0.22540   0.09447   0.00000  Uiso   1.00
O66    O     0.12125   0.23031   0.13621   0.00000  Uiso   1.00
O67    O     0.20512   0.25108   0.10196   0.00000  Uiso   1.00
O68    O     0.15848   0.24399   0.04694   0.00000  Uiso   1.00
H69    H     0.14102   0.27112   0.05688   0.00000  Uiso   1.00
S70    S     0.20710   0.19119   0.39311   0.00000  Uiso   1.00
O71    O     0.24424   0.15993   0.36407   0.00000  Uiso   1.00
O72    O     0.20536   0.22898   0.36460   0.00000  Uiso   1.00
O73    O     0.22264   0.20705   0.43762   0.00000  Uiso   1.00
H74    H     0.25685   0.21479   0.42312   0.00000  Uiso   1.00
S75    S     0.26060   0.28963   0.17641   0.00000  Uiso   1.00
O76    O     0.25149   0.24769   0.16013   0.00000  Uiso   1.00
O77    O     0.28158   0.31740   0.13476   0.00000  Uiso   1.00
O78    O     0.30067   0.28349   0.20270   0.00000  Uiso   1.00
H79    H     0.30866   0.31233   0.20867   0.00000  Uiso   1.00
S80    S     0.08404   0.04525   0.33447   0.00000  Uiso   1.00
O81    O     0.04967   0.07017   0.31852   0.00000  Uiso   1.00
O82    O     0.05660   0.01297   0.36893   0.00000  Uiso   1.00
O83    O     0.11064   0.07731   0.36040   0.00000  Uiso   1.00
H84    H     0.08564   0.08404   0.39115   0.00000  Uiso   1.00
C85    C     0.31078   0.10454   0.19388   0.00000  Uiso   1.00
C86    C     0.01421   0.10325   0.14387   0.00000  Uiso   1.00
H87    H     0.01485   0.13393   0.12690   0.00000  Uiso   1.00
H88    H     0.05091   0.09465   0.14241   0.00000  Uiso   1.00
H89    H     0.00378   0.07917   0.12363   0.00000  Uiso   1.00
H90    H     0.31021   0.07333   0.21003   0.00000  Uiso   1.00
H91    H     0.27611   0.11033   0.19049   0.00000  Uiso   1.00
C92    C     0.02171   0.22877   0.30599   0.00000  Uiso   1.00
C93    C     0.02079   0.27308   0.28736   0.00000  Uiso   1.00
H94    H     0.05060   0.27675   0.25325   0.00000  Uiso   1.00
H95    H     0.31940   0.28026   0.28319   0.00000  Uiso   1.00
H96    H     0.02442   0.29623   0.31252   0.00000  Uiso   1.00
H97    H     0.32613   0.22674   0.34098   0.00000  Uiso   1.00
H98    H     0.05538   0.22301   0.31182   0.00000  Uiso   1.00
C99    C     0.50073   0.24649   0.24779   0.00000  Uiso   1.00
C100   C     0.49945   0.08694   0.25232   0.00000  Uiso   1.00
C101   C     0.43612   0.17112   0.05662   0.00000  Uiso   1.00
C102   C     0.53061   0.11433   0.46204   0.00000  Uiso   1.00
C103   C     0.40354   0.18249   0.03524   0.00000  Uiso   1.00
C104   C     0.56141   0.10026   0.48414   0.00000  Uiso   1.00
C105   C     0.54048   0.31290   0.21662   0.00000  Uiso   1.00
C106   C     0.46242   0.02076   0.28607   0.00000  Uiso   1.00
C107   C     0.53861   0.02252   0.21957   0.00000  Uiso   1.00
C108   C     0.46348   0.31110   0.28231   0.00000  Uiso   1.00
C109   C     0.49983   0.04278   0.25325   0.00000  Uiso   1.00
C110   C     0.50124   0.29077   0.24737   0.00000  Uiso   1.00
C111   C     0.65404   0.13755   0.22415   0.00000  Uiso   1.00
C112   C     0.34642   0.19644   0.27454   0.00000  Uiso   1.00
C113   C     0.36774   0.13718   0.22586   0.00000  Uiso   1.00
C114   C     0.63271   0.19653   0.27326   0.00000  Uiso   1.00
C115   C     0.46997   0.16877   0.33806   0.00000  Uiso   1.00
C116   C     0.52982   0.16579   0.16222   0.00000  Uiso   1.00
C117   C     0.45129   0.17179   0.38931   0.00000  Uiso   1.00
C118   C     0.54632   0.15574   0.11283   0.00000  Uiso   1.00
C119   C     0.38497   0.18304   0.46308   0.00000  Uiso   1.00
C120   C     0.58597   0.10501   0.05212   0.00000  Uiso   1.00
C121   C     0.40182   0.17853   0.41459   0.00000  Uiso   1.00
C122   C     0.57891   0.12222   0.09554   0.00000  Uiso   1.00
C123   C     0.48267   0.16773   0.41396   0.00000  Uiso   1.00
C124   C     0.51988   0.17159   0.08687   0.00000  Uiso   1.00
C125   C     0.46297   0.15902   0.46151   0.00000  Uiso   1.00
C126   C     0.51830   0.14752   0.04922   0.00000  Uiso   1.00
C127   C     0.41614   0.17453   0.48718   0.00000  Uiso   1.00
C128   C     0.55571   0.11720   0.02822   0.00000  Uiso   1.00
C129   C     0.49183   0.14206   0.48456   0.00000  Uiso   1.00
C130   C     0.48187   0.15365   0.03072   0.00000  Uiso   1.00
H131   H     0.59852   0.10909   0.11584   0.00000  Uiso   1.00
H132   H     0.37678   0.18291   0.39680   0.00000  Uiso   1.00
H133   H     0.34763   0.19202   0.48129   0.00000  Uiso   1.00
H134   H     0.61334   0.08069   0.03907   0.00000  Uiso   1.00
H135   H     0.42597   0.17639   0.09353   0.00000  Uiso   1.00
H136   H     0.53587   0.10281   0.42753   0.00000  Uiso   1.00
H137   H     0.56756   0.04044   0.19555   0.00000  Uiso   1.00
H138   H     0.43639   0.29297   0.30806   0.00000  Uiso   1.00
H139   H     0.39413   0.11336   0.20765   0.00000  Uiso   1.00
H140   H     0.60667   0.22041   0.29153   0.00000  Uiso   1.00
N141   N     0.38093   0.16668   0.25001   0.00000  Uiso   1.00
N142   N     0.61907   0.16666   0.24999   0.00000  Uiso   1.00
O143   O     0.46179   0.22775   0.25000   0.00000  Uiso   1.00
O144   O     0.53821   0.10558   0.24999   0.00000  Uiso   1.00
O145   O     0.53823   0.22774   0.25000   0.00000  Uiso   1.00
O146   O     0.46177   0.10559   0.25000   0.00000  Uiso   1.00
O147   O     0.43994   0.16667   0.31612   0.00000  Uiso   1.00
O148   O     0.56006   0.16666   0.18387   0.00000  Uiso   1.00
O149   O     0.51639   0.16666   0.31612   0.00000  Uiso   1.00
O150   O     0.48361   0.16667   0.18388   0.00000  Uiso   1.00
Zn151  Zn    0.44896   0.16667   0.25000   0.00000  Uiso   1.00
Zn152  Zn    0.55104   0.16666   0.25000   0.00000  Uiso   1.00
S153   S     0.35407   0.21550   0.06662   0.00000  Uiso   1.00
O154   O     0.35557   0.25487   0.03940   0.00000  Uiso   1.00
O155   O     0.64133   0.19389   0.07336   0.00000  Uiso   1.00
O156   O     0.35620   0.22858   0.11865   0.00000  Uiso   1.00
H157   H     0.33870   0.20646   0.14037   0.00000  Uiso   1.00
S158   S     0.60821   0.06401   0.45403   0.00000  Uiso   1.00
O159   O     0.65597   0.08271   0.44758   0.00000  Uiso   1.00
O160   O     0.60238   0.02466   0.48222   0.00000  Uiso   1.00
O161   O     0.60645   0.05229   0.40151   0.00000  Uiso   1.00
H162   H     0.62577   0.02602   0.39172   0.00000  Uiso   1.00
S163   S     0.50043   0.22540   0.09447   0.00000  Uiso   1.00
O164   O     0.45458   0.23031   0.13621   0.00000  Uiso   1.00
O165   O     0.53845   0.25108   0.10196   0.00000  Uiso   1.00
O166   O     0.49181   0.24399   0.04694   0.00000  Uiso   1.00
H167   H     0.47436   0.27112   0.05688   0.00000  Uiso   1.00
S168   S     0.54044   0.19119   0.39311   0.00000  Uiso   1.00
O169   O     0.57758   0.15993   0.36407   0.00000  Uiso   1.00
O170   O     0.53870   0.22898   0.36460   0.00000  Uiso   1.00
O171   O     0.55597   0.20705   0.43762   0.00000  Uiso   1.00
H172   H     0.59018   0.21479   0.42312   0.00000  Uiso   1.00
S173   S     0.59393   0.28963   0.17641   0.00000  Uiso   1.00
O174   O     0.58482   0.24769   0.16013   0.00000  Uiso   1.00
O175   O     0.61492   0.31740   0.13476   0.00000  Uiso   1.00
O176   O     0.63400   0.28349   0.20270   0.00000  Uiso   1.00
H177   H     0.64199   0.31233   0.20867   0.00000  Uiso   1.00
S178   S     0.41738   0.04525   0.33447   0.00000  Uiso   1.00
O179   O     0.38300   0.07017   0.31852   0.00000  Uiso   1.00
O180   O     0.38994   0.01297   0.36893   0.00000  Uiso   1.00
O181   O     0.44398   0.07731   0.36040   0.00000  Uiso   1.00
H182   H     0.41897   0.08404   0.39115   0.00000  Uiso   1.00
C183   C     0.64412   0.10454   0.19388   0.00000  Uiso   1.00
C184   C     0.34754   0.10325   0.14387   0.00000  Uiso   1.00
H185   H     0.34818   0.13393   0.12690   0.00000  Uiso   1.00
H186   H     0.38424   0.09465   0.14241   0.00000  Uiso   1.00
H187   H     0.33712   0.07917   0.12363   0.00000  Uiso   1.00
H188   H     0.64355   0.07333   0.21003   0.00000  Uiso   1.00
H189   H     0.60945   0.11033   0.19049   0.00000  Uiso   1.00
C190   C     0.35504   0.22877   0.30599   0.00000  Uiso   1.00
C191   C     0.35412   0.27308   0.28736   0.00000  Uiso   1.00
H192   H     0.38393   0.27675   0.25325   0.00000  Uiso   1.00
H193   H     0.65273   0.28026   0.28319   0.00000  Uiso   1.00
H194   H     0.35775   0.29623   0.31252   0.00000  Uiso   1.00
H195   H     0.65946   0.22674   0.34098   0.00000  Uiso   1.00
H196   H     0.38871   0.22301   0.31182   0.00000  Uiso   1.00
C197   C     0.83406   0.24649   0.24779   0.00000  Uiso   1.00
C198   C     0.83278   0.08694   0.25232   0.00000  Uiso   1.00
C199   C     0.76946   0.17112   0.05662   0.00000  Uiso   1.00
C200   C     0.86394   0.11433   0.46204   0.00000  Uiso   1.00
C201   C     0.73687   0.18249   0.03524   0.00000  Uiso   1.00
C202   C     0.89474   0.10026   0.48414   0.00000  Uiso   1.00
C203   C     0.87381   0.31290   0.21662   0.00000  Uiso   1.00
C204   C     0.79575   0.02076   0.28607   0.00000  Uiso   1.00
C205   C     0.87194   0.02252   0.21957   0.00000  Uiso   1.00
C206   C     0.79682   0.31110   0.28231   0.00000  Uiso   1.00
C207   C     0.83317   0.04278   0.25325   0.00000  Uiso   1.00
C208   C     0.83457   0.29077   0.24737   0.00000  Uiso   1.00
C209   C     0.98737   0.13755   0.22415   0.00000  Uiso   1.00
C210   C     0.67975   0.19644   0.27454   0.00000  Uiso   1.00
C211   C     0.70107   0.13718   0.22586   0.00000  Uiso   1.00
C212   C     0.96604   0.19653   0.27326   0.00000  Uiso   1.00
C213   C     0.80330   0.16877   0.33806   0.00000  Uiso   1.00
C214   C     0.86315   0.16579   0.16222   0.00000  Uiso   1.00
C215   C     0.78462   0.17179   0.38931   0.00000  Uiso   1.00
C216   C     0.87965   0.15574   0.11283   0.00000  Uiso   1.00
C217   C     0.71830   0.18304   0.46308   0.00000  Uiso   1.00
C218   C     0.91930   0.10501   0.05212   0.00000  Uiso   1.00
C219   C     0.73515   0.17853   0.41459   0.00000  Uiso   1.00
C220   C     0.91224   0.12222   0.09554   0.00000  Uiso   1.00
C221   C     0.81601   0.16773   0.41396   0.00000  Uiso   1.00
C222   C     0.85322   0.17159   0.08687   0.00000  Uiso   1.00
C223   C     0.79631   0.15902   0.46151   0.00000  Uiso   1.00
C224   C     0.85164   0.14752   0.04922   0.00000  Uiso   1.00
C225   C     0.74947   0.17453   0.48718   0.00000  Uiso   1.00
C226   C     0.88904   0.11720   0.02822   0.00000  Uiso   1.00
C227   C     0.82516   0.14206   0.48456   0.00000  Uiso   1.00
C228   C     0.81520   0.15365   0.03072   0.00000  Uiso   1.00
H229   H     0.93185   0.10909   0.11584   0.00000  Uiso   1.00
H230   H     0.71012   0.18291   0.39680   0.00000  Uiso   1.00
H231   H     0.68096   0.19202   0.48129   0.00000  Uiso   1.00
H232   H     0.94667   0.08069   0.03907   0.00000  Uiso   1.00
H233   H     0.75930   0.17639   0.09353   0.00000  Uiso   1.00
H234   H     0.86920   0.10281   0.42753   0.00000  Uiso   1.00
H235   H     0.90089   0.04044   0.19555   0.00000  Uiso   1.00
H236   H     0.76973   0.29297   0.30806   0.00000  Uiso   1.00
H237   H     0.72746   0.11336   0.20765   0.00000  Uiso   1.00
H238   H     0.94000   0.22041   0.29153   0.00000  Uiso   1.00
N239   N     0.71426   0.16668   0.25001   0.00000  Uiso   1.00
N240   N     0.95241   0.16666   0.24999   0.00000  Uiso   1.00
O241   O     0.79512   0.22775   0.25000   0.00000  Uiso   1.00
O242   O     0.87154   0.10558   0.24999   0.00000  Uiso   1.00
O243   O     0.87157   0.22774   0.25000   0.00000  Uiso   1.00
O244   O     0.79510   0.10559   0.25000   0.00000  Uiso   1.00
O245   O     0.77328   0.16667   0.31612   0.00000  Uiso   1.00
O246   O     0.89339   0.16666   0.18387   0.00000  Uiso   1.00
O247   O     0.84972   0.16666   0.31612   0.00000  Uiso   1.00
O248   O     0.81695   0.16667   0.18388   0.00000  Uiso   1.00
Zn249  Zn    0.78229   0.16667   0.25000   0.00000  Uiso   1.00
Zn250  Zn    0.88438   0.16666   0.25000   0.00000  Uiso   1.00
S251   S     0.68740   0.21550   0.06662   0.00000  Uiso   1.00
O252   O     0.68890   0.25487   0.03940   0.00000  Uiso   1.00
O253   O     0.97467   0.19389   0.07336   0.00000  Uiso   1.00
O254   O     0.68953   0.22858   0.11865   0.00000  Uiso   1.00
H255   H     0.67203   0.20646   0.14037   0.00000  Uiso   1.00
S256   S     0.94154   0.06401   0.45403   0.00000  Uiso   1.00
O257   O     0.98931   0.08271   0.44758   0.00000  Uiso   1.00
O258   O     0.93571   0.02466   0.48222   0.00000  Uiso   1.00
O259   O     0.93979   0.05229   0.40151   0.00000  Uiso   1.00
H260   H     0.95911   0.02602   0.39172   0.00000  Uiso   1.00
S261   S     0.83377   0.22540   0.09447   0.00000  Uiso   1.00
O262   O     0.78792   0.23031   0.13621   0.00000  Uiso   1.00
O263   O     0.87178   0.25108   0.10196   0.00000  Uiso   1.00
O264   O     0.82514   0.24399   0.04694   0.00000  Uiso   1.00
H265   H     0.80769   0.27112   0.05688   0.00000  Uiso   1.00
S266   S     0.87377   0.19119   0.39311   0.00000  Uiso   1.00
O267   O     0.91091   0.15993   0.36407   0.00000  Uiso   1.00
O268   O     0.87203   0.22898   0.36460   0.00000  Uiso   1.00
O269   O     0.88930   0.20705   0.43762   0.00000  Uiso   1.00
H270   H     0.92351   0.21479   0.42312   0.00000  Uiso   1.00
S271   S     0.92727   0.28963   0.17641   0.00000  Uiso   1.00
O272   O     0.91816   0.24769   0.16013   0.00000  Uiso   1.00
O273   O     0.94825   0.31740   0.13476   0.00000  Uiso   1.00
O274   O     0.96734   0.28349   0.20270   0.00000  Uiso   1.00
H275   H     0.97532   0.31233   0.20867   0.00000  Uiso   1.00
S276   S     0.75071   0.04525   0.33447   0.00000  Uiso   1.00
O277   O     0.71634   0.07017   0.31852   0.00000  Uiso   1.00
O278   O     0.72327   0.01297   0.36893   0.00000  Uiso   1.00
O279   O     0.77731   0.07731   0.36040   0.00000  Uiso   1.00
H280   H     0.75231   0.08404   0.39115   0.00000  Uiso   1.00
C281   C     0.97745   0.10454   0.19388   0.00000  Uiso   1.00
C282   C     0.68088   0.10325   0.14387   0.00000  Uiso   1.00
H283   H     0.68151   0.13393   0.12690   0.00000  Uiso   1.00
H284   H     0.71757   0.09465   0.14241   0.00000  Uiso   1.00
H285   H     0.67045   0.07917   0.12363   0.00000  Uiso   1.00
H286   H     0.97688   0.07333   0.21003   0.00000  Uiso   1.00
H287   H     0.94278   0.11033   0.19049   0.00000  Uiso   1.00
C288   C     0.68838   0.22877   0.30599   0.00000  Uiso   1.00
C289   C     0.68745   0.27308   0.28736   0.00000  Uiso   1.00
H290   H     0.71726   0.27675   0.25325   0.00000  Uiso   1.00
H291   H     0.98607   0.28026   0.28319   0.00000  Uiso   1.00
H292   H     0.69109   0.29623   0.31252   0.00000  Uiso   1.00
H293   H     0.99280   0.22674   0.34098   0.00000  Uiso   1.00
H294   H     0.72205   0.22301   0.31182   0.00000  Uiso   1.00
C295   C     0.16739   0.57982   0.24779   0.00000  Uiso   1.00
C296   C     0.16612   0.42027   0.25232   0.00000  Uiso   1.00
C297   C     0.10279   0.50445   0.05662   0.00000  Uiso   1.00
C298   C     0.19727   0.44767   0.46204   0.00000  Uiso   1.00
C299   C     0.07020   0.51583   0.03524   0.00000  Uiso   1.00
C300   C     0.22807   0.43360   0.48414   0.00000  Uiso   1.00
C301   C     0.20715   0.64623   0.21662   0.00000  Uiso   1.00
C302   C     0.12908   0.35409   0.28607   0.00000  Uiso   1.00
C303   C     0.20528   0.35585   0.21957   0.00000  Uiso   1.00
C304   C     0.13015   0.64443   0.28231   0.00000  Uiso   1.00
C305   C     0.16650   0.37611   0.25325   0.00000  Uiso   1.00
C306   C     0.16791   0.62411   0.24737   0.00000  Uiso   1.00
C307   C     0.32070   0.47089   0.22415   0.00000  Uiso   1.00
C308   C     0.01309   0.52978   0.27454   0.00000  Uiso   1.00
C309   C     0.03441   0.47051   0.22586   0.00000  Uiso   1.00
C310   C     0.29937   0.52987   0.27326   0.00000  Uiso   1.00
C311   C     0.13664   0.50211   0.33806   0.00000  Uiso   1.00
C312   C     0.19648   0.49913   0.16222   0.00000  Uiso   1.00
C313   C     0.11796   0.50512   0.38931   0.00000  Uiso   1.00
C314   C     0.21299   0.48907   0.11283   0.00000  Uiso   1.00
C315   C     0.05164   0.51637   0.46308   0.00000  Uiso   1.00
C316   C     0.25264   0.43835   0.05212   0.00000  Uiso   1.00
C317   C     0.06848   0.51186   0.41459   0.00000  Uiso   1.00
C318   C     0.24557   0.45555   0.09554   0.00000  Uiso   1.00
C319   C     0.14934   0.50106   0.41396   0.00000  Uiso   1.00
C320   C     0.18655   0.50493   0.08687   0.00000  Uiso   1.00
C321   C     0.12964   0.49235   0.46151   0.00000  Uiso   1.00
C322   C     0.18497   0.48085   0.04922   0.00000  Uiso   1.00
C323   C     0.08281   0.50786   0.48718   0.00000  Uiso   1.00
C324   C     0.22238   0.45053   0.02822   0.00000  Uiso   1.00
C325   C     0.15850   0.47539   0.48456   0.00000  Uiso   1.00
C326   C     0.14854   0.48698   0.03072   0.00000  Uiso   1.00
H327   H     0.26518   0.44242   0.11584   0.00000  Uiso   1.00
H328   H     0.04345   0.51625   0.39680   0.00000  Uiso   1.00
H329   H     0.01430   0.52535   0.48129   0.00000  Uiso   1.00
H330   H     0.28000   0.41402   0.03907   0.00000  Uiso   1.00
H331   H     0.09263   0.50972   0.09353   0.00000  Uiso   1.00
H332   H     0.20254   0.43615   0.42753   0.00000  Uiso   1.00
H333   H     0.23423   0.37377   0.19555   0.00000  Uiso   1.00
H334   H     0.10306   0.62630   0.30806   0.00000  Uiso   1.00
H335   H     0.06080   0.44669   0.20765   0.00000  Uiso   1.00
H336   H     0.27333   0.55375   0.29153   0.00000  Uiso   1.00
N337   N     0.04759   0.50001   0.25001   0.00000  Uiso   1.00
N338   N     0.28574   0.49999   0.24999   0.00000  Uiso   1.00
O339   O     0.12846   0.56108   0.25000   0.00000  Uiso   1.00
O340   O     0.20488   0.43892   0.24999   0.00000  Uiso   1.00
O341   O     0.20490   0.56107   0.25000   0.00000  Uiso   1.00
O342   O     0.12843   0.43893   0.25000   0.00000  Uiso   1.00
O343   O     0.10661   0.50001   0.31612   0.00000  Uiso   1.00
O344   O     0.22672   0.49999   0.18387   0.00000  Uiso   1.00
O345   O     0.18305   0.50000   0.31612   0.00000  Uiso   1.00
O346   O     0.15028   0.50000   0.18388   0.00000  Uiso   1.00
Zn347  Zn    0.11562   0.50001   0.25000   0.00000  Uiso   1.00
Zn348  Zn    0.21771   0.49999   0.25000   0.00000  Uiso   1.00
S349   S     0.02073   0.54884   0.06662   0.00000  Uiso   1.00
O350   O     0.02224   0.58820   0.03940   0.00000  Uiso   1.00
O351   O     0.30800   0.52722   0.07336   0.00000  Uiso   1.00
O352   O     0.02287   0.56191   0.11865   0.00000  Uiso   1.00
H353   H     0.00536   0.53979   0.14037   0.00000  Uiso   1.00
S354   S     0.27488   0.39735   0.45403   0.00000  Uiso   1.00
O355   O     0.32264   0.41604   0.44758   0.00000  Uiso   1.00
O356   O     0.26904   0.35800   0.48222   0.00000  Uiso   1.00
O357   O     0.27312   0.38563   0.40151   0.00000  Uiso   1.00
H358   H     0.29244   0.35935   0.39172   0.00000  Uiso   1.00
S359   S     0.16710   0.55874   0.09447   0.00000  Uiso   1.00
O360   O     0.12125   0.56365   0.13621   0.00000  Uiso   1.00
O361   O     0.20512   0.58442   0.10196   0.00000  Uiso   1.00
O362   O     0.15848   0.57732   0.04694   0.00000  Uiso   1.00
H363   H     0.14102   0.60445   0.05688   0.00000  Uiso   1.00
S364   S     0.20710   0.52452   0.39311   0.00000  Uiso   1.00
O365   O     0.24424   0.49327   0.36407   0.00000  Uiso   1.00
O366   O     0.20536   0.56231   0.36460   0.00000  Uiso   1.00
O367   O     0.22264   0.54038   0.43762   0.00000  Uiso   1.00
H368   H     0.25685   0.54812   0.42312   0.00000  Uiso   1.00
S369   S     0.26060   0.62297   0.17641   0.00000  Uiso   1.00
O370   O     0.25149   0.58103   0.16013   0.00000  Uiso   1.00
O371   O     0.28158   0.65073   0.13476   0.00000  Uiso   1.00
O372   O     0.30067   0.61683   0.20270   0.00000  Uiso   1.00
H373   H     0.30866   0.64566   0.20867   0.00000  Uiso   1.00
S374   S     0.08404   0.37859   0.33447   0.00000  Uiso   1.00
O375   O     0.04967   0.40351   0.31852   0.00000  Uiso   1.00
O376   O     0.05660   0.34630   0.36893   0.00000  Uiso   1.00
O377   O     0.11064   0.41064   0.36040   0.00000  Uiso   1.00
H378   H     0.08564   0.41737   0.39115   0.00000  Uiso   1.00
C379   C     0.31078   0.43787   0.19388   0.00000  Uiso   1.00
C380   C     0.01421   0.43659   0.14387   0.00000  Uiso   1.00
H381   H     0.01485   0.46727   0.12690   0.00000  Uiso   1.00
H382   H     0.05091   0.42798   0.14241   0.00000  Uiso   1.00
H383   H     0.00378   0.41250   0.12363   0.00000  Uiso   1.00
H384   H     0.31021   0.40666   0.21003   0.00000  Uiso   1.00
H385   H     0.27611   0.44367   0.19049   0.00000  Uiso   1.00
C386   C     0.02171   0.56210   0.30599   0.00000  Uiso   1.00
C387   C     0.02079   0.60642   0.28736   0.00000  Uiso   1.00
H388   H     0.05060   0.61008   0.25325   0.00000  Uiso   1.00
H389   H     0.31940   0.61359   0.28319   0.00000  Uiso   1.00
H390   H     0.02442   0.62956   0.31252   0.00000  Uiso   1.00
H391   H     0.32613   0.56007   0.34098   0.00000  Uiso   1.00
H392   H     0.05538   0.55635   0.31182   0.00000  Uiso   1.00
C393   C     0.50073   0.57982   0.24779   0.00000  Uiso   1.00
C394   C     0.49945   0.42027   0.25232   0.00000  Uiso   1.00
C395   C     0.43612   0.50445   0.05662   0.00000  Uiso   1.00
C396   C     0.53061   0.44767   0.46204   0.00000  Uiso   1.00
C397   C     0.40354   0.51583   0.03524   0.00000  Uiso   1.00
C398   C     0.56141   0.43360   0.48414   0.00000  Uiso   1.00
C399   C     0.54048   0.64623   0.21662   0.00000  Uiso   1.00
C400   C     0.46242   0.35409   0.28607   0.00000  Uiso   1.00
C401   C     0.53861   0.35585   0.21957   0.00000  Uiso   1.00
C402   C     0.46348   0.64443   0.28231   0.00000  Uiso   1.00
C403   C     0.49983   0.37611   0.25325   0.00000  Uiso   1.00
C404   C     0.50124   0.62411   0.24737   0.00000  Uiso   1.00
C405   C     0.65404   0.47089   0.22415   0.00000  Uiso   1.00
C406   C     0.34642   0.52978   0.27454   0.00000  Uiso   1.00
C407   C     0.36774   0.47051   0.22586   0.00000  Uiso   1.00
C408   C     0.63271   0.52987   0.27326   0.00000  Uiso   1.00
C409   C     0.46997   0.50211   0.33806   0.00000  Uiso   1.00
C410   C     0.52982   0.49913   0.16222   0.00000  Uiso   1.00
C411   C     0.45129   0.50512   0.38931   0.00000  Uiso   1.00
C412   C     0.54632   0.48907   0.11283   0.00000  Uiso   1.00
C413   C     0.38497   0.51637   0.46308   0.00000  Uiso   1.00
C414   C     0.58597   0.43835   0.05212   0.00000  Uiso   1.00
C415   C     0.40182   0.51186   0.41459   0.00000  Uiso   1.00
C416   C     0.57891   0.45555   0.09554   0.00000  Uiso   1.00
C417   C     0.48267   0.50106   0.41396   0.00000  Uiso   1.00
C418   C     0.51988   0.50493   0.08687   0.00000  Uiso   1.00
C419   C     0.46297   0.49235   0.46151   0.00000  Uiso   1.00
C420   C     0.51830   0.48085   0.04922   0.00000  Uiso   1.00
C421   C     0.41614   0.50786   0.48718   0.00000  Uiso   1.00
C422   C     0.55571   0.45053   0.02822   0.00000  Uiso   1.00
C423   C     0.49183   0.47539   0.48456   0.00000  Uiso   1.00
C424   C     0.48187   0.48698   0.03072   0.00000  Uiso   1.00
H425   H     0.59852   0.44242   0.11584   0.00000  Uiso   1.00
H426   H     0.37678   0.51625   0.39680   0.00000  Uiso   1.00
H427   H     0.34763   0.52535   0.48129   0.00000  Uiso   1.00
H428   H     0.61334   0.41402   0.03907   0.00000  Uiso   1.00
H429   H     0.42597   0.50972   0.09353   0.00000  Uiso   1.00
H430   H     0.53587   0.43615   0.42753   0.00000  Uiso   1.00
H431   H     0.56756   0.37377   0.19555   0.00000  Uiso   1.00
H432   H     0.43639   0.62630   0.30806   0.00000  Uiso   1.00
H433   H     0.39413   0.44669   0.20765   0.00000  Uiso   1.00
H434   H     0.60667   0.55375   0.29153   0.00000  Uiso   1.00
N435   N     0.38093   0.50001   0.25001   0.00000  Uiso   1.00
N436   N     0.61907   0.49999   0.24999   0.00000  Uiso   1.00
O437   O     0.46179   0.56108   0.25000   0.00000  Uiso   1.00
O438   O     0.53821   0.43892   0.24999   0.00000  Uiso   1.00
O439   O     0.53823   0.56107   0.25000   0.00000  Uiso   1.00
O440   O     0.46177   0.43893   0.25000   0.00000  Uiso   1.00
O441   O     0.43994   0.50001   0.31612   0.00000  Uiso   1.00
O442   O     0.56006   0.49999   0.18387   0.00000  Uiso   1.00
O443   O     0.51639   0.50000   0.31612   0.00000  Uiso   1.00
O444   O     0.48361   0.50000   0.18388   0.00000  Uiso   1.00
Zn445  Zn    0.44896   0.50001   0.25000   0.00000  Uiso   1.00
Zn446  Zn    0.55104   0.49999   0.25000   0.00000  Uiso   1.00
S447   S     0.35407   0.54884   0.06662   0.00000  Uiso   1.00
O448   O     0.35557   0.58820   0.03940   0.00000  Uiso   1.00
O449   O     0.64133   0.52722   0.07336   0.00000  Uiso   1.00
O450   O     0.35620   0.56191   0.11865   0.00000  Uiso   1.00
H451   H     0.33870   0.53979   0.14037   0.00000  Uiso   1.00
S452   S     0.60821   0.39735   0.45403   0.00000  Uiso   1.00
O453   O     0.65597   0.41604   0.44758   0.00000  Uiso   1.00
O454   O     0.60238   0.35800   0.48222   0.00000  Uiso   1.00
O455   O     0.60645   0.38563   0.40151   0.00000  Uiso   1.00
H456   H     0.62577   0.35935   0.39172   0.00000  Uiso   1.00
S457   S     0.50043   0.55874   0.09447   0.00000  Uiso   1.00
O458   O     0.45458   0.56365   0.13621   0.00000  Uiso   1.00
O459   O     0.53845   0.58442   0.10196   0.00000  Uiso   1.00
O460   O     0.49181   0.57732   0.04694   0.00000  Uiso   1.00
H461   H     0.47436   0.60445   0.05688   0.00000  Uiso   1.00
S462   S     0.54044   0.52452   0.39311   0.00000  Uiso   1.00
O463   O     0.57758   0.49327   0.36407   0.00000  Uiso   1.00
O464   O     0.53870   0.56231   0.36460   0.00000  Uiso   1.00
O465   O     0.55597   0.54038   0.43762   0.00000  Uiso   1.00
H466   H     0.59018   0.54812   0.42312   0.00000  Uiso   1.00
S467   S     0.59393   0.62297   0.17641   0.00000  Uiso   1.00
O468   O     0.58482   0.58103   0.16013   0.00000  Uiso   1.00
O469   O     0.61492   0.65073   0.13476   0.00000  Uiso   1.00
O470   O     0.63400   0.61683   0.20270   0.00000  Uiso   1.00
H471   H     0.64199   0.64566   0.20867   0.00000  Uiso   1.00
S472   S     0.41738   0.37859   0.33447   0.00000  Uiso   1.00
O473   O     0.38300   0.40351   0.31852   0.00000  Uiso   1.00
O474   O     0.38994   0.34630   0.36893   0.00000  Uiso   1.00
O475   O     0.44398   0.41064   0.36040   0.00000  Uiso   1.00
H476   H     0.41897   0.41737   0.39115   0.00000  Uiso   1.00
C477   C     0.64412   0.43787   0.19388   0.00000  Uiso   1.00
C478   C     0.34754   0.43659   0.14387   0.00000  Uiso   1.00
H479   H     0.34818   0.46727   0.12690   0.00000  Uiso   1.00
H480   H     0.38424   0.42798   0.14241   0.00000  Uiso   1.00
H481   H     0.33712   0.41250   0.12363   0.00000  Uiso   1.00
H482   H     0.64355   0.40666   0.21003   0.00000  Uiso   1.00
H483   H     0.60945   0.44367   0.19049   0.00000  Uiso   1.00
C484   C     0.35504   0.56210   0.30599   0.00000  Uiso   1.00
C485   C     0.35412   0.60642   0.28736   0.00000  Uiso   1.00
H486   H     0.38393   0.61008   0.25325   0.00000  Uiso   1.00
H487   H     0.65273   0.61359   0.28319   0.00000  Uiso   1.00
H488   H     0.35775   0.62956   0.31252   0.00000  Uiso   1.00
H489   H     0.65946   0.56007   0.34098   0.00000  Uiso   1.00
H490   H     0.38871   0.55635   0.31182   0.00000  Uiso   1.00
C491   C     0.83406   0.57982   0.24779   0.00000  Uiso   1.00
C492   C     0.83278   0.42027   0.25232   0.00000  Uiso   1.00
C493   C     0.76946   0.50445   0.05662   0.00000  Uiso   1.00
C494   C     0.86394   0.44767   0.46204   0.00000  Uiso   1.00
C495   C     0.73687   0.51583   0.03524   0.00000  Uiso   1.00
C496   C     0.89474   0.43360   0.48414   0.00000  Uiso   1.00
C497   C     0.87381   0.64623   0.21662   0.00000  Uiso   1.00
C498   C     0.79575   0.35409   0.28607   0.00000  Uiso   1.00
C499   C     0.87194   0.35585   0.21957   0.00000  Uiso   1.00
C500   C     0.79682   0.64443   0.28231   0.00000  Uiso   1.00
C501   C     0.83317   0.37611   0.25325   0.00000  Uiso   1.00
C502   C     0.83457   0.62411   0.24737   0.00000  Uiso   1.00
C503   C     0.98737   0.47089   0.22415   0.00000  Uiso   1.00
C504   C     0.67975   0.52978   0.27454   0.00000  Uiso   1.00
C505   C     0.70107   0.47051   0.22586   0.00000  Uiso   1.00
C506   C     0.96604   0.52987   0.27326   0.00000  Uiso   1.00
C507   C     0.80330   0.50211   0.33806   0.00000  Uiso   1.00
C508   C     0.86315   0.49913   0.16222   0.00000  Uiso   1.00
C509   C     0.78462   0.50512   0.38931   0.00000  Uiso   1.00
C510   C     0.87965   0.48907   0.11283   0.00000  Uiso   1.00
C511   C     0.71830   0.51637   0.46308   0.00000  Uiso   1.00
C512   C     0.91930   0.43835   0.05212   0.00000  Uiso   1.00
C513   C     0.73515   0.51186   0.41459   0.00000  Uiso   1.00
C514   C     0.91224   0.45555   0.09554   0.00000  Uiso   1.00
C515   C     0.81601   0.50106   0.41396   0.00000  Uiso   1.00
C516   C     0.85322   0.50493   0.08687   0.00000  Uiso   1.00
C517   C     0.79631   0.49235   0.46151   0.00000  Uiso   1.00
C518   C     0.85164   0.48085   0.04922   0.00000  Uiso   1.00
C519   C     0.74947   0.50786   0.48718   0.00000  Uiso   1.00
C520   C     0.88904   0.45053   0.02822   0.00000  Uiso   1.00
C521   C     0.82516   0.47539   0.48456   0.00000  Uiso   1.00
C522   C     0.81520   0.48698   0.03072   0.00000  Uiso   1.00
H523   H     0.93185   0.44242   0.11584   0.00000  Uiso   1.00
H524   H     0.71012   0.51625   0.39680   0.00000  Uiso   1.00
H525   H     0.68096   0.52535   0.48129   0.00000  Uiso   1.00
H526   H     0.94667   0.41402   0.03907   0.00000  Uiso   1.00
H527   H     0.75930   0.50972   0.09353   0.00000  Uiso   1.00
H528   H     0.86920   0.43615   0.42753   0.00000  Uiso   1.00
H529   H     0.90089   0.37377   0.19555   0.00000  Uiso   1.00
H530   H     0.76973   0.62630   0.30806   0.00000  Uiso   1.00
H531   H     0.72746   0.44669   0.20765   0.00000  Uiso   1.00
H532   H     0.94000   0.55375   0.29153   0.00000  Uiso   1.00
N533   N     0.71426   0.50001   0.25001   0.00000  Uiso   1.00
N534   N     0.95241   0.49999   0.24999   0.00000  Uiso   1.00
O535   O     0.79512   0.56108   0.25000   0.00000  Uiso   1.00
O536   O     0.87154   0.43892   0.24999   0.00000  Uiso   1.00
O537   O     0.87157   0.56107   0.25000   0.00000  Uiso   1.00
O538   O     0.79510   0.43893   0.25000   0.00000  Uiso   1.00
O539   O     0.77328   0.50001   0.31612   0.00000  Uiso   1.00
O540   O     0.89339   0.49999   0.18387   0.00000  Uiso   1.00
O541   O     0.84972   0.50000   0.31612   0.00000  Uiso   1.00
O542   O     0.81695   0.50000   0.18388   0.00000  Uiso   1.00
Zn543  Zn    0.78229   0.50001   0.25000   0.00000  Uiso   1.00
Zn544  Zn    0.88438   0.49999   0.25000   0.00000  Uiso   1.00
S545   S     0.68740   0.54884   0.06662   0.00000  Uiso   1.00
O546   O     0.68890   0.58820   0.03940   0.00000  Uiso   1.00
O547   O     0.97467   0.52722   0.07336   0.00000  Uiso   1.00
O548   O     0.68953   0.56191   0.11865   0.00000  Uiso   1.00
H549   H     0.67203   0.53979   0.14037   0.00000  Uiso   1.00
S550   S     0.94154   0.39735   0.45403   0.00000  Uiso   1.00
O551   O     0.98931   0.41604   0.44758   0.00000  Uiso   1.00
O552   O     0.93571   0.35800   0.48222   0.00000  Uiso   1.00
O553   O     0.93979   0.38563   0.40151   0.00000  Uiso   1.00
H554   H     0.95911   0.35935   0.39172   0.00000  Uiso   1.00
S555   S     0.83377   0.55874   0.09447   0.00000  Uiso   1.00
O556   O     0.78792   0.56365   0.13621   0.00000  Uiso   1.00
O557   O     0.87178   0.58442   0.10196   0.00000  Uiso   1.00
O558   O     0.82514   0.57732   0.04694   0.00000  Uiso   1.00
H559   H     0.80769   0.60445   0.05688   0.00000  Uiso   1.00
S560   S     0.87377   0.52452   0.39311   0.00000  Uiso   1.00
O561   O     0.91091   0.49327   0.36407   0.00000  Uiso   1.00
O562   O     0.87203   0.56231   0.36460   0.00000  Uiso   1.00
O563   O     0.88930   0.54038   0.43762   0.00000  Uiso   1.00
H564   H     0.92351   0.54812   0.42312   0.00000  Uiso   1.00
S565   S     0.92727   0.62297   0.17641   0.00000  Uiso   1.00
O566   O     0.91816   0.58103   0.16013   0.00000  Uiso   1.00
O567   O     0.94825   0.65073   0.13476   0.00000  Uiso   1.00
O568   O     0.96734   0.61683   0.20270   0.00000  Uiso   1.00
H569   H     0.97532   0.64566   0.20867   0.00000  Uiso   1.00
S570   S     0.75071   0.37859   0.33447   0.00000  Uiso   1.00
O571   O     0.71634   0.40351   0.31852   0.00000  Uiso   1.00
O572   O     0.72327   0.34630   0.36893   0.00000  Uiso   1.00
O573   O     0.77731   0.41064   0.36040   0.00000  Uiso   1.00
H574   H     0.75231   0.41737   0.39115   0.00000  Uiso   1.00
C575   C     0.97745   0.43787   0.19388   0.00000  Uiso   1.00
C576   C     0.68088   0.43659   0.14387   0.00000  Uiso   1.00
H577   H     0.68151   0.46727   0.12690   0.00000  Uiso   1.00
H578   H     0.71757   0.42798   0.14241   0.00000  Uiso   1.00
H579   H     0.67045   0.41250   0.12363   0.00000  Uiso   1.00
H580   H     0.97688   0.40666   0.21003   0.00000  Uiso   1.00
H581   H     0.94278   0.44367   0.19049   0.00000  Uiso   1.00
C582   C     0.68838   0.56210   0.30599   0.00000  Uiso   1.00
C583   C     0.68745   0.60642   0.28736   0.00000  Uiso   1.00
H584   H     0.71726   0.61008   0.25325   0.00000  Uiso   1.00
H585   H     0.98607   0.61359   0.28319   0.00000  Uiso   1.00
H586   H     0.69109   0.62956   0.31252   0.00000  Uiso   1.00
H587   H     0.99280   0.56007   0.34098   0.00000  Uiso   1.00
H588   H     0.72205   0.55635   0.31182   0.00000  Uiso   1.00
C589   C     0.16739   0.91316   0.24779   0.00000  Uiso   1.00
C590   C     0.16612   0.75360   0.25232   0.00000  Uiso   1.00
C591   C     0.10279   0.83778   0.05662   0.00000  Uiso   1.00
C592   C     0.19727   0.78100   0.46204   0.00000  Uiso   1.00
C593   C     0.07020   0.84916   0.03524   0.00000  Uiso   1.00
C594   C     0.22807   0.76693   0.48414   0.00000  Uiso   1.00
C595   C     0.20715   0.97957   0.21662   0.00000  Uiso   1.00
C596   C     0.12908   0.68743   0.28607   0.00000  Uiso   1.00
C597   C     0.20528   0.68919   0.21957   0.00000  Uiso   1.00
C598   C     0.13015   0.97776   0.28231   0.00000  Uiso   1.00
C599   C     0.16650   0.70944   0.25325   0.00000  Uiso   1.00
C600   C     0.16791   0.95744   0.24737   0.00000  Uiso   1.00
C601   C     0.32070   0.80422   0.22415   0.00000  Uiso   1.00
C602   C     0.01309   0.86311   0.27454   0.00000  Uiso   1.00
C603   C     0.03441   0.80384   0.22586   0.00000  Uiso   1.00
C604   C     0.29937   0.86320   0.27326   0.00000  Uiso   1.00
C605   C     0.13664   0.83544   0.33806   0.00000  Uiso   1.00
C606   C     0.19648   0.83246   0.16222   0.00000  Uiso   1.00
C607   C     0.11796   0.83845   0.38931   0.00000  Uiso   1.00
C608   C     0.21299   0.82240   0.11283   0.00000  Uiso   1.00
C609   C     0.05164   0.84971   0.46308   0.00000  Uiso   1.00
C610   C     0.25264   0.77168   0.05212   0.00000  Uiso   1.00
C611   C     0.06848   0.84520   0.41459   0.00000  Uiso   1.00
C612   C     0.24557   0.78889   0.09554   0.00000  Uiso   1.00
C613   C     0.14934   0.83440   0.41396   0.00000  Uiso   1.00
C614   C     0.18655   0.83826   0.08687   0.00000  Uiso   1.00
C615   C     0.12964   0.82569   0.46151   0.00000  Uiso   1.00
C616   C     0.18497   0.81418   0.04922   0.00000  Uiso   1.00
C617   C     0.08281   0.84120   0.48718   0.00000  Uiso   1.00
C618   C     0.22238   0.78387   0.02822   0.00000  Uiso   1.00
C619   C     0.15850   0.80872   0.48456   0.00000  Uiso   1.00
C620   C     0.14854   0.82031   0.03072   0.00000  Uiso   1.00
H621   H     0.26518   0.77575   0.11584   0.00000  Uiso   1.00
H622   H     0.04345   0.84958   0.39680   0.00000  Uiso   1.00
H623   H     0.01430   0.85869   0.48129   0.00000  Uiso   1.00
H624   H     0.28000   0.74735   0.03907   0.00000  Uiso   1.00
H625   H     0.09263   0.84306   0.09353   0.00000  Uiso   1.00
H626   H     0.20254   0.76948   0.42753   0.00000  Uiso   1.00
H627   H     0.23423   0.70711   0.19555   0.00000  Uiso   1.00
H628   H     0.10306   0.95964   0.30806   0.00000  Uiso   1.00
H629   H     0.06080   0.78003   0.20765   0.00000  Uiso   1.00
H630   H     0.27333   0.88708   0.29153   0.00000  Uiso   1.00
N631   N     0.04759   0.83334   0.25001   0.00000  Uiso   1.00
N632   N     0.28574   0.83332   0.24999   0.00000  Uiso   1.00
O633   O     0.12846   0.89442   0.25000   0.00000  Uiso   1.00
O634   O     0.20488   0.77225   0.24999   0.00000  Uiso   1.00
O635   O     0.20490   0.89441   0.25000   0.00000  Uiso   1.00
O636   O     0.12843   0.77226   0.25000   0.00000  Uiso   1.00
O637   O     0.10661   0.83334   0.31612   0.00000  Uiso   1.00
O638   O     0.22672   0.83333   0.18387   0.00000  Uiso   1.00
O639   O     0.18305   0.83333   0.31612   0.00000  Uiso   1.00
O640   O     0.15028   0.83334   0.18388   0.00000  Uiso   1.00
Zn641  Zn    0.11562   0.83334   0.25000   0.00000  Uiso   1.00
Zn642  Zn    0.21771   0.83333   0.25000   0.00000  Uiso   1.00
S643   S     0.02073   0.88217   0.06662   0.00000  Uiso   1.00
O644   O     0.02224   0.92154   0.03940   0.00000  Uiso   1.00
O645   O     0.30800   0.86056   0.07336   0.00000  Uiso   1.00
O646   O     0.02287   0.89525   0.11865   0.00000  Uiso   1.00
H647   H     0.00536   0.87312   0.14037   0.00000  Uiso   1.00
S648   S     0.27488   0.73068   0.45403   0.00000  Uiso   1.00
O649   O     0.32264   0.74937   0.44758   0.00000  Uiso   1.00
O650   O     0.26904   0.69133   0.48222   0.00000  Uiso   1.00
O651   O     0.27312   0.71896   0.40151   0.00000  Uiso   1.00
H652   H     0.29244   0.69269   0.39172   0.00000  Uiso   1.00
S653   S     0.16710   0.89207   0.09447   0.00000  Uiso   1.00
O654   O     0.12125   0.89698   0.13621   0.00000  Uiso   1.00
O655   O     0.20512   0.91775   0.10196   0.00000  Uiso   1.00
O656   O     0.15848   0.91066   0.04694   0.00000  Uiso   1.00
H657   H     0.14102   0.93779   0.05688   0.00000  Uiso   1.00
S658   S     0.20710   0.85786   0.39311   0.00000  Uiso   1.00
O659   O     0.24424   0.82660   0.36407   0.00000  Uiso   1.00
O660   O     0.20536   0.89564   0.36460   0.00000  Uiso   1.00
O661   O     0.22264   0.87371   0.43762   0.00000  Uiso   1.00
H662   H     0.25685   0.88145   0.42312   0.00000  Uiso   1.00
S663   S     0.26060   0.95630   0.17641   0.00000  Uiso   1.00
O664   O     0.25149   0.91436   0.16013   0.00000  Uiso   1.00
O665   O     0.28158   0.98406   0.13476   0.00000  Uiso   1.00
O666   O     0.30067   0.95016   0.20270   0.00000  Uiso   1.00
H667   H     0.30866   0.97899   0.20867   0.00000  Uiso   1.00
S668   S     0.08404   0.71192   0.33447   0.00000  Uiso   1.00
O669   O     0.04967   0.73684   0.31852   0.00000  Uiso   1.00
O670   O     0.05660   0.67963   0.36893   0.00000  Uiso   1.00
O671   O     0.11064   0.74398   0.36040   0.00000  Uiso   1.00
H672   H     0.08564   0.75070   0.39115   0.00000  Uiso   1.00
C673   C     0.31078   0.77121   0.19388   0.00000  Uiso   1.00
C674   C     0.01421   0.76992   0.14387   0.00000  Uiso   1.00
H675   H     0.01485   0.80060   0.12690   0.00000  Uiso   1.00
H676   H     0.05091   0.76131   0.14241   0.00000  Uiso   1.00
H677   H     0.00378   0.74583   0.12363   0.00000  Uiso   1.00
H678   H     0.31021   0.73999   0.21003   0.00000  Uiso   1.00
H679   H     0.27611   0.77700   0.19049   0.00000  Uiso   1.00
C680   C     0.02171   0.89544   0.30599   0.00000  Uiso   1.00
C681   C     0.02079   0.93975   0.28736   0.00000  Uiso   1.00
H682   H     0.05060   0.94342   0.25325   0.00000  Uiso   1.00
H683   H     0.31940   0.94693   0.28319   0.00000  Uiso   1.00
H684   H     0.02442   0.96290   0.31252   0.00000  Uiso   1.00
H685   H     0.32613   0.89341   0.34098   0.00000  Uiso   1.00
H686   H     0.05538   0.88968   0.31182   0.00000  Uiso   1.00
C687   C     0.50073   0.91316   0.24779   0.00000  Uiso   1.00
C688   C     0.49945   0.75360   0.25232   0.00000  Uiso   1.00
C689   C     0.43612   0.83778   0.05662   0.00000  Uiso   1.00
C690   C     0.53061   0.78100   0.46204   0.00000  Uiso   1.00
C691   C     0.40354   0.84916   0.03524   0.00000  Uiso   1.00
C692   C     0.56141   0.76693   0.48414   0.00000  Uiso   1.00
C693   C     0.54048   0.97957   0.21662   0.00000  Uiso   1.00
C694   C     0.46242   0.68743   0.28607   0.00000  Uiso   1.00
C695   C     0.53861   0.68919   0.21957   0.00000  Uiso   1.00
C696   C     0.46348   0.97776   0.28231   0.00000  Uiso   1.00
C697   C     0.49983   0.70944   0.25325   0.00000  Uiso   1.00
C698   C     0.50124   0.95744   0.24737   0.00000  Uiso   1.00
C699   C     0.65404   0.80422   0.22415   0.00000  Uiso   1.00
C700   C     0.34642   0.86311   0.27454   0.00000  Uiso   1.00
C701   C     0.36774   0.80384   0.22586   0.00000  Uiso   1.00
C702   C     0.63271   0.86320   0.27326   0.00000  Uiso   1.00
C703   C     0.46997   0.83544   0.33806   0.00000  Uiso   1.00
C704   C     0.52982   0.83246   0.16222   0.00000  Uiso   1.00
C705   C     0.45129   0.83845   0.38931   0.00000  Uiso   1.00
C706   C     0.54632   0.82240   0.11283   0.00000  Uiso   1.00
C707   C     0.38497   0.84971   0.46308   0.00000  Uiso   1.00
C708   C     0.58597   0.77168   0.05212   0.00000  Uiso   1.00
C709   C     0.40182   0.84520   0.41459   0.00000  Uiso   1.00
C710   C     0.57891   0.78889   0.09554   0.00000  Uiso   1.00
C711   C     0.48267   0.83440   0.41396   0.00000  Uiso   1.00
C712   C     0.51988   0.83826   0.08687   0.00000  Uiso   1.00
C713   C     0.46297   0.82569   0.46151   0.00000  Uiso   1.00
C714   C     0.51830   0.81418   0.04922   0.00000  Uiso   1.00
C715   C     0.41614   0.84120   0.48718   0.00000  Uiso   1.00
C716   C     0.55571   0.78387   0.02822   0.00000  Uiso   1.00
C717   C     0.49183   0.80872   0.48456   0.00000  Uiso   1.00
C718   C     0.48187   0.82031   0.03072   0.00000  Uiso   1.00
H719   H     0.59852   0.77575   0.11584   0.00000  Uiso   1.00
H720   H     0.37678   0.84958   0.39680   0.00000  Uiso   1.00
H721   H     0.34763   0.85869   0.48129   0.00000  Uiso   1.00
H722   H     0.61334   0.74735   0.03907   0.00000  Uiso   1.00
H723   H     0.42597   0.84306   0.09353   0.00000  Uiso   1.00
H724   H     0.53587   0.76948   0.42753   0.00000  Uiso   1.00
H725   H     0.56756   0.70711   0.19555   0.00000  Uiso   1.00
H726   H     0.43639   0.95964   0.30806   0.00000  Uiso   1.00
H727   H     0.39413   0.78003   0.20765   0.00000  Uiso   1.00
H728   H     0.60667   0.88708   0.29153   0.00000  Uiso   1.00
N729   N     0.38093   0.83334   0.25001   0.00000  Uiso   1.00
N730   N     0.61907   0.83332   0.24999   0.00000  Uiso   1.00
O731   O     0.46179   0.89442   0.25000   0.00000  Uiso   1.00
O732   O     0.53821   0.77225   0.24999   0.00000  Uiso   1.00
O733   O     0.53823   0.89441   0.25000   0.00000  Uiso   1.00
O734   O     0.46177   0.77226   0.25000   0.00000  Uiso   1.00
O735   O     0.43994   0.83334   0.31612   0.00000  Uiso   1.00
O736   O     0.56006   0.83333   0.18387   0.00000  Uiso   1.00
O737   O     0.51639   0.83333   0.31612   0.00000  Uiso   1.00
O738   O     0.48361   0.83334   0.18388   0.00000  Uiso   1.00
Zn739  Zn    0.44896   0.83334   0.25000   0.00000  Uiso   1.00
Zn740  Zn    0.55104   0.83333   0.25000   0.00000  Uiso   1.00
S741   S     0.35407   0.88217   0.06662   0.00000  Uiso   1.00
O742   O     0.35557   0.92154   0.03940   0.00000  Uiso   1.00
O743   O     0.64133   0.86056   0.07336   0.00000  Uiso   1.00
O744   O     0.35620   0.89525   0.11865   0.00000  Uiso   1.00
H745   H     0.33870   0.87312   0.14037   0.00000  Uiso   1.00
S746   S     0.60821   0.73068   0.45403   0.00000  Uiso   1.00
O747   O     0.65597   0.74937   0.44758   0.00000  Uiso   1.00
O748   O     0.60238   0.69133   0.48222   0.00000  Uiso   1.00
O749   O     0.60645   0.71896   0.40151   0.00000  Uiso   1.00
H750   H     0.62577   0.69269   0.39172   0.00000  Uiso   1.00
S751   S     0.50043   0.89207   0.09447   0.00000  Uiso   1.00
O752   O     0.45458   0.89698   0.13621   0.00000  Uiso   1.00
O753   O     0.53845   0.91775   0.10196   0.00000  Uiso   1.00
O754   O     0.49181   0.91066   0.04694   0.00000  Uiso   1.00
H755   H     0.47436   0.93779   0.05688   0.00000  Uiso   1.00
S756   S     0.54044   0.85786   0.39311   0.00000  Uiso   1.00
O757   O     0.57758   0.82660   0.36407   0.00000  Uiso   1.00
O758   O     0.53870   0.89564   0.36460   0.00000  Uiso   1.00
O759   O     0.55597   0.87371   0.43762   0.00000  Uiso   1.00
H760   H     0.59018   0.88145   0.42312   0.00000  Uiso   1.00
S761   S     0.59393   0.95630   0.17641   0.00000  Uiso   1.00
O762   O     0.58482   0.91436   0.16013   0.00000  Uiso   1.00
O763   O     0.61492   0.98406   0.13476   0.00000  Uiso   1.00
O764   O     0.63400   0.95016   0.20270   0.00000  Uiso   1.00
H765   H     0.64199   0.97899   0.20867   0.00000  Uiso   1.00
S766   S     0.41738   0.71192   0.33447   0.00000  Uiso   1.00
O767   O     0.38300   0.73684   0.31852   0.00000  Uiso   1.00
O768   O     0.38994   0.67963   0.36893   0.00000  Uiso   1.00
O769   O     0.44398   0.74398   0.36040   0.00000  Uiso   1.00
H770   H     0.41897   0.75070   0.39115   0.00000  Uiso   1.00
C771   C     0.64412   0.77121   0.19388   0.00000  Uiso   1.00
C772   C     0.34754   0.76992   0.14387   0.00000  Uiso   1.00
H773   H     0.34818   0.80060   0.12690   0.00000  Uiso   1.00
H774   H     0.38424   0.76131   0.14241   0.00000  Uiso   1.00
H775   H     0.33712   0.74583   0.12363   0.00000  Uiso   1.00
H776   H     0.64355   0.73999   0.21003   0.00000  Uiso   1.00
H777   H     0.60945   0.77700   0.19049   0.00000  Uiso   1.00
C778   C     0.35504   0.89544   0.30599   0.00000  Uiso   1.00
C779   C     0.35412   0.93975   0.28736   0.00000  Uiso   1.00
H780   H     0.38393   0.94342   0.25325   0.00000  Uiso   1.00
H781   H     0.65273   0.94693   0.28319   0.00000  Uiso   1.00
H782   H     0.35775   0.96290   0.31252   0.00000  Uiso   1.00
H783   H     0.65946   0.89341   0.34098   0.00000  Uiso   1.00
H784   H     0.38871   0.88968   0.31182   0.00000  Uiso   1.00
C785   C     0.83406   0.91316   0.24779   0.00000  Uiso   1.00
C786   C     0.83278   0.75360   0.25232   0.00000  Uiso   1.00
C787   C     0.76946   0.83778   0.05662   0.00000  Uiso   1.00
C788   C     0.86394   0.78100   0.46204   0.00000  Uiso   1.00
C789   C     0.73687   0.84916   0.03524   0.00000  Uiso   1.00
C790   C     0.89474   0.76693   0.48414   0.00000  Uiso   1.00
C791   C     0.87381   0.97957   0.21662   0.00000  Uiso   1.00
C792   C     0.79575   0.68743   0.28607   0.00000  Uiso   1.00
C793   C     0.87194   0.68919   0.21957   0.00000  Uiso   1.00
C794   C     0.79682   0.97776   0.28231   0.00000  Uiso   1.00
C795   C     0.83317   0.70944   0.25325   0.00000  Uiso   1.00
C796   C     0.83457   0.95744   0.24737   0.00000  Uiso   1.00
C797   C     0.98737   0.80422   0.22415   0.00000  Uiso   1.00
C798   C     0.67975   0.86311   0.27454   0.00000  Uiso   1.00
C799   C     0.70107   0.80384   0.22586   0.00000  Uiso   1.00
C800   C     0.96604   0.86320   0.27326   0.00000  Uiso   1.00
C801   C     0.80330   0.83544   0.33806   0.00000  Uiso   1.00
C802   C     0.86315   0.83246   0.16222   0.00000  Uiso   1.00
C803   C     0.78462   0.83845   0.38931   0.00000  Uiso   1.00
C804   C     0.87965   0.82240   0.11283   0.00000  Uiso   1.00
C805   C     0.71830   0.84971   0.46308   0.00000  Uiso   1.00
C806   C     0.91930   0.77168   0.05212   0.00000  Uiso   1.00
C807   C     0.73515   0.84520   0.41459   0.00000  Uiso   1.00
C808   C     0.91224   0.78889   0.09554   0.00000  Uiso   1.00
C809   C     0.81601   0.83440   0.41396   0.00000  Uiso   1.00
C810   C     0.85322   0.83826   0.08687   0.00000  Uiso   1.00
C811   C     0.79631   0.82569   0.46151   0.00000  Uiso   1.00
C812   C     0.85164   0.81418   0.04922   0.00000  Uiso   1.00
C813   C     0.74947   0.84120   0.48718   0.00000  Uiso   1.00
C814   C     0.88904   0.78387   0.02822   0.00000  Uiso   1.00
C815   C     0.82516   0.80872   0.48456   0.00000  Uiso   1.00
C816   C     0.81520   0.82031   0.03072   0.00000  Uiso   1.00
H817   H     0.93185   0.77575   0.11584   0.00000  Uiso   1.00
H818   H     0.71012   0.84958   0.39680   0.00000  Uiso   1.00
H819   H     0.68096   0.85869   0.48129   0.00000  Uiso   1.00
H820   H     0.94667   0.74735   0.03907   0.00000  Uiso   1.00
H821   H     0.75930   0.84306   0.09353   0.00000  Uiso   1.00
H822   H     0.86920   0.76948   0.42753   0.00000  Uiso   1.00
H823   H     0.90089   0.70711   0.19555   0.00000  Uiso   1.00
H824   H     0.76973   0.95964   0.30806   0.00000  Uiso   1.00
H825   H     0.72746   0.78003   0.20765   0.00000  Uiso   1.00
H826   H     0.94000   0.88708   0.29153   0.00000  Uiso   1.00
N827   N     0.71426   0.83334   0.25001   0.00000  Uiso   1.00
N828   N     0.95241   0.83332   0.24999   0.00000  Uiso   1.00
O829   O     0.79512   0.89442   0.25000   0.00000  Uiso   1.00
O830   O     0.87154   0.77225   0.24999   0.00000  Uiso   1.00
O831   O     0.87157   0.89441   0.25000   0.00000  Uiso   1.00
O832   O     0.79510   0.77226   0.25000   0.00000  Uiso   1.00
O833   O     0.77328   0.83334   0.31612   0.00000  Uiso   1.00
O834   O     0.89339   0.83333   0.18387   0.00000  Uiso   1.00
O835   O     0.84972   0.83333   0.31612   0.00000  Uiso   1.00
O836   O     0.81695   0.83334   0.18388   0.00000  Uiso   1.00
Zn837  Zn    0.78229   0.83334   0.25000   0.00000  Uiso   1.00
Zn838  Zn    0.88438   0.83333   0.25000   0.00000  Uiso   1.00
S839   S     0.68740   0.88217   0.06662   0.00000  Uiso   1.00
O840   O     0.68890   0.92154   0.03940   0.00000  Uiso   1.00
O841   O     0.97467   0.86056   0.07336   0.00000  Uiso   1.00
O842   O     0.68953   0.89525   0.11865   0.00000  Uiso   1.00
H843   H     0.67203   0.87312   0.14037   0.00000  Uiso   1.00
S844   S     0.94154   0.73068   0.45403   0.00000  Uiso   1.00
O845   O     0.98931   0.74937   0.44758   0.00000  Uiso   1.00
O846   O     0.93571   0.69133   0.48222   0.00000  Uiso   1.00
O847   O     0.93979   0.71896   0.40151   0.00000  Uiso   1.00
H848   H     0.95911   0.69269   0.39172   0.00000  Uiso   1.00
S849   S     0.83377   0.89207   0.09447   0.00000  Uiso   1.00
O850   O     0.78792   0.89698   0.13621   0.00000  Uiso   1.00
O851   O     0.87178   0.91775   0.10196   0.00000  Uiso   1.00
O852   O     0.82514   0.91066   0.04694   0.00000  Uiso   1.00
H853   H     0.80769   0.93779   0.05688   0.00000  Uiso   1.00
S854   S     0.87377   0.85786   0.39311   0.00000  Uiso   1.00
O855   O     0.91091   0.82660   0.36407   0.00000  Uiso   1.00
O856   O     0.87203   0.89564   0.36460   0.00000  Uiso   1.00
O857   O     0.88930   0.87371   0.43762   0.00000  Uiso   1.00
H858   H     0.92351   0.88145   0.42312   0.00000  Uiso   1.00
S859   S     0.92727   0.95630   0.17641   0.00000  Uiso   1.00
O860   O     0.91816   0.91436   0.16013   0.00000  Uiso   1.00
O861   O     0.94825   0.98406   0.13476   0.00000  Uiso   1.00
O862   O     0.96734   0.95016   0.20270   0.00000  Uiso   1.00
H863   H     0.97532   0.97899   0.20867   0.00000  Uiso   1.00
S864   S     0.75071   0.71192   0.33447   0.00000  Uiso   1.00
O865   O     0.71634   0.73684   0.31852   0.00000  Uiso   1.00
O866   O     0.72327   0.67963   0.36893   0.00000  Uiso   1.00
O867   O     0.77731   0.74398   0.36040   0.00000  Uiso   1.00
H868   H     0.75231   0.75070   0.39115   0.00000  Uiso   1.00
C869   C     0.97745   0.77121   0.19388   0.00000  Uiso   1.00
C870   C     0.68088   0.76992   0.14387   0.00000  Uiso   1.00
H871   H     0.68151   0.80060   0.12690   0.00000  Uiso   1.00
H872   H     0.71757   0.76131   0.14241   0.00000  Uiso   1.00
H873   H     0.67045   0.74583   0.12363   0.00000  Uiso   1.00
H874   H     0.97688   0.73999   0.21003   0.00000  Uiso   1.00
H875   H     0.94278   0.77700   0.19049   0.00000  Uiso   1.00
C876   C     0.68838   0.89544   0.30599   0.00000  Uiso   1.00
C877   C     0.68745   0.93975   0.28736   0.00000  Uiso   1.00
H878   H     0.71726   0.94342   0.25325   0.00000  Uiso   1.00
H879   H     0.98607   0.94693   0.28319   0.00000  Uiso   1.00
H880   H     0.69109   0.96290   0.31252   0.00000  Uiso   1.00
H881   H     0.99280   0.89341   0.34098   0.00000  Uiso   1.00
H882   H     0.72205   0.88968   0.31182   0.00000  Uiso   1.00
C883   C     0.16739   0.24649   0.74779   0.00000  Uiso   1.00
C884   C     0.16612   0.08694   0.75232   0.00000  Uiso   1.00
C885   C     0.10279   0.17112   0.55662   0.00000  Uiso   1.00
C886   C     0.19727   0.11433   0.96204   0.00000  Uiso   1.00
C887   C     0.07020   0.18249   0.53524   0.00000  Uiso   1.00
C888   C     0.22807   0.10026   0.98414   0.00000  Uiso   1.00
C889   C     0.20715   0.31290   0.71662   0.00000  Uiso   1.00
C890   C     0.12908   0.02076   0.78607   0.00000  Uiso   1.00
C891   C     0.20528   0.02252   0.71957   0.00000  Uiso   1.00
C892   C     0.13015   0.31110   0.78231   0.00000  Uiso   1.00
C893   C     0.16650   0.04278   0.75325   0.00000  Uiso   1.00
C894   C     0.16791   0.29077   0.74737   0.00000  Uiso   1.00
C895   C     0.32070   0.13755   0.72415   0.00000  Uiso   1.00
C896   C     0.01309   0.19644   0.77454   0.00000  Uiso   1.00
C897   C     0.03441   0.13718   0.72586   0.00000  Uiso   1.00
C898   C     0.29937   0.19653   0.77326   0.00000  Uiso   1.00
C899   C     0.13664   0.16877   0.83806   0.00000  Uiso   1.00
C900   C     0.19648   0.16579   0.66222   0.00000  Uiso   1.00
C901   C     0.11796   0.17179   0.88931   0.00000  Uiso   1.00
C902   C     0.21299   0.15574   0.61283   0.00000  Uiso   1.00
C903   C     0.05164   0.18304   0.96308   0.00000  Uiso   1.00
C904   C     0.25264   0.10501   0.55212   0.00000  Uiso   1.00
C905   C     0.06848   0.17853   0.91459   0.00000  Uiso   1.00
C906   C     0.24557   0.12222   0.59554   0.00000  Uiso   1.00
C907   C     0.14934   0.16773   0.91396   0.00000  Uiso   1.00
C908   C     0.18655   0.17159   0.58687   0.00000  Uiso   1.00
C909   C     0.12964   0.15902   0.96151   0.00000  Uiso   1.00
C910   C     0.18497   0.14752   0.54922   0.00000  Uiso   1.00
C911   C     0.08281   0.17453   0.98718   0.00000  Uiso   1.00
C912   C     0.22238   0.11720   0.52822   0.00000  Uiso   1.00
C913   C     0.15850   0.14206   0.98456   0.00000  Uiso   1.00
C914   C     0.14854   0.15365   0.53072   0.00000  Uiso   1.00
H915   H     0.26518   0.10909   0.61584   0.00000  Uiso   1.00
H916   H     0.04345   0.18291   0.89680   0.00000  Uiso   1.00
H917   H     0.01430   0.19202   0.98129   0.00000  Uiso   1.00
H918   H     0.28000   0.08069   0.53907   0.00000  Uiso   1.00
H919   H     0.09263   0.17639   0.59353   0.00000  Uiso   1.00
H920   H     0.20254   0.10281   0.92753   0.00000  Uiso   1.00
H921   H     0.23423   0.04044   0.69555   0.00000  Uiso   1.00
H922   H     0.10306   0.29297   0.80806   0.00000  Uiso   1.00
H923   H     0.06080   0.11336   0.70765   0.00000  Uiso   1.00
H924   H     0.27333   0.22041   0.79153   0.00000  Uiso   1.00
N925   N     0.04759   0.16668   0.75001   0.00000  Uiso   1.00
N926   N     0.28574   0.16666   0.74999   0.00000  Uiso   1.00
O927   O     0.12846   0.22775   0.75000   0.00000  Uiso   1.00
O928   O     0.20488   0.10558   0.74999   0.00000  Uiso   1.00
O929   O     0.20490   0.22774   0.75000   0.00000  Uiso   1.00
O930   O     0.12843   0.10559   0.75000   0.00000  Uiso   1.00
O931   O     0.10661   0.16667   0.81612   0.00000  Uiso   1.00
O932   O     0.22672   0.16666   0.68387   0.00000  Uiso   1.00
O933   O     0.18305   0.16666   0.81612   0.00000  Uiso   1.00
O934   O     0.15028   0.16667   0.68388   0.00000  Uiso   1.00
Zn935  Zn    0.11562   0.16667   0.75000   0.00000  Uiso   1.00
Zn936  Zn    0.21771   0.16666   0.75000   0.00000  Uiso   1.00
S937   S     0.02073   0.21550   0.56662   0.00000  Uiso   1.00
O938   O     0.02224   0.25487   0.53940   0.00000  Uiso   1.00
O939   O     0.30800   0.19389   0.57336   0.00000  Uiso   1.00
O940   O     0.02287   0.22858   0.61865   0.00000  Uiso   1.00
H941   H     0.00536   0.20646   0.64037   0.00000  Uiso   1.00
S942   S     0.27488   0.06401   0.95403   0.00000  Uiso   1.00
O943   O     0.32264   0.08271   0.94758   0.00000  Uiso   1.00
O944   O     0.26904   0.02466   0.98222   0.00000  Uiso   1.00
O945   O     0.27312   0.05229   0.90151   0.00000  Uiso   1.00
H946   H     0.29244   0.02602   0.89172   0.00000  Uiso   1.00
S947   S     0.16710   0.22540   0.59447   0.00000  Uiso   1.00
O948   O     0.12125   0.23031   0.63621   0.00000  Uiso   1.00
O949   O     0.20512   0.25108   0.60196   0.00000  Uiso   1.00
O950   O     0.15848   0.24399   0.54694   0.00000  Uiso   1.00
H951   H     0.14102   0.27112   0.55688   0.00000  Uiso   1.00
S952   S     0.20710   0.19119   0.89311   0.00000  Uiso   1.00
O953   O     0.24424   0.15993   0.86407   0.00000  Uiso   1.00
O954   O     0.20536   0.22898   0.86460   0.00000  Uiso   1.00
O955   O     0.22264   0.20705   0.93762   0.00000  Uiso   1.00
H956   H     0.25685   0.21479   0.92312   0.00000  Uiso   1.00
S957   S     0.26060   0.28963   0.67641   0.00000  Uiso   1.00
O958   O     0.25149   0.24769   0.66013   0.00000  Uiso   1.00
O959   O     0.28158   0.31740   0.63476   0.00000  Uiso   1.00
O960   O     0.30067   0.28349   0.70270   0.00000  Uiso   1.00
H961   H     0.30866   0.31233   0.70867   0.00000  Uiso   1.00
S962   S     0.08404   0.04525   0.83447   0.00000  Uiso   1.00
O963   O     0.04967   0.07017   0.81852   0.00000  Uiso   1.00
O964   O     0.05660   0.01297   0.86893   0.00000  Uiso   1.00
O965   O     0.11064   0.07731   0.86040   0.00000  Uiso   1.00
H966   H     0.08564   0.08404   0.89115   0.00000  Uiso   1.00
C967   C     0.31078   0.10454   0.69388   0.00000  Uiso   1.00
C968   C     0.01421   0.10325   0.64387   0.00000  Uiso   1.00
H969   H     0.01485   0.13393   0.62690   0.00000  Uiso   1.00
H970   H     0.05091   0.09465   0.64241   0.00000  Uiso   1.00
H971   H     0.00378   0.07917   0.62363   0.00000  Uiso   1.00
H972   H     0.31021   0.07333   0.71003   0.00000  Uiso   1.00
H973   H     0.27611   0.11033   0.69049   0.00000  Uiso   1.00
C974   C     0.02171   0.22877   0.80599   0.00000  Uiso   1.00
C975   C     0.02079   0.27308   0.78736   0.00000  Uiso   1.00
H976   H     0.05060   0.27675   0.75325   0.00000  Uiso   1.00
H977   H     0.31940   0.28026   0.78319   0.00000  Uiso   1.00
H978   H     0.02442   0.29623   0.81252   0.00000  Uiso   1.00
H979   H     0.32613   0.22674   0.84098   0.00000  Uiso   1.00
H980   H     0.05538   0.22301   0.81182   0.00000  Uiso   1.00
C981   C     0.50073   0.24649   0.74779   0.00000  Uiso   1.00
C982   C     0.49945   0.08694   0.75232   0.00000  Uiso   1.00
C983   C     0.43612   0.17112   0.55662   0.00000  Uiso   1.00
C984   C     0.53061   0.11433   0.96204   0.00000  Uiso   1.00
C985   C     0.40354   0.18249   0.53524   0.00000  Uiso   1.00
C986   C     0.56141   0.10026   0.98414   0.00000  Uiso   1.00
C987   C     0.54048   0.31290   0.71662   0.00000  Uiso   1.00
C988   C     0.46242   0.02076   0.78607   0.00000  Uiso   1.00
C989   C     0.53861   0.02252   0.71957   0.00000  Uiso   1.00
C990   C     0.46348   0.31110   0.78231   0.00000  Uiso   1.00
C991   C     0.49983   0.04278   0.75325   0.00000  Uiso   1.00
C992   C     0.50124   0.29077   0.74737   0.00000  Uiso   1.00
C993   C     0.65404   0.13755   0.72415   0.00000  Uiso   1.00
C994   C     0.34642   0.19644   0.77454   0.00000  Uiso   1.00
C995   C     0.36774   0.13718   0.72586   0.00000  Uiso   1.00
C996   C     0.63271   0.19653   0.77326   0.00000  Uiso   1.00
C997   C     0.46997   0.16877   0.83806   0.00000  Uiso   1.00
C998   C     0.52982   0.16579   0.66222   0.00000  Uiso   1.00
C999   C     0.45129   0.17179   0.88931   0.00000  Uiso   1.00
C1000  C     0.54632   0.15574   0.61283   0.00000  Uiso   1.00
C1001  C     0.38497   0.18304   0.96308   0.00000  Uiso   1.00
C1002  C     0.58597   0.10501   0.55212   0.00000  Uiso   1.00
C1003  C     0.40182   0.17853   0.91459   0.00000  Uiso   1.00
C1004  C     0.57891   0.12222   0.59554   0.00000  Uiso   1.00
C1005  C     0.48267   0.16773   0.91396   0.00000  Uiso   1.00
C1006  C     0.51988   0.17159   0.58687   0.00000  Uiso   1.00
C1007  C     0.46297   0.15902   0.96151   0.00000  Uiso   1.00
C1008  C     0.51830   0.14752   0.54922   0.00000  Uiso   1.00
C1009  C     0.41614   0.17453   0.98718   0.00000  Uiso   1.00
C1010  C     0.55571   0.11720   0.52822   0.00000  Uiso   1.00
C1011  C     0.49183   0.14206   0.98456   0.00000  Uiso   1.00
C1012  C     0.48187   0.15365   0.53072   0.00000  Uiso   1.00
H1013  H     0.59852   0.10909   0.61584   0.00000  Uiso   1.00
H1014  H     0.37678   0.18291   0.89680   0.00000  Uiso   1.00
H1015  H     0.34763   0.19202   0.98129   0.00000  Uiso   1.00
H1016  H     0.61334   0.08069   0.53907   0.00000  Uiso   1.00
H1017  H     0.42597   0.17639   0.59353   0.00000  Uiso   1.00
H1018  H     0.53587   0.10281   0.92753   0.00000  Uiso   1.00
H1019  H     0.56756   0.04044   0.69555   0.00000  Uiso   1.00
H1020  H     0.43639   0.29297   0.80806   0.00000  Uiso   1.00
H1021  H     0.39413   0.11336   0.70765   0.00000  Uiso   1.00
H1022  H     0.60667   0.22041   0.79153   0.00000  Uiso   1.00
N1023  N     0.38093   0.16668   0.75001   0.00000  Uiso   1.00
N1024  N     0.61907   0.16666   0.74999   0.00000  Uiso   1.00
O1025  O     0.46179   0.22775   0.75000   0.00000  Uiso   1.00
O1026  O     0.53821   0.10558   0.74999   0.00000  Uiso   1.00
O1027  O     0.53823   0.22774   0.75000   0.00000  Uiso   1.00
O1028  O     0.46177   0.10559   0.75000   0.00000  Uiso   1.00
O1029  O     0.43994   0.16667   0.81612   0.00000  Uiso   1.00
O1030  O     0.56006   0.16666   0.68387   0.00000  Uiso   1.00
O1031  O     0.51639   0.16666   0.81612   0.00000  Uiso   1.00
O1032  O     0.48361   0.16667   0.68388   0.00000  Uiso   1.00
Zn1033 Zn    0.44896   0.16667   0.75000   0.00000  Uiso   1.00
Zn1034 Zn    0.55104   0.16666   0.75000   0.00000  Uiso   1.00
S1035  S     0.35407   0.21550   0.56662   0.00000  Uiso   1.00
O1036  O     0.35557   0.25487   0.53940   0.00000  Uiso   1.00
O1037  O     0.64133   0.19389   0.57336   0.00000  Uiso   1.00
O1038  O     0.35620   0.22858   0.61865   0.00000  Uiso   1.00
H1039  H     0.33870   0.20646   0.64037   0.00000  Uiso   1.00
S1040  S     0.60821   0.06401   0.95403   0.00000  Uiso   1.00
O1041  O     0.65597   0.08271   0.94758   0.00000  Uiso   1.00
O1042  O     0.60238   0.02466   0.98222   0.00000  Uiso   1.00
O1043  O     0.60645   0.05229   0.90151   0.00000  Uiso   1.00
H1044  H     0.62577   0.02602   0.89172   0.00000  Uiso   1.00
S1045  S     0.50043   0.22540   0.59447   0.00000  Uiso   1.00
O1046  O     0.45458   0.23031   0.63621   0.00000  Uiso   1.00
O1047  O     0.53845   0.25108   0.60196   0.00000  Uiso   1.00
O1048  O     0.49181   0.24399   0.54694   0.00000  Uiso   1.00
H1049  H     0.47436   0.27112   0.55688   0.00000  Uiso   1.00
S1050  S     0.54044   0.19119   0.89311   0.00000  Uiso   1.00
O1051  O     0.57758   0.15993   0.86407   0.00000  Uiso   1.00
O1052  O     0.53870   0.22898   0.86460   0.00000  Uiso   1.00
O1053  O     0.55597   0.20705   0.93762   0.00000  Uiso   1.00
H1054  H     0.59018   0.21479   0.92312   0.00000  Uiso   1.00
S1055  S     0.59393   0.28963   0.67641   0.00000  Uiso   1.00
O1056  O     0.58482   0.24769   0.66013   0.00000  Uiso   1.00
O1057  O     0.61492   0.31740   0.63476   0.00000  Uiso   1.00
O1058  O     0.63400   0.28349   0.70270   0.00000  Uiso   1.00
H1059  H     0.64199   0.31233   0.70867   0.00000  Uiso   1.00
S1060  S     0.41738   0.04525   0.83447   0.00000  Uiso   1.00
O1061  O     0.38300   0.07017   0.81852   0.00000  Uiso   1.00
O1062  O     0.38994   0.01297   0.86893   0.00000  Uiso   1.00
O1063  O     0.44398   0.07731   0.86040   0.00000  Uiso   1.00
H1064  H     0.41897   0.08404   0.89115   0.00000  Uiso   1.00
C1065  C     0.64412   0.10454   0.69388   0.00000  Uiso   1.00
C1066  C     0.34754   0.10325   0.64387   0.00000  Uiso   1.00
H1067  H     0.34818   0.13393   0.62690   0.00000  Uiso   1.00
H1068  H     0.38424   0.09465   0.64241   0.00000  Uiso   1.00
H1069  H     0.33712   0.07917   0.62363   0.00000  Uiso   1.00
H1070  H     0.64355   0.07333   0.71003   0.00000  Uiso   1.00
H1071  H     0.60945   0.11033   0.69049   0.00000  Uiso   1.00
C1072  C     0.35504   0.22877   0.80599   0.00000  Uiso   1.00
C1073  C     0.35412   0.27308   0.78736   0.00000  Uiso   1.00
H1074  H     0.38393   0.27675   0.75325   0.00000  Uiso   1.00
H1075  H     0.65273   0.28026   0.78319   0.00000  Uiso   1.00
H1076  H     0.35775   0.29623   0.81252   0.00000  Uiso   1.00
H1077  H     0.65946   0.22674   0.84098   0.00000  Uiso   1.00
H1078  H     0.38871   0.22301   0.81182   0.00000  Uiso   1.00
C1079  C     0.83406   0.24649   0.74779   0.00000  Uiso   1.00
C1080  C     0.83278   0.08694   0.75232   0.00000  Uiso   1.00
C1081  C     0.76946   0.17112   0.55662   0.00000  Uiso   1.00
C1082  C     0.86394   0.11433   0.96204   0.00000  Uiso   1.00
C1083  C     0.73687   0.18249   0.53524   0.00000  Uiso   1.00
C1084  C     0.89474   0.10026   0.98414   0.00000  Uiso   1.00
C1085  C     0.87381   0.31290   0.71662   0.00000  Uiso   1.00
C1086  C     0.79575   0.02076   0.78607   0.00000  Uiso   1.00
C1087  C     0.87194   0.02252   0.71957   0.00000  Uiso   1.00
C1088  C     0.79682   0.31110   0.78231   0.00000  Uiso   1.00
C1089  C     0.83317   0.04278   0.75325   0.00000  Uiso   1.00
C1090  C     0.83457   0.29077   0.74737   0.00000  Uiso   1.00
C1091  C     0.98737   0.13755   0.72415   0.00000  Uiso   1.00
C1092  C     0.67975   0.19644   0.77454   0.00000  Uiso   1.00
C1093  C     0.70107   0.13718   0.72586   0.00000  Uiso   1.00
C1094  C     0.96604   0.19653   0.77326   0.00000  Uiso   1.00
C1095  C     0.80330   0.16877   0.83806   0.00000  Uiso   1.00
C1096  C     0.86315   0.16579   0.66222   0.00000  Uiso   1.00
C1097  C     0.78462   0.17179   0.88931   0.00000  Uiso   1.00
C1098  C     0.87965   0.15574   0.61283   0.00000  Uiso   1.00
C1099  C     0.71830   0.18304   0.96308   0.00000  Uiso   1.00
C1100  C     0.91930   0.10501   0.55212   0.00000  Uiso   1.00
C1101  C     0.73515   0.17853   0.91459   0.00000  Uiso   1.00
C1102  C     0.91224   0.12222   0.59554   0.00000  Uiso   1.00
C1103  C     0.81601   0.16773   0.91396   0.00000  Uiso   1.00
C1104  C     0.85322   0.17159   0.58687   0.00000  Uiso   1.00
C1105  C     0.79631   0.15902   0.96151   0.00000  Uiso   1.00
C1106  C     0.85164   0.14752   0.54922   0.00000  Uiso   1.00
C1107  C     0.74947   0.17453   0.98718   0.00000  Uiso   1.00
C1108  C     0.88904   0.11720   0.52822   0.00000  Uiso   1.00
C1109  C     0.82516   0.14206   0.98456   0.00000  Uiso   1.00
C1110  C     0.81520   0.15365   0.53072   0.00000  Uiso   1.00
H1111  H     0.93185   0.10909   0.61584   0.00000  Uiso   1.00
H1112  H     0.71012   0.18291   0.89680   0.00000  Uiso   1.00
H1113  H     0.68096   0.19202   0.98129   0.00000  Uiso   1.00
H1114  H     0.94667   0.08069   0.53907   0.00000  Uiso   1.00
H1115  H     0.75930   0.17639   0.59353   0.00000  Uiso   1.00
H1116  H     0.86920   0.10281   0.92753   0.00000  Uiso   1.00
H1117  H     0.90089   0.04044   0.69555   0.00000  Uiso   1.00
H1118  H     0.76973   0.29297   0.80806   0.00000  Uiso   1.00
H1119  H     0.72746   0.11336   0.70765   0.00000  Uiso   1.00
H1120  H     0.94000   0.22041   0.79153   0.00000  Uiso   1.00
N1121  N     0.71426   0.16668   0.75001   0.00000  Uiso   1.00
N1122  N     0.95241   0.16666   0.74999   0.00000  Uiso   1.00
O1123  O     0.79512   0.22775   0.75000   0.00000  Uiso   1.00
O1124  O     0.87154   0.10558   0.74999   0.00000  Uiso   1.00
O1125  O     0.87157   0.22774   0.75000   0.00000  Uiso   1.00
O1126  O     0.79510   0.10559   0.75000   0.00000  Uiso   1.00
O1127  O     0.77328   0.16667   0.81612   0.00000  Uiso   1.00
O1128  O     0.89339   0.16666   0.68387   0.00000  Uiso   1.00
O1129  O     0.84972   0.16666   0.81612   0.00000  Uiso   1.00
O1130  O     0.81695   0.16667   0.68388   0.00000  Uiso   1.00
Zn1131 Zn    0.78229   0.16667   0.75000   0.00000  Uiso   1.00
Zn1132 Zn    0.88438   0.16666   0.75000   0.00000  Uiso   1.00
S1133  S     0.68740   0.21550   0.56662   0.00000  Uiso   1.00
O1134  O     0.68890   0.25487   0.53940   0.00000  Uiso   1.00
O1135  O     0.97467   0.19389   0.57336   0.00000  Uiso   1.00
O1136  O     0.68953   0.22858   0.61865   0.00000  Uiso   1.00
H1137  H     0.67203   0.20646   0.64037   0.00000  Uiso   1.00
S1138  S     0.94154   0.06401   0.95403   0.00000  Uiso   1.00
O1139  O     0.98931   0.08271   0.94758   0.00000  Uiso   1.00
O1140  O     0.93571   0.02466   0.98222   0.00000  Uiso   1.00
O1141  O     0.93979   0.05229   0.90151   0.00000  Uiso   1.00
H1142  H     0.95911   0.02602   0.89172   0.00000  Uiso   1.00
S1143  S     0.83377   0.22540   0.59447   0.00000  Uiso   1.00
O1144  O     0.78792   0.23031   0.63621   0.00000  Uiso   1.00
O1145  O     0.87178   0.25108   0.60196   0.00000  Uiso   1.00
O1146  O     0.82514   0.24399   0.54694   0.00000  Uiso   1.00
H1147  H     0.80769   0.27112   0.55688   0.00000  Uiso   1.00
S1148  S     0.87377   0.19119   0.89311   0.00000  Uiso   1.00
O1149  O     0.91091   0.15993   0.86407   0.00000  Uiso   1.00
O1150  O     0.87203   0.22898   0.86460   0.00000  Uiso   1.00
O1151  O     0.88930   0.20705   0.93762   0.00000  Uiso   1.00
H1152  H     0.92351   0.21479   0.92312   0.00000  Uiso   1.00
S1153  S     0.92727   0.28963   0.67641   0.00000  Uiso   1.00
O1154  O     0.91816   0.24769   0.66013   0.00000  Uiso   1.00
O1155  O     0.94825   0.31740   0.63476   0.00000  Uiso   1.00
O1156  O     0.96734   0.28349   0.70270   0.00000  Uiso   1.00
H1157  H     0.97532   0.31233   0.70867   0.00000  Uiso   1.00
S1158  S     0.75071   0.04525   0.83447   0.00000  Uiso   1.00
O1159  O     0.71634   0.07017   0.81852   0.00000  Uiso   1.00
O1160  O     0.72327   0.01297   0.86893   0.00000  Uiso   1.00
O1161  O     0.77731   0.07731   0.86040   0.00000  Uiso   1.00
H1162  H     0.75231   0.08404   0.89115   0.00000  Uiso   1.00
C1163  C     0.97745   0.10454   0.69388   0.00000  Uiso   1.00
C1164  C     0.68088   0.10325   0.64387   0.00000  Uiso   1.00
H1165  H     0.68151   0.13393   0.62690   0.00000  Uiso   1.00
H1166  H     0.71757   0.09465   0.64241   0.00000  Uiso   1.00
H1167  H     0.67045   0.07917   0.62363   0.00000  Uiso   1.00
H1168  H     0.97688   0.07333   0.71003   0.00000  Uiso   1.00
H1169  H     0.94278   0.11033   0.69049   0.00000  Uiso   1.00
C1170  C     0.68838   0.22877   0.80599   0.00000  Uiso   1.00
C1171  C     0.68745   0.27308   0.78736   0.00000  Uiso   1.00
H1172  H     0.71726   0.27675   0.75325   0.00000  Uiso   1.00
H1173  H     0.98607   0.28026   0.78319   0.00000  Uiso   1.00
H1174  H     0.69109   0.29623   0.81252   0.00000  Uiso   1.00
H1175  H     0.99280   0.22674   0.84098   0.00000  Uiso   1.00
H1176  H     0.72205   0.22301   0.81182   0.00000  Uiso   1.00
C1177  C     0.16739   0.57982   0.74779   0.00000  Uiso   1.00
C1178  C     0.16612   0.42027   0.75232   0.00000  Uiso   1.00
C1179  C     0.10279   0.50445   0.55662   0.00000  Uiso   1.00
C1180  C     0.19727   0.44767   0.96204   0.00000  Uiso   1.00
C1181  C     0.07020   0.51583   0.53524   0.00000  Uiso   1.00
C1182  C     0.22807   0.43360   0.98414   0.00000  Uiso   1.00
C1183  C     0.20715   0.64623   0.71662   0.00000  Uiso   1.00
C1184  C     0.12908   0.35409   0.78607   0.00000  Uiso   1.00
C1185  C     0.20528   0.35585   0.71957   0.00000  Uiso   1.00
C1186  C     0.13015   0.64443   0.78231   0.00000  Uiso   1.00
C1187  C     0.16650   0.37611   0.75325   0.00000  Uiso   1.00
C1188  C     0.16791   0.62411   0.74737   0.00000  Uiso   1.00
C1189  C     0.32070   0.47089   0.72415   0.00000  Uiso   1.00
C1190  C     0.01309   0.52978   0.77454   0.00000  Uiso   1.00
C1191  C     0.03441   0.47051   0.72586   0.00000  Uiso   1.00
C1192  C     0.29937   0.52987   0.77326   0.00000  Uiso   1.00
C1193  C     0.13664   0.50211   0.83806   0.00000  Uiso   1.00
C1194  C     0.19648   0.49913   0.66222   0.00000  Uiso   1.00
C1195  C     0.11796   0.50512   0.88931   0.00000  Uiso   1.00
C1196  C     0.21299   0.48907   0.61283   0.00000  Uiso   1.00
C1197  C     0.05164   0.51637   0.96308   0.00000  Uiso   1.00
C1198  C     0.25264   0.43835   0.55212   0.00000  Uiso   1.00
C1199  C     0.06848   0.51186   0.91459   0.00000  Uiso   1.00
C1200  C     0.24557   0.45555   0.59554   0.00000  Uiso   1.00
C1201  C     0.14934   0.50106   0.91396   0.00000  Uiso   1.00
C1202  C     0.18655   0.50493   0.58687   0.00000  Uiso   1.00
C1203  C     0.12964   0.49235   0.96151   0.00000  Uiso   1.00
C1204  C     0.18497   0.48085   0.54922   0.00000  Uiso   1.00
C1205  C     0.08281   0.50786   0.98718   0.00000  Uiso   1.00
C1206  C     0.22238   0.45053   0.52822   0.00000  Uiso   1.00
C1207  C     0.15850   0.47539   0.98456   0.00000  Uiso   1.00
C1208  C     0.14854   0.48698   0.53072   0.00000  Uiso   1.00
H1209  H     0.26518   0.44242   0.61584   0.00000  Uiso   1.00
H1210  H     0.04345   0.51625   0.89680   0.00000  Uiso   1.00
H1211  H     0.01430   0.52535   0.98129   0.00000  Uiso   1.00
H1212  H     0.28000   0.41402   0.53907   0.00000  Uiso   1.00
H1213  H     0.09263   0.50972   0.59353   0.00000  Uiso   1.00
H1214  H     0.20254   0.43615   0.92753   0.00000  Uiso   1.00
H1215  H     0.23423   0.37377   0.69555   0.00000  Uiso   1.00
H1216  H     0.10306   0.62630   0.80806   0.00000  Uiso   1.00
H1217  H     0.06080   0.44669   0.70765   0.00000  Uiso   1.00
H1218  H     0.27333   0.55375   0.79153   0.00000  Uiso   1.00
N1219  N     0.04759   0.50001   0.75001   0.00000  Uiso   1.00
N1220  N     0.28574   0.49999   0.74999   0.00000  Uiso   1.00
O1221  O     0.12846   0.56108   0.75000   0.00000  Uiso   1.00
O1222  O     0.20488   0.43892   0.74999   0.00000  Uiso   1.00
O1223  O     0.20490   0.56107   0.75000   0.00000  Uiso   1.00
O1224  O     0.12843   0.43893   0.75000   0.00000  Uiso   1.00
O1225  O     0.10661   0.50001   0.81612   0.00000  Uiso   1.00
O1226  O     0.22672   0.49999   0.68387   0.00000  Uiso   1.00
O1227  O     0.18305   0.50000   0.81612   0.00000  Uiso   1.00
O1228  O     0.15028   0.50000   0.68388   0.00000  Uiso   1.00
Zn1229 Zn    0.11562   0.50001   0.75000   0.00000  Uiso   1.00
Zn1230 Zn    0.21771   0.49999   0.75000   0.00000  Uiso   1.00
S1231  S     0.02073   0.54884   0.56662   0.00000  Uiso   1.00
O1232  O     0.02224   0.58820   0.53940   0.00000  Uiso   1.00
O1233  O     0.30800   0.52722   0.57336   0.00000  Uiso   1.00
O1234  O     0.02287   0.56191   0.61865   0.00000  Uiso   1.00
H1235  H     0.00536   0.53979   0.64037   0.00000  Uiso   1.00
S1236  S     0.27488   0.39735   0.95403   0.00000  Uiso   1.00
O1237  O     0.32264   0.41604   0.94758   0.00000  Uiso   1.00
O1238  O     0.26904   0.35800   0.98222   0.00000  Uiso   1.00
O1239  O     0.27312   0.38563   0.90151   0.00000  Uiso   1.00
H1240  H     0.29244   0.35935   0.89172   0.00000  Uiso   1.00
S1241  S     0.16710   0.55874   0.59447   0.00000  Uiso   1.00
O1242  O     0.12125   0.56365   0.63621   0.00000  Uiso   1.00
O1243  O     0.20512   0.58442   0.60196   0.00000  Uiso   1.00
O1244  O     0.15848   0.57732   0.54694   0.00000  Uiso   1.00
H1245  H     0.14102   0.60445   0.55688   0.00000  Uiso   1.00
S1246  S     0.20710   0.52452   0.89311   0.00000  Uiso   1.00
O1247  O     0.24424   0.49327   0.86407   0.00000  Uiso   1.00
O1248  O     0.20536   0.56231   0.86460   0.00000  Uiso   1.00
O1249  O     0.22264   0.54038   0.93762   0.00000  Uiso   1.00
H1250  H     0.25685   0.54812   0.92312   0.00000  Uiso   1.00
S1251  S     0.26060   0.62297   0.67641   0.00000  Uiso   1.00
O1252  O     0.25149   0.58103   0.66013   0.00000  Uiso   1.00
O1253  O     0.28158   0.65073   0.63476   0.00000  Uiso   1.00
O1254  O     0.30067   0.61683   0.70270   0.00000  Uiso   1.00
H1255  H     0.30866   0.64566   0.70867   0.00000  Uiso   1.00
S1256  S     0.08404   0.37859   0.83447   0.00000  Uiso   1.00
O1257  O     0.04967   0.40351   0.81852   0.00000  Uiso   1.00
O1258  O     0.05660   0.34630   0.86893   0.00000  Uiso   1.00
O1259  O     0.11064   0.41064   0.86040   0.00000  Uiso   1.00
H1260  H     0.08564   0.41737   0.89115   0.00000  Uiso   1.00
C1261  C     0.31078   0.43787   0.69388   0.00000  Uiso   1.00
C1262  C     0.01421   0.43659   0.64387   0.00000  Uiso   1.00
H1263  H     0.01485   0.46727   0.62690   0.00000  Uiso   1.00
H1264  H     0.05091   0.42798   0.64241   0.00000  Uiso   1.00
H1265  H     0.00378   0.41250   0.62363   0.00000  Uiso   1.00
H1266  H     0.31021   0.40666   0.71003   0.00000  Uiso   1.00
H1267  H     0.27611   0.44367   0.69049   0.00000  Uiso   1.00
C1268  C     0.02171   0.56210   0.80599   0.00000  Uiso   1.00
C1269  C     0.02079   0.60642   0.78736   0.00000  Uiso   1.00
H1270  H     0.05060   0.61008   0.75325   0.00000  Uiso   1.00
H1271  H     0.31940   0.61359   0.78319   0.00000  Uiso   1.00
H1272  H     0.02442   0.62956   0.81252   0.00000  Uiso   1.00
H1273  H     0.32613   0.56007   0.84098   0.00000  Uiso   1.00
H1274  H     0.05538   0.55635   0.81182   0.00000  Uiso   1.00
C1275  C     0.50073   0.57982   0.74779   0.00000  Uiso   1.00
C1276  C     0.49945   0.42027   0.75232   0.00000  Uiso   1.00
C1277  C     0.43612   0.50445   0.55662   0.00000  Uiso   1.00
C1278  C     0.53061   0.44767   0.96204   0.00000  Uiso   1.00
C1279  C     0.40354   0.51583   0.53524   0.00000  Uiso   1.00
C1280  C     0.56141   0.43360   0.98414   0.00000  Uiso   1.00
C1281  C     0.54048   0.64623   0.71662   0.00000  Uiso   1.00
C1282  C     0.46242   0.35409   0.78607   0.00000  Uiso   1.00
C1283  C     0.53861   0.35585   0.71957   0.00000  Uiso   1.00
C1284  C     0.46348   0.64443   0.78231   0.00000  Uiso   1.00
C1285  C     0.49983   0.37611   0.75325   0.00000  Uiso   1.00
C1286  C     0.50124   0.62411   0.74737   0.00000  Uiso   1.00
C1287  C     0.65404   0.47089   0.72415   0.00000  Uiso   1.00
C1288  C     0.34642   0.52978   0.77454   0.00000  Uiso   1.00
C1289  C     0.36774   0.47051   0.72586   0.00000  Uiso   1.00
C1290  C     0.63271   0.52987   0.77326   0.00000  Uiso   1.00
C1291  C     0.46997   0.50211   0.83806   0.00000  Uiso   1.00
C1292  C     0.52982   0.49913   0.66222   0.00000  Uiso   1.00
C1293  C     0.45129   0.50512   0.88931   0.00000  Uiso   1.00
C1294  C     0.54632   0.48907   0.61283   0.00000  Uiso   1.00
C1295  C     0.38497   0.51637   0.96308   0.00000  Uiso   1.00
C1296  C     0.58597   0.43835   0.55212   0.00000  Uiso   1.00
C1297  C     0.40182   0.51186   0.91459   0.00000  Uiso   1.00
C1298  C     0.57891   0.45555   0.59554   0.00000  Uiso   1.00
C1299  C     0.48267   0.50106   0.91396   0.00000  Uiso   1.00
C1300  C     0.51988   0.50493   0.58687   0.00000  Uiso   1.00
C1301  C     0.46297   0.49235   0.96151   0.00000  Uiso   1.00
C1302  C     0.51830   0.48085   0.54922   0.00000  Uiso   1.00
C1303  C     0.41614   0.50786   0.98718   0.00000  Uiso   1.00
C1304  C     0.55571   0.45053   0.52822   0.00000  Uiso   1.00
C1305  C     0.49183   0.47539   0.98456   0.00000  Uiso   1.00
C1306  C     0.48187   0.48698   0.53072   0.00000  Uiso   1.00
H1307  H     0.59852   0.44242   0.61584   0.00000  Uiso   1.00
H1308  H     0.37678   0.51625   0.89680   0.00000  Uiso   1.00
H1309  H     0.34763   0.52535   0.98129   0.00000  Uiso   1.00
H1310  H     0.61334   0.41402   0.53907   0.00000  Uiso   1.00
H1311  H     0.42597   0.50972   0.59353   0.00000  Uiso   1.00
H1312  H     0.53587   0.43615   0.92753   0.00000  Uiso   1.00
H1313  H     0.56756   0.37377   0.69555   0.00000  Uiso   1.00
H1314  H     0.43639   0.62630   0.80806   0.00000  Uiso   1.00
H1315  H     0.39413   0.44669   0.70765   0.00000  Uiso   1.00
H1316  H     0.60667   0.55375   0.79153   0.00000  Uiso   1.00
N1317  N     0.38093   0.50001   0.75001   0.00000  Uiso   1.00
N1318  N     0.61907   0.49999   0.74999   0.00000  Uiso   1.00
O1319  O     0.46179   0.56108   0.75000   0.00000  Uiso   1.00
O1320  O     0.53821   0.43892   0.74999   0.00000  Uiso   1.00
O1321  O     0.53823   0.56107   0.75000   0.00000  Uiso   1.00
O1322  O     0.46177   0.43893   0.75000   0.00000  Uiso   1.00
O1323  O     0.43994   0.50001   0.81612   0.00000  Uiso   1.00
O1324  O     0.56006   0.49999   0.68387   0.00000  Uiso   1.00
O1325  O     0.51639   0.50000   0.81612   0.00000  Uiso   1.00
O1326  O     0.48361   0.50000   0.68388   0.00000  Uiso   1.00
Zn1327 Zn    0.44896   0.50001   0.75000   0.00000  Uiso   1.00
Zn1328 Zn    0.55104   0.49999   0.75000   0.00000  Uiso   1.00
S1329  S     0.35407   0.54884   0.56662   0.00000  Uiso   1.00
O1330  O     0.35557   0.58820   0.53940   0.00000  Uiso   1.00
O1331  O     0.64133   0.52722   0.57336   0.00000  Uiso   1.00
O1332  O     0.35620   0.56191   0.61865   0.00000  Uiso   1.00
H1333  H     0.33870   0.53979   0.64037   0.00000  Uiso   1.00
S1334  S     0.60821   0.39735   0.95403   0.00000  Uiso   1.00
O1335  O     0.65597   0.41604   0.94758   0.00000  Uiso   1.00
O1336  O     0.60238   0.35800   0.98222   0.00000  Uiso   1.00
O1337  O     0.60645   0.38563   0.90151   0.00000  Uiso   1.00
H1338  H     0.62577   0.35935   0.89172   0.00000  Uiso   1.00
S1339  S     0.50043   0.55874   0.59447   0.00000  Uiso   1.00
O1340  O     0.45458   0.56365   0.63621   0.00000  Uiso   1.00
O1341  O     0.53845   0.58442   0.60196   0.00000  Uiso   1.00
O1342  O     0.49181   0.57732   0.54694   0.00000  Uiso   1.00
H1343  H     0.47436   0.60445   0.55688   0.00000  Uiso   1.00
S1344  S     0.54044   0.52452   0.89311   0.00000  Uiso   1.00
O1345  O     0.57758   0.49327   0.86407   0.00000  Uiso   1.00
O1346  O     0.53870   0.56231   0.86460   0.00000  Uiso   1.00
O1347  O     0.55597   0.54038   0.93762   0.00000  Uiso   1.00
H1348  H     0.59018   0.54812   0.92312   0.00000  Uiso   1.00
S1349  S     0.59393   0.62297   0.67641   0.00000  Uiso   1.00
O1350  O     0.58482   0.58103   0.66013   0.00000  Uiso   1.00
O1351  O     0.61492   0.65073   0.63476   0.00000  Uiso   1.00
O1352  O     0.63400   0.61683   0.70270   0.00000  Uiso   1.00
H1353  H     0.64199   0.64566   0.70867   0.00000  Uiso   1.00
S1354  S     0.41738   0.37859   0.83447   0.00000  Uiso   1.00
O1355  O     0.38300   0.40351   0.81852   0.00000  Uiso   1.00
O1356  O     0.38994   0.34630   0.86893   0.00000  Uiso   1.00
O1357  O     0.44398   0.41064   0.86040   0.00000  Uiso   1.00
H1358  H     0.41897   0.41737   0.89115   0.00000  Uiso   1.00
C1359  C     0.64412   0.43787   0.69388   0.00000  Uiso   1.00
C1360  C     0.34754   0.43659   0.64387   0.00000  Uiso   1.00
H1361  H     0.34818   0.46727   0.62690   0.00000  Uiso   1.00
H1362  H     0.38424   0.42798   0.64241   0.00000  Uiso   1.00
H1363  H     0.33712   0.41250   0.62363   0.00000  Uiso   1.00
H1364  H     0.64355   0.40666   0.71003   0.00000  Uiso   1.00
H1365  H     0.60945   0.44367   0.69049   0.00000  Uiso   1.00
C1366  C     0.35504   0.56210   0.80599   0.00000  Uiso   1.00
C1367  C     0.35412   0.60642   0.78736   0.00000  Uiso   1.00
H1368  H     0.38393   0.61008   0.75325   0.00000  Uiso   1.00
H1369  H     0.65273   0.61359   0.78319   0.00000  Uiso   1.00
H1370  H     0.35775   0.62956   0.81252   0.00000  Uiso   1.00
H1371  H     0.65946   0.56007   0.84098   0.00000  Uiso   1.00
H1372  H     0.38871   0.55635   0.81182   0.00000  Uiso   1.00
C1373  C     0.83406   0.57982   0.74779   0.00000  Uiso   1.00
C1374  C     0.83278   0.42027   0.75232   0.00000  Uiso   1.00
C1375  C     0.76946   0.50445   0.55662   0.00000  Uiso   1.00
C1376  C     0.86394   0.44767   0.96204   0.00000  Uiso   1.00
C1377  C     0.73687   0.51583   0.53524   0.00000  Uiso   1.00
C1378  C     0.89474   0.43360   0.98414   0.00000  Uiso   1.00
C1379  C     0.87381   0.64623   0.71662   0.00000  Uiso   1.00
C1380  C     0.79575   0.35409   0.78607   0.00000  Uiso   1.00
C1381  C     0.87194   0.35585   0.71957   0.00000  Uiso   1.00
C1382  C     0.79682   0.64443   0.78231   0.00000  Uiso   1.00
C1383  C     0.83317   0.37611   0.75325   0.00000  Uiso   1.00
C1384  C     0.83457   0.62411   0.74737   0.00000  Uiso   1.00
C1385  C     0.98737   0.47089   0.72415   0.00000  Uiso   1.00
C1386  C     0.67975   0.52978   0.77454   0.00000  Uiso   1.00
C1387  C     0.70107   0.47051   0.72586   0.00000  Uiso   1.00
C1388  C     0.96604   0.52987   0.77326   0.00000  Uiso   1.00
C1389  C     0.80330   0.50211   0.83806   0.00000  Uiso   1.00
C1390  C     0.86315   0.49913   0.66222   0.00000  Uiso   1.00
C1391  C     0.78462   0.50512   0.88931   0.00000  Uiso   1.00
C1392  C     0.87965   0.48907   0.61283   0.00000  Uiso   1.00
C1393  C     0.71830   0.51637   0.96308   0.00000  Uiso   1.00
C1394  C     0.91930   0.43835   0.55212   0.00000  Uiso   1.00
C1395  C     0.73515   0.51186   0.91459   0.00000  Uiso   1.00
C1396  C     0.91224   0.45555   0.59554   0.00000  Uiso   1.00
C1397  C     0.81601   0.50106   0.91396   0.00000  Uiso   1.00
C1398  C     0.85322   0.50493   0.58687   0.00000  Uiso   1.00
C1399  C     0.79631   0.49235   0.96151   0.00000  Uiso   1.00
C1400  C     0.85164   0.48085   0.54922   0.00000  Uiso   1.00
C1401  C     0.74947   0.50786   0.98718   0.00000  Uiso   1.00
C1402  C     0.88904   0.45053   0.52822   0.00000  Uiso   1.00
C1403  C     0.82516   0.47539   0.98456   0.00000  Uiso   1.00
C1404  C     0.81520   0.48698   0.53072   0.00000  Uiso   1.00
H1405  H     0.93185   0.44242   0.61584   0.00000  Uiso   1.00
H1406  H     0.71012   0.51625   0.89680   0.00000  Uiso   1.00
H1407  H     0.68096   0.52535   0.98129   0.00000  Uiso   1.00
H1408  H     0.94667   0.41402   0.53907   0.00000  Uiso   1.00
H1409  H     0.75930   0.50972   0.59353   0.00000  Uiso   1.00
H1410  H     0.86920   0.43615   0.92753   0.00000  Uiso   1.00
H1411  H     0.90089   0.37377   0.69555   0.00000  Uiso   1.00
H1412  H     0.76973   0.62630   0.80806   0.00000  Uiso   1.00
H1413  H     0.72746   0.44669   0.70765   0.00000  Uiso   1.00
H1414  H     0.94000   0.55375   0.79153   0.00000  Uiso   1.00
N1415  N     0.71426   0.50001   0.75001   0.00000  Uiso   1.00
N1416  N     0.95241   0.49999   0.74999   0.00000  Uiso   1.00
O1417  O     0.79512   0.56108   0.75000   0.00000  Uiso   1.00
O1418  O     0.87154   0.43892   0.74999   0.00000  Uiso   1.00
O1419  O     0.87157   0.56107   0.75000   0.00000  Uiso   1.00
O1420  O     0.79510   0.43893   0.75000   0.00000  Uiso   1.00
O1421  O     0.77328   0.50001   0.81612   0.00000  Uiso   1.00
O1422  O     0.89339   0.49999   0.68387   0.00000  Uiso   1.00
O1423  O     0.84972   0.50000   0.81612   0.00000  Uiso   1.00
O1424  O     0.81695   0.50000   0.68388   0.00000  Uiso   1.00
Zn1425 Zn    0.78229   0.50001   0.75000   0.00000  Uiso   1.00
Zn1426 Zn    0.88438   0.49999   0.75000   0.00000  Uiso   1.00
S1427  S     0.68740   0.54884   0.56662   0.00000  Uiso   1.00
O1428  O     0.68890   0.58820   0.53940   0.00000  Uiso   1.00
O1429  O     0.97467   0.52722   0.57336   0.00000  Uiso   1.00
O1430  O     0.68953   0.56191   0.61865   0.00000  Uiso   1.00
H1431  H     0.67203   0.53979   0.64037   0.00000  Uiso   1.00
S1432  S     0.94154   0.39735   0.95403   0.00000  Uiso   1.00
O1433  O     0.98931   0.41604   0.94758   0.00000  Uiso   1.00
O1434  O     0.93571   0.35800   0.98222   0.00000  Uiso   1.00
O1435  O     0.93979   0.38563   0.90151   0.00000  Uiso   1.00
H1436  H     0.95911   0.35935   0.89172   0.00000  Uiso   1.00
S1437  S     0.83377   0.55874   0.59447   0.00000  Uiso   1.00
O1438  O     0.78792   0.56365   0.63621   0.00000  Uiso   1.00
O1439  O     0.87178   0.58442   0.60196   0.00000  Uiso   1.00
O1440  O     0.82514   0.57732   0.54694   0.00000  Uiso   1.00
H1441  H     0.80769   0.60445   0.55688   0.00000  Uiso   1.00
S1442  S     0.87377   0.52452   0.89311   0.00000  Uiso   1.00
O1443  O     0.91091   0.49327   0.86407   0.00000  Uiso   1.00
O1444  O     0.87203   0.56231   0.86460   0.00000  Uiso   1.00
O1445  O     0.88930   0.54038   0.93762   0.00000  Uiso   1.00
H1446  H     0.92351   0.54812   0.92312   0.00000  Uiso   1.00
S1447  S     0.92727   0.62297   0.67641   0.00000  Uiso   1.00
O1448  O     0.91816   0.58103   0.66013   0.00000  Uiso   1.00
O1449  O     0.94825   0.65073   0.63476   0.00000  Uiso   1.00
O1450  O     0.96734   0.61683   0.70270   0.00000  Uiso   1.00
H1451  H     0.97532   0.64566   0.70867   0.00000  Uiso   1.00
S1452  S     0.75071   0.37859   0.83447   0.00000  Uiso   1.00
O1453  O     0.71634   0.40351   0.81852   0.00000  Uiso   1.00
O1454  O     0.72327   0.34630   0.86893   0.00000  Uiso   1.00
O1455  O     0.77731   0.41064   0.86040   0.00000  Uiso   1.00
H1456  H     0.75231   0.41737   0.89115   0.00000  Uiso   1.00
C1457  C     0.97745   0.43787   0.69388   0.00000  Uiso   1.00
C1458  C     0.68088   0.43659   0.64387   0.00000  Uiso   1.00
H1459  H     0.68151   0.46727   0.62690   0.00000  Uiso   1.00
H1460  H     0.71757   0.42798   0.64241   0.00000  Uiso   1.00
H1461  H     0.67045   0.41250   0.62363   0.00000  Uiso   1.00
H1462  H     0.97688   0.40666   0.71003   0.00000  Uiso   1.00
H1463  H     0.94278   0.44367   0.69049   0.00000  Uiso   1.00
C1464  C     0.68838   0.56210   0.80599   0.00000  Uiso   1.00
C1465  C     0.68745   0.60642   0.78736   0.00000  Uiso   1.00
H1466  H     0.71726   0.61008   0.75325   0.00000  Uiso   1.00
H1467  H     0.98607   0.61359   0.78319   0.00000  Uiso   1.00
H1468  H     0.69109   0.62956   0.81252   0.00000  Uiso   1.00
H1469  H     0.99280   0.56007   0.84098   0.00000  Uiso   1.00
H1470  H     0.72205   0.55635   0.81182   0.00000  Uiso   1.00
C1471  C     0.16739   0.91316   0.74779   0.00000  Uiso   1.00
C1472  C     0.16612   0.75360   0.75232   0.00000  Uiso   1.00
C1473  C     0.10279   0.83778   0.55662   0.00000  Uiso   1.00
C1474  C     0.19727   0.78100   0.96204   0.00000  Uiso   1.00
C1475  C     0.07020   0.84916   0.53524   0.00000  Uiso   1.00
C1476  C     0.22807   0.76693   0.98414   0.00000  Uiso   1.00
C1477  C     0.20715   0.97957   0.71662   0.00000  Uiso   1.00
C1478  C     0.12908   0.68743   0.78607   0.00000  Uiso   1.00
C1479  C     0.20528   0.68919   0.71957   0.00000  Uiso   1.00
C1480  C     0.13015   0.97776   0.78231   0.00000  Uiso   1.00
C1481  C     0.16650   0.70944   0.75325   0.00000  Uiso   1.00
C1482  C     0.16791   0.95744   0.74737   0.00000  Uiso   1.00
C1483  C     0.32070   0.80422   0.72415   0.00000  Uiso   1.00
C1484  C     0.01309   0.86311   0.77454   0.00000  Uiso   1.00
C1485  C     0.03441   0.80384   0.72586   0.00000  Uiso   1.00
C1486  C     0.29937   0.86320   0.77326   0.00000  Uiso   1.00
C1487  C     0.13664   0.83544   0.83806   0.00000  Uiso   1.00
C1488  C     0.19648   0.83246   0.66222   0.00000  Uiso   1.00
C1489  C     0.11796   0.83845   0.88931   0.00000  Uiso   1.00
C1490  C     0.21299   0.82240   0.61283   0.00000  Uiso   1.00
C1491  C     0.05164   0.84971   0.96308   0.00000  Uiso   1.00
C1492  C     0.25264   0.77168   0.55212   0.00000  Uiso   1.00
C1493  C     0.06848   0.84520   0.91459   0.00000  Uiso   1.00
C1494  C     0.24557   0.78889   0.59554   0.00000  Uiso   1.00
C1495  C     0.14934   0.83440   0.91396   0.00000  Uiso   1.00
C1496  C     0.18655   0.83826   0.58687   0.00000  Uiso   1.00
C1497  C     0.12964   0.82569   0.96151   0.00000  Uiso   1.00
C1498  C     0.18497   0.81418   0.54922   0.00000  Uiso   1.00
C1499  C     0.08281   0.84120   0.98718   0.00000  Uiso   1.00
C1500  C     0.22238   0.78387   0.52822   0.00000  Uiso   1.00
C1501  C     0.15850   0.80872   0.98456   0.00000  Uiso   1.00
C1502  C     0.14854   0.82031   0.53072   0.00000  Uiso   1.00
H1503  H     0.26518   0.77575   0.61584   0.00000  Uiso   1.00
H1504  H     0.04345   0.84958   0.89680   0.00000  Uiso   1.00
H1505  H     0.01430   0.85869   0.98129   0.00000  Uiso   1.00
H1506  H     0.28000   0.74735   0.53907   0.00000  Uiso   1.00
H1507  H     0.09263   0.84306   0.59353   0.00000  Uiso   1.00
H1508  H     0.20254   0.76948   0.92753   0.00000  Uiso   1.00
H1509  H     0.23423   0.70711   0.69555   0.00000  Uiso   1.00
H1510  H     0.10306   0.95964   0.80806   0.00000  Uiso   1.00
H1511  H     0.06080   0.78003   0.70765   0.00000  Uiso   1.00
H1512  H     0.27333   0.88708   0.79153   0.00000  Uiso   1.00
N1513  N     0.04759   0.83334   0.75001   0.00000  Uiso   1.00
N1514  N     0.28574   0.83332   0.74999   0.00000  Uiso   1.00
O1515  O     0.12846   0.89442   0.75000   0.00000  Uiso   1.00
O1516  O     0.20488   0.77225   0.74999   0.00000  Uiso   1.00
O1517  O     0.20490   0.89441   0.75000   0.00000  Uiso   1.00
O1518  O     0.12843   0.77226   0.75000   0.00000  Uiso   1.00
O1519  O     0.10661   0.83334   0.81612   0.00000  Uiso   1.00
O1520  O     0.22672   0.83333   0.68387   0.00000  Uiso   1.00
O1521  O     0.18305   0.83333   0.81612   0.00000  Uiso   1.00
O1522  O     0.15028   0.83334   0.68388   0.00000  Uiso   1.00
Zn1523 Zn    0.11562   0.83334   0.75000   0.00000  Uiso   1.00
Zn1524 Zn    0.21771   0.83333   0.75000   0.00000  Uiso   1.00
S1525  S     0.02073   0.88217   0.56662   0.00000  Uiso   1.00
O1526  O     0.02224   0.92154   0.53940   0.00000  Uiso   1.00
O1527  O     0.30800   0.86056   0.57336   0.00000  Uiso   1.00
O1528  O     0.02287   0.89525   0.61865   0.00000  Uiso   1.00
H1529  H     0.00536   0.87312   0.64037   0.00000  Uiso   1.00
S1530  S     0.27488   0.73068   0.95403   0.00000  Uiso   1.00
O1531  O     0.32264   0.74937   0.94758   0.00000  Uiso   1.00
O1532  O     0.26904   0.69133   0.98222   0.00000  Uiso   1.00
O1533  O     0.27312   0.71896   0.90151   0.00000  Uiso   1.00
H1534  H     0.29244   0.69269   0.89172   0.00000  Uiso   1.00
S1535  S     0.16710   0.89207   0.59447   0.00000  Uiso   1.00
O1536  O     0.12125   0.89698   0.63621   0.00000  Uiso   1.00
O1537  O     0.20512   0.91775   0.60196   0.00000  Uiso   1.00
O1538  O     0.15848   0.91066   0.54694   0.00000  Uiso   1.00
H1539  H     0.14102   0.93779   0.55688   0.00000  Uiso   1.00
S1540  S     0.20710   0.85786   0.89311   0.00000  Uiso   1.00
O1541  O     0.24424   0.82660   0.86407   0.00000  Uiso   1.00
O1542  O     0.20536   0.89564   0.86460   0.00000  Uiso   1.00
O1543  O     0.22264   0.87371   0.93762   0.00000  Uiso   1.00
H1544  H     0.25685   0.88145   0.92312   0.00000  Uiso   1.00
S1545  S     0.26060   0.95630   0.67641   0.00000  Uiso   1.00
O1546  O     0.25149   0.91436   0.66013   0.00000  Uiso   1.00
O1547  O     0.28158   0.98406   0.63476   0.00000  Uiso   1.00
O1548  O     0.30067   0.95016   0.70270   0.00000  Uiso   1.00
H1549  H     0.30866   0.97899   0.70867   0.00000  Uiso   1.00
S1550  S     0.08404   0.71192   0.83447   0.00000  Uiso   1.00
O1551  O     0.04967   0.73684   0.81852   0.00000  Uiso   1.00
O1552  O     0.05660   0.67963   0.86893   0.00000  Uiso   1.00
O1553  O     0.11064   0.74398   0.86040   0.00000  Uiso   1.00
H1554  H     0.08564   0.75070   0.89115   0.00000  Uiso   1.00
C1555  C     0.31078   0.77121   0.69388   0.00000  Uiso   1.00
C1556  C     0.01421   0.76992   0.64387   0.00000  Uiso   1.00
H1557  H     0.01485   0.80060   0.62690   0.00000  Uiso   1.00
H1558  H     0.05091   0.76131   0.64241   0.00000  Uiso   1.00
H1559  H     0.00378   0.74583   0.62363   0.00000  Uiso   1.00
H1560  H     0.31021   0.73999   0.71003   0.00000  Uiso   1.00
H1561  H     0.27611   0.77700   0.69049   0.00000  Uiso   1.00
C1562  C     0.02171   0.89544   0.80599   0.00000  Uiso   1.00
C1563  C     0.02079   0.93975   0.78736   0.00000  Uiso   1.00
H1564  H     0.05060   0.94342   0.75325   0.00000  Uiso   1.00
H1565  H     0.31940   0.94693   0.78319   0.00000  Uiso   1.00
H1566  H     0.02442   0.96290   0.81252   0.00000  Uiso   1.00
H1567  H     0.32613   0.89341   0.84098   0.00000  Uiso   1.00
H1568  H     0.05538   0.88968   0.81182   0.00000  Uiso   1.00
C1569  C     0.50073   0.91316   0.74779   0.00000  Uiso   1.00
C1570  C     0.49945   0.75360   0.75232   0.00000  Uiso   1.00
C1571  C     0.43612   0.83778   0.55662   0.00000  Uiso   1.00
C1572  C     0.53061   0.78100   0.96204   0.00000  Uiso   1.00
C1573  C     0.40354   0.84916   0.53524   0.00000  Uiso   1.00
C1574  C     0.56141   0.76693   0.98414   0.00000  Uiso   1.00
C1575  C     0.54048   0.97957   0.71662   0.00000  Uiso   1.00
C1576  C     0.46242   0.68743   0.78607   0.00000  Uiso   1.00
C1577  C     0.53861   0.68919   0.71957   0.00000  Uiso   1.00
C1578  C     0.46348   0.97776   0.78231   0.00000  Uiso   1.00
C1579  C     0.49983   0.70944   0.75325   0.00000  Uiso   1.00
C1580  C     0.50124   0.95744   0.74737   0.00000  Uiso   1.00
C1581  C     0.65404   0.80422   0.72415   0.00000  Uiso   1.00
C1582  C     0.34642   0.86311   0.77454   0.00000  Uiso   1.00
C1583  C     0.36774   0.80384   0.72586   0.00000  Uiso   1.00
C1584  C     0.63271   0.86320   0.77326   0.00000  Uiso   1.00
C1585  C     0.46997   0.83544   0.83806   0.00000  Uiso   1.00
C1586  C     0.52982   0.83246   0.66222   0.00000  Uiso   1.00
C1587  C     0.45129   0.83845   0.88931   0.00000  Uiso   1.00
C1588  C     0.54632   0.82240   0.61283   0.00000  Uiso   1.00
C1589  C     0.38497   0.84971   0.96308   0.00000  Uiso   1.00
C1590  C     0.58597   0.77168   0.55212   0.00000  Uiso   1.00
C1591  C     0.40182   0.84520   0.91459   0.00000  Uiso   1.00
C1592  C     0.57891   0.78889   0.59554   0.00000  Uiso   1.00
C1593  C     0.48267   0.83440   0.91396   0.00000  Uiso   1.00
C1594  C     0.51988   0.83826   0.58687   0.00000  Uiso   1.00
C1595  C     0.46297   0.82569   0.96151   0.00000  Uiso   1.00
C1596  C     0.51830   0.81418   0.54922   0.00000  Uiso   1.00
C1597  C     0.41614   0.84120   0.98718   0.00000  Uiso   1.00
C1598  C     0.55571   0.78387   0.52822   0.00000  Uiso   1.00
C1599  C     0.49183   0.80872   0.98456   0.00000  Uiso   1.00
C1600  C     0.48187   0.82031   0.53072   0.00000  Uiso   1.00
H1601  H     0.59852   0.77575   0.61584   0.00000  Uiso   1.00
H1602  H     0.37678   0.84958   0.89680   0.00000  Uiso   1.00
H1603  H     0.34763   0.85869   0.98129   0.00000  Uiso   1.00
H1604  H     0.61334   0.74735   0.53907   0.00000  Uiso   1.00
H1605  H     0.42597   0.84306   0.59353   0.00000  Uiso   1.00
H1606  H     0.53587   0.76948   0.92753   0.00000  Uiso   1.00
H1607  H     0.56756   0.70711   0.69555   0.00000  Uiso   1.00
H1608  H     0.43639   0.95964   0.80806   0.00000  Uiso   1.00
H1609  H     0.39413   0.78003   0.70765   0.00000  Uiso   1.00
H1610  H     0.60667   0.88708   0.79153   0.00000  Uiso   1.00
N1611  N     0.38093   0.83334   0.75001   0.00000  Uiso   1.00
N1612  N     0.61907   0.83332   0.74999   0.00000  Uiso   1.00
O1613  O     0.46179   0.89442   0.75000   0.00000  Uiso   1.00
O1614  O     0.53821   0.77225   0.74999   0.00000  Uiso   1.00
O1615  O     0.53823   0.89441   0.75000   0.00000  Uiso   1.00
O1616  O     0.46177   0.77226   0.75000   0.00000  Uiso   1.00
O1617  O     0.43994   0.83334   0.81612   0.00000  Uiso   1.00
O1618  O     0.56006   0.83333   0.68387   0.00000  Uiso   1.00
O1619  O     0.51639   0.83333   0.81612   0.00000  Uiso   1.00
O1620  O     0.48361   0.83334   0.68388   0.00000  Uiso   1.00
Zn1621 Zn    0.44896   0.83334   0.75000   0.00000  Uiso   1.00
Zn1622 Zn    0.55104   0.83333   0.75000   0.00000  Uiso   1.00
S1623  S     0.35407   0.88217   0.56662   0.00000  Uiso   1.00
O1624  O     0.35557   0.92154   0.53940   0.00000  Uiso   1.00
O1625  O     0.64133   0.86056   0.57336   0.00000  Uiso   1.00
O1626  O     0.35620   0.89525   0.61865   0.00000  Uiso   1.00
H1627  H     0.33870   0.87312   0.64037   0.00000  Uiso   1.00
S1628  S     0.60821   0.73068   0.95403   0.00000  Uiso   1.00
O1629  O     0.65597   0.74937   0.94758   0.00000  Uiso   1.00
O1630  O     0.60238   0.69133   0.98222   0.00000  Uiso   1.00
O1631  O     0.60645   0.71896   0.90151   0.00000  Uiso   1.00
H1632  H     0.62577   0.69269   0.89172   0.00000  Uiso   1.00
S1633  S     0.50043   0.89207   0.59447   0.00000  Uiso   1.00
O1634  O     0.45458   0.89698   0.63621   0.00000  Uiso   1.00
O1635  O     0.53845   0.91775   0.60196   0.00000  Uiso   1.00
O1636  O     0.49181   0.91066   0.54694   0.00000  Uiso   1.00
H1637  H     0.47436   0.93779   0.55688   0.00000  Uiso   1.00
S1638  S     0.54044   0.85786   0.89311   0.00000  Uiso   1.00
O1639  O     0.57758   0.82660   0.86407   0.00000  Uiso   1.00
O1640  O     0.53870   0.89564   0.86460   0.00000  Uiso   1.00
O1641  O     0.55597   0.87371   0.93762   0.00000  Uiso   1.00
H1642  H     0.59018   0.88145   0.92312   0.00000  Uiso   1.00
S1643  S     0.59393   0.95630   0.67641   0.00000  Uiso   1.00
O1644  O     0.58482   0.91436   0.66013   0.00000  Uiso   1.00
O1645  O     0.61492   0.98406   0.63476   0.00000  Uiso   1.00
O1646  O     0.63400   0.95016   0.70270   0.00000  Uiso   1.00
H1647  H     0.64199   0.97899   0.70867   0.00000  Uiso   1.00
S1648  S     0.41738   0.71192   0.83447   0.00000  Uiso   1.00
O1649  O     0.38300   0.73684   0.81852   0.00000  Uiso   1.00
O1650  O     0.38994   0.67963   0.86893   0.00000  Uiso   1.00
O1651  O     0.44398   0.74398   0.86040   0.00000  Uiso   1.00
H1652  H     0.41897   0.75070   0.89115   0.00000  Uiso   1.00
C1653  C     0.64412   0.77121   0.69388   0.00000  Uiso   1.00
C1654  C     0.34754   0.76992   0.64387   0.00000  Uiso   1.00
H1655  H     0.34818   0.80060   0.62690   0.00000  Uiso   1.00
H1656  H     0.38424   0.76131   0.64241   0.00000  Uiso   1.00
H1657  H     0.33712   0.74583   0.62363   0.00000  Uiso   1.00
H1658  H     0.64355   0.73999   0.71003   0.00000  Uiso   1.00
H1659  H     0.60945   0.77700   0.69049   0.00000  Uiso   1.00
C1660  C     0.35504   0.89544   0.80599   0.00000  Uiso   1.00
C1661  C     0.35412   0.93975   0.78736   0.00000  Uiso   1.00
H1662  H     0.38393   0.94342   0.75325   0.00000  Uiso   1.00
H1663  H     0.65273   0.94693   0.78319   0.00000  Uiso   1.00
H1664  H     0.35775   0.96290   0.81252   0.00000  Uiso   1.00
H1665  H     0.65946   0.89341   0.84098   0.00000  Uiso   1.00
H1666  H     0.38871   0.88968   0.81182   0.00000  Uiso   1.00
C1667  C     0.83406   0.91316   0.74779   0.00000  Uiso   1.00
C1668  C     0.83278   0.75360   0.75232   0.00000  Uiso   1.00
C1669  C     0.76946   0.83778   0.55662   0.00000  Uiso   1.00
C1670  C     0.86394   0.78100   0.96204   0.00000  Uiso   1.00
C1671  C     0.73687   0.84916   0.53524   0.00000  Uiso   1.00
C1672  C     0.89474   0.76693   0.98414   0.00000  Uiso   1.00
C1673  C     0.87381   0.97957   0.71662   0.00000  Uiso   1.00
C1674  C     0.79575   0.68743   0.78607   0.00000  Uiso   1.00
C1675  C     0.87194   0.68919   0.71957   0.00000  Uiso   1.00
C1676  C     0.79682   0.97776   0.78231   0.00000  Uiso   1.00
C1677  C     0.83317   0.70944   0.75325   0.00000  Uiso   1.00
C1678  C     0.83457   0.95744   0.74737   0.00000  Uiso   1.00
C1679  C     0.98737   0.80422   0.72415   0.00000  Uiso   1.00
C1680  C     0.67975   0.86311   0.77454   0.00000  Uiso   1.00
C1681  C     0.70107   0.80384   0.72586   0.00000  Uiso   1.00
C1682  C     0.96604   0.86320   0.77326   0.00000  Uiso   1.00
C1683  C     0.80330   0.83544   0.83806   0.00000  Uiso   1.00
C1684  C     0.86315   0.83246   0.66222   0.00000  Uiso   1.00
C1685  C     0.78462   0.83845   0.88931   0.00000  Uiso   1.00
C1686  C     0.87965   0.82240   0.61283   0.00000  Uiso   1.00
C1687  C     0.71830   0.84971   0.96308   0.00000  Uiso   1.00
C1688  C     0.91930   0.77168   0.55212   0.00000  Uiso   1.00
C1689  C     0.73515   0.84520   0.91459   0.00000  Uiso   1.00
C1690  C     0.91224   0.78889   0.59554   0.00000  Uiso   1.00
C1691  C     0.81601   0.83440   0.91396   0.00000  Uiso   1.00
C1692  C     0.85322   0.83826   0.58687   0.00000  Uiso   1.00
C1693  C     0.79631   0.82569   0.96151   0.00000  Uiso   1.00
C1694  C     0.85164   0.81418   0.54922   0.00000  Uiso   1.00
C1695  C     0.74947   0.84120   0.98718   0.00000  Uiso   1.00
C1696  C     0.88904   0.78387   0.52822   0.00000  Uiso   1.00
C1697  C     0.82516   0.80872   0.98456   0.00000  Uiso   1.00
C1698  C     0.81520   0.82031   0.53072   0.00000  Uiso   1.00
H1699  H     0.93185   0.77575   0.61584   0.00000  Uiso   1.00
H1700  H     0.71012   0.84958   0.89680   0.00000  Uiso   1.00
H1701  H     0.68096   0.85869   0.98129   0.00000  Uiso   1.00
H1702  H     0.94667   0.74735   0.53907   0.00000  Uiso   1.00
H1703  H     0.75930   0.84306   0.59353   0.00000  Uiso   1.00
H1704  H     0.86920   0.76948   0.92753   0.00000  Uiso   1.00
H1705  H     0.90089   0.70711   0.69555   0.00000  Uiso   1.00
H1706  H     0.76973   0.95964   0.80806   0.00000  Uiso   1.00
H1707  H     0.72746   0.78003   0.70765   0.00000  Uiso   1.00
H1708  H     0.94000   0.88708   0.79153   0.00000  Uiso   1.00
N1709  N     0.71426   0.83334   0.75001   0.00000  Uiso   1.00
N1710  N     0.95241   0.83332   0.74999   0.00000  Uiso   1.00
O1711  O     0.79512   0.89442   0.75000   0.00000  Uiso   1.00
O1712  O     0.87154   0.77225   0.74999   0.00000  Uiso   1.00
O1713  O     0.87157   0.89441   0.75000   0.00000  Uiso   1.00
O1714  O     0.79510   0.77226   0.75000   0.00000  Uiso   1.00
O1715  O     0.77328   0.83334   0.81612   0.00000  Uiso   1.00
O1716  O     0.89339   0.83333   0.68387   0.00000  Uiso   1.00
O1717  O     0.84972   0.83333   0.81612   0.00000  Uiso   1.00
O1718  O     0.81695   0.83334   0.68388   0.00000  Uiso   1.00
Zn1719 Zn    0.78229   0.83334   0.75000   0.00000  Uiso   1.00
Zn1720 Zn    0.88438   0.83333   0.75000   0.00000  Uiso   1.00
S1721  S     0.68740   0.88217   0.56662   0.00000  Uiso   1.00
O1722  O     0.68890   0.92154   0.53940   0.00000  Uiso   1.00
O1723  O     0.97467   0.86056   0.57336   0.00000  Uiso   1.00
O1724  O     0.68953   0.89525   0.61865   0.00000  Uiso   1.00
H1725  H     0.67203   0.87312   0.64037   0.00000  Uiso   1.00
S1726  S     0.94154   0.73068   0.95403   0.00000  Uiso   1.00
O1727  O     0.98931   0.74937   0.94758   0.00000  Uiso   1.00
O1728  O     0.93571   0.69133   0.98222   0.00000  Uiso   1.00
O1729  O     0.93979   0.71896   0.90151   0.00000  Uiso   1.00
H1730  H     0.95911   0.69269   0.89172   0.00000  Uiso   1.00
S1731  S     0.83377   0.89207   0.59447   0.00000  Uiso   1.00
O1732  O     0.78792   0.89698   0.63621   0.00000  Uiso   1.00
O1733  O     0.87178   0.91775   0.60196   0.00000  Uiso   1.00
O1734  O     0.82514   0.91066   0.54694   0.00000  Uiso   1.00
H1735  H     0.80769   0.93779   0.55688   0.00000  Uiso   1.00
S1736  S     0.87377   0.85786   0.89311   0.00000  Uiso   1.00
O1737  O     0.91091   0.82660   0.86407   0.00000  Uiso   1.00
O1738  O     0.87203   0.89564   0.86460   0.00000  Uiso   1.00
O1739  O     0.88930   0.87371   0.93762   0.00000  Uiso   1.00
H1740  H     0.92351   0.88145   0.92312   0.00000  Uiso   1.00
S1741  S     0.92727   0.95630   0.67641   0.00000  Uiso   1.00
O1742  O     0.91816   0.91436   0.66013   0.00000  Uiso   1.00
O1743  O     0.94825   0.98406   0.63476   0.00000  Uiso   1.00
O1744  O     0.96734   0.95016   0.70270   0.00000  Uiso   1.00
H1745  H     0.97532   0.97899   0.70867   0.00000  Uiso   1.00
S1746  S     0.75071   0.71192   0.83447   0.00000  Uiso   1.00
O1747  O     0.71634   0.73684   0.81852   0.00000  Uiso   1.00
O1748  O     0.72327   0.67963   0.86893   0.00000  Uiso   1.00
O1749  O     0.77731   0.74398   0.86040   0.00000  Uiso   1.00
H1750  H     0.75231   0.75070   0.89115   0.00000  Uiso   1.00
C1751  C     0.97745   0.77121   0.69388   0.00000  Uiso   1.00
C1752  C     0.68088   0.76992   0.64387   0.00000  Uiso   1.00
H1753  H     0.68151   0.80060   0.62690   0.00000  Uiso   1.00
H1754  H     0.71757   0.76131   0.64241   0.00000  Uiso   1.00
H1755  H     0.67045   0.74583   0.62363   0.00000  Uiso   1.00
H1756  H     0.97688   0.73999   0.71003   0.00000  Uiso   1.00
H1757  H     0.94278   0.77700   0.69049   0.00000  Uiso   1.00
C1758  C     0.68838   0.89544   0.80599   0.00000  Uiso   1.00
C1759  C     0.68745   0.93975   0.78736   0.00000  Uiso   1.00
H1760  H     0.71726   0.94342   0.75325   0.00000  Uiso   1.00
H1761  H     0.98607   0.94693   0.78319   0.00000  Uiso   1.00
H1762  H     0.69109   0.96290   0.81252   0.00000  Uiso   1.00
H1763  H     0.99280   0.89341   0.84098   0.00000  Uiso   1.00
H1764  H     0.72205   0.88968   0.81182   0.00000  Uiso   1.00
loop_
_geom_bond_atom_site_label_1
_geom_bond_atom_site_label_2
_geom_bond_distance
_geom_bond_site_symmetry_2
_ccdc_geom_bond_type
C1     C12     1.415   .     S
C1     O47     1.282   .     A
C1     O45     1.298   .     A
C2     O46     1.292   .     A
C2     C11     1.411   .     S
C2     O48     1.286   .     A
C3     C5      1.402   .     A
C3     C32     1.409   .     A
C3     H37     1.079   .     S
C4     C6      1.396   .     A
C4     H38     1.082   .     S
C4     C31     1.406   .     A
C5     S55     1.767   .     S
C5     C911    1.412   1_554 S
C6     S60     1.772   .     S
C6     C912    1.415   .     S
C7     C12     1.412   .     A
C7     S75     1.773   .     S
C7     C303    1.374   .     S
C8     C11     1.405   .     A
C8     S80     1.773   .     S
C8     C598    1.377   1_545 S
C9     H39     1.084   .     S
C9     C11     1.389   .     A
C9     C595    1.374   1_545 S
C10    H40     1.082   .     S
C10    C12     1.392   .     A
C10    C302    1.377   .     S
C13    C85     1.514   .     S
C13    N44     1.393   .     A
C13    C113    1.424   .     S
C14    C92     1.507   .     S
C14    N43     1.389   .     A
C14    C212    1.419   1_455 S
C15    H41     1.080   .     S
C15    N43     1.353   .     A
C15    C209    1.424   1_455 S
C16    N44     1.351   .     A
C16    H42     1.077   .     S
C16    C112    1.419   .     S
C17    O51     1.301   .     A
C17    O49     1.308   .     A
C17    C19     1.475   .     S
C18    O52     1.294   .     A
C18    O50     1.305   .     A
C18    C20     1.454   .     S
C19    C23     1.408   .     A
C19    C25     1.409   .     A
C20    C24     1.398   .     A
C20    C26     1.401   .     A
C21    C29     1.409   .     A
C21    H35     1.081   .     S
C21    C23     1.400   .     A
C22    C24     1.390   .     A
C22    C30     1.407   .     A
C22    H36     1.080   .     S
C23    H34     1.083   .     S
C24    H33     1.080   .     S
C25    C27     1.397   .     A
C25    S70     1.787   .     S
C26    S65     1.790   .     S
C26    C28     1.410   .     A
C27    C29     1.411   .     A
C27    C31     1.402   .     A
C28    C32     1.410   .     A
C28    C30     1.425   .     A
C29    C887    1.412   .     S
C30    C888    1.415   1_554 S
C31    C914    1.393   .     S
C32    C913    1.393   1_554 S
N43    Zn53    2.030   .     S
N44    Zn54    2.030   .     S
O45    Zn53    1.996   .     S
O46    Zn54    1.996   .     S
O47    Zn54    1.980   .     S
O48    Zn53    1.980   .     S
O49    Zn53    1.958   .     S
O50    Zn54    1.958   .     S
O51    Zn54    1.921   .     S
O52    Zn53    1.921   .     S
S55    O56     1.503   .     D
S55    O58     1.683   .     S
S55    O253    1.498   1_455 S
O57    S153    1.498   .     S
O58    H59     0.990   .     S
S60    O63     1.683   .     S
S60    O62     1.504   .     D
S60    O61     1.503   .     D
O63    H64     0.990   .     S
S65    O67     1.499   .     D
S65    O68     1.683   .     S
S65    O66     1.504   .     D
O68    H69     0.990   .     S
S70    O71     1.503   .     D
S70    O73     1.684   .     S
S70    O72     1.503   .     D
O73    H74     0.990   .     S
S75    O76     1.496   .     D
S75    O77     1.504   .     D
S75    O78     1.680   .     S
O78    H79     0.991   .     S
S80    O83     1.680   .     S
S80    O82     1.504   .     D
S80    O81     1.503   .     D
O83    H84     0.990   .     S
C85    H91     1.089   .     S
C85    H90     1.111   .     S
C85    C184    1.532   .     S
C86    H88     1.108   .     S
C86    H87     1.107   .     S
C86    H89     1.110   .     S
C86    C281    1.532   1_455 S
C92    C93     1.530   .     S
C92    H98     1.095   .     S
C92    H293    1.112   1_455 S
C93    H94     1.110   .     S
C93    H96     1.108   .     S
C93    H291    1.109   1_455 S
H95    C191    1.109   .     S
H97    C190    1.112   .     S
C99    C110    1.415   .     S
C99    O145    1.282   .     A
C99    O143    1.298   .     A
C100   O144    1.292   .     A
C100   C109    1.411   .     S
C100   O146    1.286   .     A
C101   C103    1.402   .     A
C101   C130    1.409   .     A
C101   H135    1.079   .     S
C102   C104    1.396   .     A
C102   H136    1.082   .     S
C102   C129    1.406   .     A
C103   S153    1.767   .     S
C103   C1009   1.412   1_554 S
C104   S158    1.772   .     S
C104   C1010   1.415   .     S
C105   C110    1.412   .     A
C105   S173    1.773   .     S
C105   C401    1.374   .     S
C106   C109    1.405   .     A
C106   S178    1.773   .     S
C106   C696    1.377   1_545 S
C107   H137    1.084   .     S
C107   C109    1.389   .     A
C107   C693    1.374   1_545 S
C108   H138    1.082   .     S
C108   C110    1.392   .     A
C108   C400    1.377   .     S
C111   C183    1.514   .     S
C111   N142    1.393   .     A
C111   C211    1.424   .     S
C112   C190    1.507   .     S
C112   N141    1.389   .     A
C113   H139    1.080   .     S
C113   N141    1.353   .     A
C114   N142    1.351   .     A
C114   H140    1.077   .     S
C114   C210    1.419   .     S
C115   O149    1.301   .     A
C115   O147    1.308   .     A
C115   C117    1.475   .     S
C116   O150    1.294   .     A
C116   O148    1.305   .     A
C116   C118    1.454   .     S
C117   C121    1.408   .     A
C117   C123    1.409   .     A
C118   C122    1.398   .     A
C118   C124    1.401   .     A
C119   C127    1.409   .     A
C119   H133    1.081   .     S
C119   C121    1.400   .     A
C120   C122    1.390   .     A
C120   C128    1.407   .     A
C120   H134    1.080   .     S
C121   H132    1.083   .     S
C122   H131    1.080   .     S
C123   C125    1.397   .     A
C123   S168    1.787   .     S
C124   S163    1.790   .     S
C124   C126    1.410   .     A
C125   C127    1.411   .     A
C125   C129    1.402   .     A
C126   C130    1.410   .     A
C126   C128    1.425   .     A
C127   C985    1.412   .     S
C128   C986    1.415   1_554 S
C129   C1012   1.393   .     S
C130   C1011   1.393   1_554 S
N141   Zn151   2.030   .     S
N142   Zn152   2.030   .     S
O143   Zn151   1.996   .     S
O144   Zn152   1.996   .     S
O145   Zn152   1.980   .     S
O146   Zn151   1.980   .     S
O147   Zn151   1.958   .     S
O148   Zn152   1.958   .     S
O149   Zn152   1.921   .     S
O150   Zn151   1.921   .     S
S153   O154    1.503   .     D
S153   O156    1.683   .     S
O155   S251    1.498   .     S
O156   H157    0.990   .     S
S158   O161    1.683   .     S
S158   O160    1.504   .     D
S158   O159    1.503   .     D
O161   H162    0.990   .     S
S163   O165    1.499   .     D
S163   O166    1.683   .     S
S163   O164    1.504   .     D
O166   H167    0.990   .     S
S168   O169    1.503   .     D
S168   O171    1.684   .     S
S168   O170    1.503   .     D
O171   H172    0.990   .     S
S173   O174    1.496   .     D
S173   O175    1.504   .     D
S173   O176    1.680   .     S
O176   H177    0.991   .     S
S178   O181    1.680   .     S
S178   O180    1.504   .     D
S178   O179    1.503   .     D
O181   H182    0.990   .     S
C183   H189    1.089   .     S
C183   H188    1.111   .     S
C183   C282    1.532   .     S
C184   H186    1.108   .     S
C184   H185    1.107   .     S
C184   H187    1.110   .     S
C190   C191    1.530   .     S
C190   H196    1.095   .     S
C191   H192    1.110   .     S
C191   H194    1.108   .     S
H193   C289    1.109   .     S
H195   C288    1.112   .     S
C197   C208    1.415   .     S
C197   O243    1.282   .     A
C197   O241    1.298   .     A
C198   O242    1.292   .     A
C198   C207    1.411   .     S
C198   O244    1.286   .     A
C199   C201    1.402   .     A
C199   C228    1.409   .     A
C199   H233    1.079   .     S
C200   C202    1.396   .     A
C200   H234    1.082   .     S
C200   C227    1.406   .     A
C201   S251    1.767   .     S
C201   C1107   1.412   1_554 S
C202   S256    1.772   .     S
C202   C1108   1.415   .     S
C203   C208    1.412   .     A
C203   S271    1.773   .     S
C203   C499    1.374   .     S
C204   C207    1.405   .     A
C204   S276    1.773   .     S
C204   C794    1.377   1_545 S
C205   H235    1.084   .     S
C205   C207    1.389   .     A
C205   C791    1.374   1_545 S
C206   H236    1.082   .     S
C206   C208    1.392   .     A
C206   C498    1.377   .     S
C209   C281    1.514   .     S
C209   N240    1.393   .     A
C209   C15     1.424   1_655 S
C210   C288    1.507   .     S
C210   N239    1.389   .     A
C211   H237    1.080   .     S
C211   N239    1.353   .     A
C212   N240    1.351   .     A
C212   H238    1.077   .     S
C212   C14     1.419   1_655 S
C213   O247    1.301   .     A
C213   O245    1.308   .     A
C213   C215    1.475   .     S
C214   O248    1.294   .     A
C214   O246    1.305   .     A
C214   C216    1.454   .     S
C215   C219    1.408   .     A
C215   C221    1.409   .     A
C216   C220    1.398   .     A
C216   C222    1.401   .     A
C217   C225    1.409   .     A
C217   H231    1.081   .     S
C217   C219    1.400   .     A
C218   C220    1.390   .     A
C218   C226    1.407   .     A
C218   H232    1.080   .     S
C219   H230    1.083   .     S
C220   H229    1.080   .     S
C221   C223    1.397   .     A
C221   S266    1.787   .     S
C222   S261    1.790   .     S
C222   C224    1.410   .     A
C223   C225    1.411   .     A
C223   C227    1.402   .     A
C224   C228    1.410   .     A
C224   C226    1.425   .     A
C225   C1083   1.412   .     S
C226   C1084   1.415   1_554 S
C227   C1110   1.393   .     S
C228   C1109   1.393   1_554 S
N239   Zn249   2.030   .     S
N240   Zn250   2.030   .     S
O241   Zn249   1.996   .     S
O242   Zn250   1.996   .     S
O243   Zn250   1.980   .     S
O244   Zn249   1.980   .     S
O245   Zn249   1.958   .     S
O246   Zn250   1.958   .     S
O247   Zn250   1.921   .     S
O248   Zn249   1.921   .     S
S251   O252    1.503   .     D
S251   O254    1.683   .     S
O253   S55     1.498   1_655 S
O254   H255    0.990   .     S
S256   O259    1.683   .     S
S256   O258    1.504   .     D
S256   O257    1.503   .     D
O259   H260    0.990   .     S
S261   O263    1.499   .     D
S261   O264    1.683   .     S
S261   O262    1.504   .     D
O264   H265    0.990   .     S
S266   O267    1.503   .     D
S266   O269    1.684   .     S
S266   O268    1.503   .     D
O269   H270    0.990   .     S
S271   O272    1.496   .     D
S271   O273    1.504   .     D
S271   O274    1.680   .     S
O274   H275    0.991   .     S
S276   O279    1.680   .     S
S276   O278    1.504   .     D
S276   O277    1.503   .     D
O279   H280    0.990   .     S
C281   H287    1.089   .     S
C281   H286    1.111   .     S
C281   C86     1.532   1_655 S
C282   H284    1.108   .     S
C282   H283    1.107   .     S
C282   H285    1.110   .     S
C288   C289    1.530   .     S
C288   H294    1.095   .     S
C289   H290    1.110   .     S
C289   H292    1.108   .     S
H291   C93     1.109   1_655 S
H293   C92     1.112   1_655 S
C295   C306    1.415   .     S
C295   O341    1.282   .     A
C295   O339    1.298   .     A
C296   O340    1.292   .     A
C296   C305    1.411   .     S
C296   O342    1.286   .     A
C297   C299    1.402   .     A
C297   C326    1.409   .     A
C297   H331    1.079   .     S
C298   C300    1.396   .     A
C298   H332    1.082   .     S
C298   C325    1.406   .     A
C299   S349    1.767   .     S
C299   C1205   1.412   1_554 S
C300   S354    1.772   .     S
C300   C1206   1.415   .     S
C301   C306    1.412   .     A
C301   S369    1.773   .     S
C301   C597    1.374   .     S
C302   C305    1.405   .     A
C302   S374    1.773   .     S
C303   H333    1.084   .     S
C303   C305    1.389   .     A
C304   H334    1.082   .     S
C304   C306    1.392   .     A
C304   C596    1.377   .     S
C307   C379    1.514   .     S
C307   N338    1.393   .     A
C307   C407    1.424   .     S
C308   C386    1.507   .     S
C308   N337    1.389   .     A
C308   C506    1.419   1_455 S
C309   H335    1.080   .     S
C309   N337    1.353   .     A
C309   C503    1.424   1_455 S
C310   N338    1.351   .     A
C310   H336    1.077   .     S
C310   C406    1.419   .     S
C311   O345    1.301   .     A
C311   O343    1.308   .     A
C311   C313    1.475   .     S
C312   O346    1.294   .     A
C312   O344    1.305   .     A
C312   C314    1.454   .     S
C313   C317    1.408   .     A
C313   C319    1.409   .     A
C314   C318    1.398   .     A
C314   C320    1.401   .     A
C315   C323    1.409   .     A
C315   H329    1.081   .     S
C315   C317    1.400   .     A
C316   C318    1.390   .     A
C316   C324    1.407   .     A
C316   H330    1.080   .     S
C317   H328    1.083   .     S
C318   H327    1.080   .     S
C319   C321    1.397   .     A
C319   S364    1.787   .     S
C320   S359    1.790   .     S
C320   C322    1.410   .     A
C321   C323    1.411   .     A
C321   C325    1.402   .     A
C322   C326    1.410   .     A
C322   C324    1.425   .     A
C323   C1181   1.412   .     S
C324   C1182   1.415   1_554 S
C325   C1208   1.393   .     S
C326   C1207   1.393   1_554 S
N337   Zn347   2.030   .     S
N338   Zn348   2.030   .     S
O339   Zn347   1.996   .     S
O340   Zn348   1.996   .     S
O341   Zn348   1.980   .     S
O342   Zn347   1.980   .     S
O343   Zn347   1.958   .     S
O344   Zn348   1.958   .     S
O345   Zn348   1.921   .     S
O346   Zn347   1.921   .     S
S349   O350    1.503   .     D
S349   O352    1.683   .     S
S349   O547    1.498   1_455 S
O351   S447    1.498   .     S
O352   H353    0.990   .     S
S354   O357    1.683   .     S
S354   O356    1.504   .     D
S354   O355    1.503   .     D
O357   H358    0.990   .     S
S359   O361    1.499   .     D
S359   O362    1.683   .     S
S359   O360    1.504   .     D
O362   H363    0.990   .     S
S364   O365    1.503   .     D
S364   O367    1.684   .     S
S364   O366    1.503   .     D
O367   H368    0.990   .     S
S369   O370    1.496   .     D
S369   O371    1.504   .     D
S369   O372    1.680   .     S
O372   H373    0.991   .     S
S374   O377    1.680   .     S
S374   O376    1.504   .     D
S374   O375    1.503   .     D
O377   H378    0.990   .     S
C379   H385    1.089   .     S
C379   H384    1.111   .     S
C379   C478    1.532   .     S
C380   H382    1.108   .     S
C380   H381    1.107   .     S
C380   H383    1.110   .     S
C380   C575    1.532   1_455 S
C386   C387    1.530   .     S
C386   H392    1.095   .     S
C386   H587    1.112   1_455 S
C387   H388    1.110   .     S
C387   H390    1.108   .     S
C387   H585    1.109   1_455 S
H389   C485    1.109   .     S
H391   C484    1.112   .     S
C393   C404    1.415   .     S
C393   O439    1.282   .     A
C393   O437    1.298   .     A
C394   O438    1.292   .     A
C394   C403    1.411   .     S
C394   O440    1.286   .     A
C395   C397    1.402   .     A
C395   C424    1.409   .     A
C395   H429    1.079   .     S
C396   C398    1.396   .     A
C396   H430    1.082   .     S
C396   C423    1.406   .     A
C397   S447    1.767   .     S
C397   C1303   1.412   1_554 S
C398   S452    1.772   .     S
C398   C1304   1.415   .     S
C399   C404    1.412   .     A
C399   S467    1.773   .     S
C399   C695    1.374   .     S
C400   C403    1.405   .     A
C400   S472    1.773   .     S
C401   H431    1.084   .     S
C401   C403    1.389   .     A
C402   H432    1.082   .     S
C402   C404    1.392   .     A
C402   C694    1.377   .     S
C405   C477    1.514   .     S
C405   N436    1.393   .     A
C405   C505    1.424   .     S
C406   C484    1.507   .     S
C406   N435    1.389   .     A
C407   H433    1.080   .     S
C407   N435    1.353   .     A
C408   N436    1.351   .     A
C408   H434    1.077   .     S
C408   C504    1.419   .     S
C409   O443    1.301   .     A
C409   O441    1.308   .     A
C409   C411    1.475   .     S
C410   O444    1.294   .     A
C410   O442    1.305   .     A
C410   C412    1.454   .     S
C411   C415    1.408   .     A
C411   C417    1.409   .     A
C412   C416    1.398   .     A
C412   C418    1.401   .     A
C413   C421    1.409   .     A
C413   H427    1.081   .     S
C413   C415    1.400   .     A
C414   C416    1.390   .     A
C414   C422    1.407   .     A
C414   H428    1.080   .     S
C415   H426    1.083   .     S
C416   H425    1.080   .     S
C417   C419    1.397   .     A
C417   S462    1.787   .     S
C418   S457    1.790   .     S
C418   C420    1.410   .     A
C419   C421    1.411   .     A
C419   C423    1.402   .     A
C420   C424    1.410   .     A
C420   C422    1.425   .     A
C421   C1279   1.412   .     S
C422   C1280   1.415   1_554 S
C423   C1306   1.393   .     S
C424   C1305   1.393   1_554 S
N435   Zn445   2.030   .     S
N436   Zn446   2.030   .     S
O437   Zn445   1.996   .     S
O438   Zn446   1.996   .     S
O439   Zn446   1.980   .     S
O440   Zn445   1.980   .     S
O441   Zn445   1.958   .     S
O442   Zn446   1.958   .     S
O443   Zn446   1.921   .     S
O444   Zn445   1.921   .     S
S447   O448    1.503   .     D
S447   O450    1.683   .     S
O449   S545    1.498   .     S
O450   H451    0.990   .     S
S452   O455    1.683   .     S
S452   O454    1.504   .     D
S452   O453    1.503   .     D
O455   H456    0.990   .     S
S457   O459    1.499   .     D
S457   O460    1.683   .     S
S457   O458    1.504   .     D
O460   H461    0.990   .     S
S462   O463    1.503   .     D
S462   O465    1.684   .     S
S462   O464    1.503   .     D
O465   H466    0.990   .     S
S467   O468    1.496   .     D
S467   O469    1.504   .     D
S467   O470    1.680   .     S
O470   H471    0.991   .     S
S472   O475    1.680   .     S
S472   O474    1.504   .     D
S472   O473    1.503   .     D
O475   H476    0.990   .     S
C477   H483    1.089   .     S
C477   H482    1.111   .     S
C477   C576    1.532   .     S
C478   H480    1.108   .     S
C478   H479    1.107   .     S
C478   H481    1.110   .     S
C484   C485    1.530   .     S
C484   H490    1.095   .     S
C485   H486    1.110   .     S
C485   H488    1.108   .     S
H487   C583    1.109   .     S
H489   C582    1.112   .     S
C491   C502    1.415   .     S
C491   O537    1.282   .     A
C491   O535    1.298   .     A
C492   O536    1.292   .     A
C492   C501    1.411   .     S
C492   O538    1.286   .     A
C493   C495    1.402   .     A
C493   C522    1.409   .     A
C493   H527    1.079   .     S
C494   C496    1.396   .     A
C494   H528    1.082   .     S
C494   C521    1.406   .     A
C495   S545    1.767   .     S
C495   C1401   1.412   1_554 S
C496   S550    1.772   .     S
C496   C1402   1.415   .     S
C497   C502    1.412   .     A
C497   S565    1.773   .     S
C497   C793    1.374   .     S
C498   C501    1.405   .     A
C498   S570    1.773   .     S
C499   H529    1.084   .     S
C499   C501    1.389   .     A
C500   H530    1.082   .     S
C500   C502    1.392   .     A
C500   C792    1.377   .     S
C503   C575    1.514   .     S
C503   N534    1.393   .     A
C503   C309    1.424   1_655 S
C504   C582    1.507   .     S
C504   N533    1.389   .     A
C505   H531    1.080   .     S
C505   N533    1.353   .     A
C506   N534    1.351   .     A
C506   H532    1.077   .     S
C506   C308    1.419   1_655 S
C507   O541    1.301   .     A
C507   O539    1.308   .     A
C507   C509    1.475   .     S
C508   O542    1.294   .     A
C508   O540    1.305   .     A
C508   C510    1.454   .     S
C509   C513    1.408   .     A
C509   C515    1.409   .     A
C510   C514    1.398   .     A
C510   C516    1.401   .     A
C511   C519    1.409   .     A
C511   H525    1.081   .     S
C511   C513    1.400   .     A
C512   C514    1.390   .     A
C512   C520    1.407   .     A
C512   H526    1.080   .     S
C513   H524    1.083   .     S
C514   H523    1.080   .     S
C515   C517    1.397   .     A
C515   S560    1.787   .     S
C516   S555    1.790   .     S
C516   C518    1.410   .     A
C517   C519    1.411   .     A
C517   C521    1.402   .     A
C518   C522    1.410   .     A
C518   C520    1.425   .     A
C519   C1377   1.412   .     S
C520   C1378   1.415   1_554 S
C521   C1404   1.393   .     S
C522   C1403   1.393   1_554 S
N533   Zn543   2.030   .     S
N534   Zn544   2.030   .     S
O535   Zn543   1.996   .     S
O536   Zn544   1.996   .     S
O537   Zn544   1.980   .     S
O538   Zn543   1.980   .     S
O539   Zn543   1.958   .     S
O540   Zn544   1.958   .     S
O541   Zn544   1.921   .     S
O542   Zn543   1.921   .     S
S545   O546    1.503   .     D
S545   O548    1.683   .     S
O547   S349    1.498   1_655 S
O548   H549    0.990   .     S
S550   O553    1.683   .     S
S550   O552    1.504   .     D
S550   O551    1.503   .     D
O553   H554    0.990   .     S
S555   O557    1.499   .     D
S555   O558    1.683   .     S
S555   O556    1.504   .     D
O558   H559    0.990   .     S
S560   O561    1.503   .     D
S560   O563    1.684   .     S
S560   O562    1.503   .     D
O563   H564    0.990   .     S
S565   O566    1.496   .     D
S565   O567    1.504   .     D
S565   O568    1.680   .     S
O568   H569    0.991   .     S
S570   O573    1.680   .     S
S570   O572    1.504   .     D
S570   O571    1.503   .     D
O573   H574    0.990   .     S
C575   H581    1.089   .     S
C575   H580    1.111   .     S
C575   C380    1.532   1_655 S
C576   H578    1.108   .     S
C576   H577    1.107   .     S
C576   H579    1.110   .     S
C582   C583    1.530   .     S
C582   H588    1.095   .     S
C583   H584    1.110   .     S
C583   H586    1.108   .     S
H585   C387    1.109   1_655 S
H587   C386    1.112   1_655 S
C589   C600    1.415   .     S
C589   O635    1.282   .     A
C589   O633    1.298   .     A
C590   O634    1.292   .     A
C590   C599    1.411   .     S
C590   O636    1.286   .     A
C591   C593    1.402   .     A
C591   C620    1.409   .     A
C591   H625    1.079   .     S
C592   C594    1.396   .     A
C592   H626    1.082   .     S
C592   C619    1.406   .     A
C593   S643    1.767   .     S
C593   C1499   1.412   1_554 S
C594   S648    1.772   .     S
C594   C1500   1.415   .     S
C595   C600    1.412   .     A
C595   S663    1.773   .     S
C595   C9      1.374   1_565 S
C596   C599    1.405   .     A
C596   S668    1.773   .     S
C597   H627    1.084   .     S
C597   C599    1.389   .     A
C598   H628    1.082   .     S
C598   C600    1.392   .     A
C598   C8      1.377   1_565 S
C601   C673    1.514   .     S
C601   N632    1.393   .     A
C601   C701    1.424   .     S
C602   C680    1.507   .     S
C602   N631    1.389   .     A
C602   C800    1.419   1_455 S
C603   H629    1.080   .     S
C603   N631    1.353   .     A
C603   C797    1.424   1_455 S
C604   N632    1.351   .     A
C604   H630    1.077   .     S
C604   C700    1.419   .     S
C605   O639    1.301   .     A
C605   O637    1.308   .     A
C605   C607    1.475   .     S
C606   O640    1.294   .     A
C606   O638    1.305   .     A
C606   C608    1.454   .     S
C607   C611    1.408   .     A
C607   C613    1.409   .     A
C608   C612    1.398   .     A
C608   C614    1.401   .     A
C609   C617    1.409   .     A
C609   H623    1.081   .     S
C609   C611    1.400   .     A
C610   C612    1.390   .     A
C610   C618    1.407   .     A
C610   H624    1.080   .     S
C611   H622    1.083   .     S
C612   H621    1.080   .     S
C613   C615    1.397   .     A
C613   S658    1.787   .     S
C614   S653    1.790   .     S
C614   C616    1.410   .     A
C615   C617    1.411   .     A
C615   C619    1.402   .     A
C616   C620    1.410   .     A
C616   C618    1.425   .     A
C617   C1475   1.412   .     S
C618   C1476   1.415   1_554 S
C619   C1502   1.393   .     S
C620   C1501   1.393   1_554 S
N631   Zn641   2.030   .     S
N632   Zn642   2.030   .     S
O633   Zn641   1.996   .     S
O634   Zn642   1.996   .     S
O635   Zn642   1.980   .     S
O636   Zn641   1.980   .     S
O637   Zn641   1.958   .     S
O638   Zn642   1.958   .     S
O639   Zn642   1.921   .     S
O640   Zn641   1.921   .     S
S643   O644    1.503   .     D
S643   O646    1.683   .     S
S643   O841    1.498   1_455 S
O645   S741    1.498   .     S
O646   H647    0.990   .     S
S648   O651    1.683   .     S
S648   O650    1.504   .     D
S648   O649    1.503   .     D
O651   H652    0.990   .     S
S653   O655    1.499   .     D
S653   O656    1.683   .     S
S653   O654    1.504   .     D
O656   H657    0.990   .     S
S658   O659    1.503   .     D
S658   O661    1.684   .     S
S658   O660    1.503   .     D
O661   H662    0.990   .     S
S663   O664    1.496   .     D
S663   O665    1.504   .     D
S663   O666    1.680   .     S
O666   H667    0.991   .     S
S668   O671    1.680   .     S
S668   O670    1.504   .     D
S668   O669    1.503   .     D
O671   H672    0.990   .     S
C673   H679    1.089   .     S
C673   H678    1.111   .     S
C673   C772    1.532   .     S
C674   H676    1.108   .     S
C674   H675    1.107   .     S
C674   H677    1.110   .     S
C674   C869    1.532   1_455 S
C680   C681    1.530   .     S
C680   H686    1.095   .     S
C680   H881    1.112   1_455 S
C681   H682    1.110   .     S
C681   H684    1.108   .     S
C681   H879    1.109   1_455 S
H683   C779    1.109   .     S
H685   C778    1.112   .     S
C687   C698    1.415   .     S
C687   O733    1.282   .     A
C687   O731    1.298   .     A
C688   O732    1.292   .     A
C688   C697    1.411   .     S
C688   O734    1.286   .     A
C689   C691    1.402   .     A
C689   C718    1.409   .     A
C689   H723    1.079   .     S
C690   C692    1.396   .     A
C690   H724    1.082   .     S
C690   C717    1.406   .     A
C691   S741    1.767   .     S
C691   C1597   1.412   1_554 S
C692   S746    1.772   .     S
C692   C1598   1.415   .     S
C693   C698    1.412   .     A
C693   S761    1.773   .     S
C693   C107    1.374   1_565 S
C694   C697    1.405   .     A
C694   S766    1.773   .     S
C695   H725    1.084   .     S
C695   C697    1.389   .     A
C696   H726    1.082   .     S
C696   C698    1.392   .     A
C696   C106    1.377   1_565 S
C699   C771    1.514   .     S
C699   N730    1.393   .     A
C699   C799    1.424   .     S
C700   C778    1.507   .     S
C700   N729    1.389   .     A
C701   H727    1.080   .     S
C701   N729    1.353   .     A
C702   N730    1.351   .     A
C702   H728    1.077   .     S
C702   C798    1.419   .     S
C703   O737    1.301   .     A
C703   O735    1.308   .     A
C703   C705    1.475   .     S
C704   O738    1.294   .     A
C704   O736    1.305   .     A
C704   C706    1.454   .     S
C705   C709    1.408   .     A
C705   C711    1.409   .     A
C706   C710    1.398   .     A
C706   C712    1.401   .     A
C707   C715    1.409   .     A
C707   H721    1.081   .     S
C707   C709    1.400   .     A
C708   C710    1.390   .     A
C708   C716    1.407   .     A
C708   H722    1.080   .     S
C709   H720    1.083   .     S
C710   H719    1.080   .     S
C711   C713    1.397   .     A
C711   S756    1.787   .     S
C712   S751    1.790   .     S
C712   C714    1.410   .     A
C713   C715    1.411   .     A
C713   C717    1.402   .     A
C714   C718    1.410   .     A
C714   C716    1.425   .     A
C715   C1573   1.412   .     S
C716   C1574   1.415   1_554 S
C717   C1600   1.393   .     S
C718   C1599   1.393   1_554 S
N729   Zn739   2.030   .     S
N730   Zn740   2.030   .     S
O731   Zn739   1.996   .     S
O732   Zn740   1.996   .     S
O733   Zn740   1.980   .     S
O734   Zn739   1.980   .     S
O735   Zn739   1.958   .     S
O736   Zn740   1.958   .     S
O737   Zn740   1.921   .     S
O738   Zn739   1.921   .     S
S741   O742    1.503   .     D
S741   O744    1.683   .     S
O743   S839    1.498   .     S
O744   H745    0.990   .     S
S746   O749    1.683   .     S
S746   O748    1.504   .     D
S746   O747    1.503   .     D
O749   H750    0.990   .     S
S751   O753    1.499   .     D
S751   O754    1.683   .     S
S751   O752    1.504   .     D
O754   H755    0.990   .     S
S756   O757    1.503   .     D
S756   O759    1.684   .     S
S756   O758    1.503   .     D
O759   H760    0.990   .     S
S761   O762    1.496   .     D
S761   O763    1.504   .     D
S761   O764    1.680   .     S
O764   H765    0.991   .     S
S766   O769    1.680   .     S
S766   O768    1.504   .     D
S766   O767    1.503   .     D
O769   H770    0.990   .     S
C771   H777    1.089   .     S
C771   H776    1.111   .     S
C771   C870    1.532   .     S
C772   H774    1.108   .     S
C772   H773    1.107   .     S
C772   H775    1.110   .     S
C778   C779    1.530   .     S
C778   H784    1.095   .     S
C779   H780    1.110   .     S
C779   H782    1.108   .     S
H781   C877    1.109   .     S
H783   C876    1.112   .     S
C785   C796    1.415   .     S
C785   O831    1.282   .     A
C785   O829    1.298   .     A
C786   O830    1.292   .     A
C786   C795    1.411   .     S
C786   O832    1.286   .     A
C787   C789    1.402   .     A
C787   C816    1.409   .     A
C787   H821    1.079   .     S
C788   C790    1.396   .     A
C788   H822    1.082   .     S
C788   C815    1.406   .     A
C789   S839    1.767   .     S
C789   C1695   1.412   1_554 S
C790   S844    1.772   .     S
C790   C1696   1.415   .     S
C791   C796    1.412   .     A
C791   S859    1.773   .     S
C791   C205    1.374   1_565 S
C792   C795    1.405   .     A
C792   S864    1.773   .     S
C793   H823    1.084   .     S
C793   C795    1.389   .     A
C794   H824    1.082   .     S
C794   C796    1.392   .     A
C794   C204    1.377   1_565 S
C797   C869    1.514   .     S
C797   N828    1.393   .     A
C797   C603    1.424   1_655 S
C798   C876    1.507   .     S
C798   N827    1.389   .     A
C799   H825    1.080   .     S
C799   N827    1.353   .     A
C800   N828    1.351   .     A
C800   H826    1.077   .     S
C800   C602    1.419   1_655 S
C801   O835    1.301   .     A
C801   O833    1.308   .     A
C801   C803    1.475   .     S
C802   O836    1.294   .     A
C802   O834    1.305   .     A
C802   C804    1.454   .     S
C803   C807    1.408   .     A
C803   C809    1.409   .     A
C804   C808    1.398   .     A
C804   C810    1.401   .     A
C805   C813    1.409   .     A
C805   H819    1.081   .     S
C805   C807    1.400   .     A
C806   C808    1.390   .     A
C806   C814    1.407   .     A
C806   H820    1.080   .     S
C807   H818    1.083   .     S
C808   H817    1.080   .     S
C809   C811    1.397   .     A
C809   S854    1.787   .     S
C810   S849    1.790   .     S
C810   C812    1.410   .     A
C811   C813    1.411   .     A
C811   C815    1.402   .     A
C812   C816    1.410   .     A
C812   C814    1.425   .     A
C813   C1671   1.412   .     S
C814   C1672   1.415   1_554 S
C815   C1698   1.393   .     S
C816   C1697   1.393   1_554 S
N827   Zn837   2.030   .     S
N828   Zn838   2.030   .     S
O829   Zn837   1.996   .     S
O830   Zn838   1.996   .     S
O831   Zn838   1.980   .     S
O832   Zn837   1.980   .     S
O833   Zn837   1.958   .     S
O834   Zn838   1.958   .     S
O835   Zn838   1.921   .     S
O836   Zn837   1.921   .     S
S839   O840    1.503   .     D
S839   O842    1.683   .     S
O841   S643    1.498   1_655 S
O842   H843    0.990   .     S
S844   O847    1.683   .     S
S844   O846    1.504   .     D
S844   O845    1.503   .     D
O847   H848    0.990   .     S
S849   O851    1.499   .     D
S849   O852    1.683   .     S
S849   O850    1.504   .     D
O852   H853    0.990   .     S
S854   O855    1.503   .     D
S854   O857    1.684   .     S
S854   O856    1.503   .     D
O857   H858    0.990   .     S
S859   O860    1.496   .     D
S859   O861    1.504   .     D
S859   O862    1.680   .     S
O862   H863    0.991   .     S
S864   O867    1.680   .     S
S864   O866    1.504   .     D
S864   O865    1.503   .     D
O867   H868    0.990   .     S
C869   H875    1.089   .     S
C869   H874    1.111   .     S
C869   C674    1.532   1_655 S
C870   H872    1.108   .     S
C870   H871    1.107   .     S
C870   H873    1.110   .     S
C876   C877    1.530   .     S
C876   H882    1.095   .     S
C877   H878    1.110   .     S
C877   H880    1.108   .     S
H879   C681    1.109   1_655 S
H881   C680    1.112   1_655 S
C883   C894    1.415   .     S
C883   O929    1.282   .     A
C883   O927    1.298   .     A
C884   O928    1.292   .     A
C884   C893    1.411   .     S
C884   O930    1.286   .     A
C885   C887    1.402   .     A
C885   C914    1.409   .     A
C885   H919    1.079   .     S
C886   C888    1.396   .     A
C886   H920    1.082   .     S
C886   C913    1.406   .     A
C887   S937    1.767   .     S
C888   S942    1.772   .     S
C888   C30     1.415   1_556 S
C889   C894    1.412   .     A
C889   S957    1.773   .     S
C889   C1185   1.374   .     S
C890   C893    1.405   .     A
C890   S962    1.773   .     S
C890   C1480   1.377   1_545 S
C891   H921    1.084   .     S
C891   C893    1.389   .     A
C891   C1477   1.374   1_545 S
C892   H922    1.082   .     S
C892   C894    1.392   .     A
C892   C1184   1.377   .     S
C895   C967    1.514   .     S
C895   N926    1.393   .     A
C895   C995    1.424   .     S
C896   C974    1.507   .     S
C896   N925    1.389   .     A
C896   C1094   1.419   1_455 S
C897   H923    1.080   .     S
C897   N925    1.353   .     A
C897   C1091   1.424   1_455 S
C898   N926    1.351   .     A
C898   H924    1.077   .     S
C898   C994    1.419   .     S
C899   O933    1.301   .     A
C899   O931    1.308   .     A
C899   C901    1.475   .     S
C900   O934    1.294   .     A
C900   O932    1.305   .     A
C900   C902    1.454   .     S
C901   C905    1.408   .     A
C901   C907    1.409   .     A
C902   C906    1.398   .     A
C902   C908    1.401   .     A
C903   C911    1.409   .     A
C903   H917    1.081   .     S
C903   C905    1.400   .     A
C904   C906    1.390   .     A
C904   C912    1.407   .     A
C904   H918    1.080   .     S
C905   H916    1.083   .     S
C906   H915    1.080   .     S
C907   C909    1.397   .     A
C907   S952    1.787   .     S
C908   S947    1.790   .     S
C908   C910    1.410   .     A
C909   C911    1.411   .     A
C909   C913    1.402   .     A
C910   C914    1.410   .     A
C910   C912    1.425   .     A
C911   C5      1.412   1_556 S
C913   C32     1.393   1_556 S
N925   Zn935   2.030   .     S
N926   Zn936   2.030   .     S
O927   Zn935   1.996   .     S
O928   Zn936   1.996   .     S
O929   Zn936   1.980   .     S
O930   Zn935   1.980   .     S
O931   Zn935   1.958   .     S
O932   Zn936   1.958   .     S
O933   Zn936   1.921   .     S
O934   Zn935   1.921   .     S
S937   O938    1.503   .     D
S937   O940    1.683   .     S
S937   O1135   1.498   1_455 S
O939   S1035   1.498   .     S
O940   H941    0.990   .     S
S942   O945    1.683   .     S
S942   O944    1.504   .     D
S942   O943    1.503   .     D
O945   H946    0.990   .     S
S947   O949    1.499   .     D
S947   O950    1.683   .     S
S947   O948    1.504   .     D
O950   H951    0.990   .     S
S952   O953    1.503   .     D
S952   O955    1.684   .     S
S952   O954    1.503   .     D
O955   H956    0.990   .     S
S957   O958    1.496   .     D
S957   O959    1.504   .     D
S957   O960    1.680   .     S
O960   H961    0.991   .     S
S962   O965    1.680   .     S
S962   O964    1.504   .     D
S962   O963    1.503   .     D
O965   H966    0.990   .     S
C967   H973    1.089   .     S
C967   H972    1.111   .     S
C967   C1066   1.532   .     S
C968   H970    1.108   .     S
C968   H969    1.107   .     S
C968   H971    1.110   .     S
C968   C1163   1.532   1_455 S
C974   C975    1.530   .     S
C974   H980    1.095   .     S
C974   H1175   1.112   1_455 S
C975   H976    1.110   .     S
C975   H978    1.108   .     S
C975   H1173   1.109   1_455 S
H977   C1073   1.109   .     S
H979   C1072   1.112   .     S
C981   C992    1.415   .     S
C981   O1027   1.282   .     A
C981   O1025   1.298   .     A
C982   O1026   1.292   .     A
C982   C991    1.411   .     S
C982   O1028   1.286   .     A
C983   C985    1.402   .     A
C983   C1012   1.409   .     A
C983   H1017   1.079   .     S
C984   C986    1.396   .     A
C984   H1018   1.082   .     S
C984   C1011   1.406   .     A
C985   S1035   1.767   .     S
C986   S1040   1.772   .     S
C986   C128    1.415   1_556 S
C987   C992    1.412   .     A
C987   S1055   1.773   .     S
C987   C1283   1.374   .     S
C988   C991    1.405   .     A
C988   S1060   1.773   .     S
C988   C1578   1.377   1_545 S
C989   H1019   1.084   .     S
C989   C991    1.389   .     A
C989   C1575   1.374   1_545 S
C990   H1020   1.082   .     S
C990   C992    1.392   .     A
C990   C1282   1.377   .     S
C993   C1065   1.514   .     S
C993   N1024   1.393   .     A
C993   C1093   1.424   .     S
C994   C1072   1.507   .     S
C994   N1023   1.389   .     A
C995   H1021   1.080   .     S
C995   N1023   1.353   .     A
C996   N1024   1.351   .     A
C996   H1022   1.077   .     S
C996   C1092   1.419   .     S
C997   O1031   1.301   .     A
C997   O1029   1.308   .     A
C997   C999    1.475   .     S
C998   O1032   1.294   .     A
C998   O1030   1.305   .     A
C998   C1000   1.454   .     S
C999   C1003   1.408   .     A
C999   C1005   1.409   .     A
C1000  C1004   1.398   .     A
C1000  C1006   1.401   .     A
C1001  C1009   1.409   .     A
C1001  H1015   1.081   .     S
C1001  C1003   1.400   .     A
C1002  C1004   1.390   .     A
C1002  C1010   1.407   .     A
C1002  H1016   1.080   .     S
C1003  H1014   1.083   .     S
C1004  H1013   1.080   .     S
C1005  C1007   1.397   .     A
C1005  S1050   1.787   .     S
C1006  S1045   1.790   .     S
C1006  C1008   1.410   .     A
C1007  C1009   1.411   .     A
C1007  C1011   1.402   .     A
C1008  C1012   1.410   .     A
C1008  C1010   1.425   .     A
C1009  C103    1.412   1_556 S
C1011  C130    1.393   1_556 S
N1023  Zn1033  2.030   .     S
N1024  Zn1034  2.030   .     S
O1025  Zn1033  1.996   .     S
O1026  Zn1034  1.996   .     S
O1027  Zn1034  1.980   .     S
O1028  Zn1033  1.980   .     S
O1029  Zn1033  1.958   .     S
O1030  Zn1034  1.958   .     S
O1031  Zn1034  1.921   .     S
O1032  Zn1033  1.921   .     S
S1035  O1036   1.503   .     D
S1035  O1038   1.683   .     S
O1037  S1133   1.498   .     S
O1038  H1039   0.990   .     S
S1040  O1043   1.683   .     S
S1040  O1042   1.504   .     D
S1040  O1041   1.503   .     D
O1043  H1044   0.990   .     S
S1045  O1047   1.499   .     D
S1045  O1048   1.683   .     S
S1045  O1046   1.504   .     D
O1048  H1049   0.990   .     S
S1050  O1051   1.503   .     D
S1050  O1053   1.684   .     S
S1050  O1052   1.503   .     D
O1053  H1054   0.990   .     S
S1055  O1056   1.496   .     D
S1055  O1057   1.504   .     D
S1055  O1058   1.680   .     S
O1058  H1059   0.991   .     S
S1060  O1063   1.680   .     S
S1060  O1062   1.504   .     D
S1060  O1061   1.503   .     D
O1063  H1064   0.990   .     S
C1065  H1071   1.089   .     S
C1065  H1070   1.111   .     S
C1065  C1164   1.532   .     S
C1066  H1068   1.108   .     S
C1066  H1067   1.107   .     S
C1066  H1069   1.110   .     S
C1072  C1073   1.530   .     S
C1072  H1078   1.095   .     S
C1073  H1074   1.110   .     S
C1073  H1076   1.108   .     S
H1075  C1171   1.109   .     S
H1077  C1170   1.112   .     S
C1079  C1090   1.415   .     S
C1079  O1125   1.282   .     A
C1079  O1123   1.298   .     A
C1080  O1124   1.292   .     A
C1080  C1089   1.411   .     S
C1080  O1126   1.286   .     A
C1081  C1083   1.402   .     A
C1081  C1110   1.409   .     A
C1081  H1115   1.079   .     S
C1082  C1084   1.396   .     A
C1082  H1116   1.082   .     S
C1082  C1109   1.406   .     A
C1083  S1133   1.767   .     S
C1084  S1138   1.772   .     S
C1084  C226    1.415   1_556 S
C1085  C1090   1.412   .     A
C1085  S1153   1.773   .     S
C1085  C1381   1.374   .     S
C1086  C1089   1.405   .     A
C1086  S1158   1.773   .     S
C1086  C1676   1.377   1_545 S
C1087  H1117   1.084   .     S
C1087  C1089   1.389   .     A
C1087  C1673   1.374   1_545 S
C1088  H1118   1.082   .     S
C1088  C1090   1.392   .     A
C1088  C1380   1.377   .     S
C1091  C1163   1.514   .     S
C1091  N1122   1.393   .     A
C1091  C897    1.424   1_655 S
C1092  C1170   1.507   .     S
C1092  N1121   1.389   .     A
C1093  H1119   1.080   .     S
C1093  N1121   1.353   .     A
C1094  N1122   1.351   .     A
C1094  H1120   1.077   .     S
C1094  C896    1.419   1_655 S
C1095  O1129   1.301   .     A
C1095  O1127   1.308   .     A
C1095  C1097   1.475   .     S
C1096  O1130   1.294   .     A
C1096  O1128   1.305   .     A
C1096  C1098   1.454   .     S
C1097  C1101   1.408   .     A
C1097  C1103   1.409   .     A
C1098  C1102   1.398   .     A
C1098  C1104   1.401   .     A
C1099  C1107   1.409   .     A
C1099  H1113   1.081   .     S
C1099  C1101   1.400   .     A
C1100  C1102   1.390   .     A
C1100  C1108   1.407   .     A
C1100  H1114   1.080   .     S
C1101  H1112   1.083   .     S
C1102  H1111   1.080   .     S
C1103  C1105   1.397   .     A
C1103  S1148   1.787   .     S
C1104  S1143   1.790   .     S
C1104  C1106   1.410   .     A
C1105  C1107   1.411   .     A
C1105  C1109   1.402   .     A
C1106  C1110   1.410   .     A
C1106  C1108   1.425   .     A
C1107  C201    1.412   1_556 S
C1109  C228    1.393   1_556 S
N1121  Zn1131  2.030   .     S
N1122  Zn1132  2.030   .     S
O1123  Zn1131  1.996   .     S
O1124  Zn1132  1.996   .     S
O1125  Zn1132  1.980   .     S
O1126  Zn1131  1.980   .     S
O1127  Zn1131  1.958   .     S
O1128  Zn1132  1.958   .     S
O1129  Zn1132  1.921   .     S
O1130  Zn1131  1.921   .     S
S1133  O1134   1.503   .     D
S1133  O1136   1.683   .     S
O1135  S937    1.498   1_655 S
O1136  H1137   0.990   .     S
S1138  O1141   1.683   .     S
S1138  O1140   1.504   .     D
S1138  O1139   1.503   .     D
O1141  H1142   0.990   .     S
S1143  O1145   1.499   .     D
S1143  O1146   1.683   .     S
S1143  O1144   1.504   .     D
O1146  H1147   0.990   .     S
S1148  O1149   1.503   .     D
S1148  O1151   1.684   .     S
S1148  O1150   1.503   .     D
O1151  H1152   0.990   .     S
S1153  O1154   1.496   .     D
S1153  O1155   1.504   .     D
S1153  O1156   1.680   .     S
O1156  H1157   0.991   .     S
S1158  O1161   1.680   .     S
S1158  O1160   1.504   .     D
S1158  O1159   1.503   .     D
O1161  H1162   0.990   .     S
C1163  H1169   1.089   .     S
C1163  H1168   1.111   .     S
C1163  C968    1.532   1_655 S
C1164  H1166   1.108   .     S
C1164  H1165   1.107   .     S
C1164  H1167   1.110   .     S
C1170  C1171   1.530   .     S
C1170  H1176   1.095   .     S
C1171  H1172   1.110   .     S
C1171  H1174   1.108   .     S
H1173  C975    1.109   1_655 S
H1175  C974    1.112   1_655 S
C1177  C1188   1.415   .     S
C1177  O1223   1.282   .     A
C1177  O1221   1.298   .     A
C1178  O1222   1.292   .     A
C1178  C1187   1.411   .     S
C1178  O1224   1.286   .     A
C1179  C1181   1.402   .     A
C1179  C1208   1.409   .     A
C1179  H1213   1.079   .     S
C1180  C1182   1.396   .     A
C1180  H1214   1.082   .     S
C1180  C1207   1.406   .     A
C1181  S1231   1.767   .     S
C1182  S1236   1.772   .     S
C1182  C324    1.415   1_556 S
C1183  C1188   1.412   .     A
C1183  S1251   1.773   .     S
C1183  C1479   1.374   .     S
C1184  C1187   1.405   .     A
C1184  S1256   1.773   .     S
C1185  H1215   1.084   .     S
C1185  C1187   1.389   .     A
C1186  H1216   1.082   .     S
C1186  C1188   1.392   .     A
C1186  C1478   1.377   .     S
C1189  C1261   1.514   .     S
C1189  N1220   1.393   .     A
C1189  C1289   1.424   .     S
C1190  C1268   1.507   .     S
C1190  N1219   1.389   .     A
C1190  C1388   1.419   1_455 S
C1191  H1217   1.080   .     S
C1191  N1219   1.353   .     A
C1191  C1385   1.424   1_455 S
C1192  N1220   1.351   .     A
C1192  H1218   1.077   .     S
C1192  C1288   1.419   .     S
C1193  O1227   1.301   .     A
C1193  O1225   1.308   .     A
C1193  C1195   1.475   .     S
C1194  O1228   1.294   .     A
C1194  O1226   1.305   .     A
C1194  C1196   1.454   .     S
C1195  C1199   1.408   .     A
C1195  C1201   1.409   .     A
C1196  C1200   1.398   .     A
C1196  C1202   1.401   .     A
C1197  C1205   1.409   .     A
C1197  H1211   1.081   .     S
C1197  C1199   1.400   .     A
C1198  C1200   1.390   .     A
C1198  C1206   1.407   .     A
C1198  H1212   1.080   .     S
C1199  H1210   1.083   .     S
C1200  H1209   1.080   .     S
C1201  C1203   1.397   .     A
C1201  S1246   1.787   .     S
C1202  S1241   1.790   .     S
C1202  C1204   1.410   .     A
C1203  C1205   1.411   .     A
C1203  C1207   1.402   .     A
C1204  C1208   1.410   .     A
C1204  C1206   1.425   .     A
C1205  C299    1.412   1_556 S
C1207  C326    1.393   1_556 S
N1219  Zn1229  2.030   .     S
N1220  Zn1230  2.030   .     S
O1221  Zn1229  1.996   .     S
O1222  Zn1230  1.996   .     S
O1223  Zn1230  1.980   .     S
O1224  Zn1229  1.980   .     S
O1225  Zn1229  1.958   .     S
O1226  Zn1230  1.958   .     S
O1227  Zn1230  1.921   .     S
O1228  Zn1229  1.921   .     S
S1231  O1232   1.503   .     D
S1231  O1234   1.683   .     S
S1231  O1429   1.498   1_455 S
O1233  S1329   1.498   .     S
O1234  H1235   0.990   .     S
S1236  O1239   1.683   .     S
S1236  O1238   1.504   .     D
S1236  O1237   1.503   .     D
O1239  H1240   0.990   .     S
S1241  O1243   1.499   .     D
S1241  O1244   1.683   .     S
S1241  O1242   1.504   .     D
O1244  H1245   0.990   .     S
S1246  O1247   1.503   .     D
S1246  O1249   1.684   .     S
S1246  O1248   1.503   .     D
O1249  H1250   0.990   .     S
S1251  O1252   1.496   .     D
S1251  O1253   1.504   .     D
S1251  O1254   1.680   .     S
O1254  H1255   0.991   .     S
S1256  O1259   1.680   .     S
S1256  O1258   1.504   .     D
S1256  O1257   1.503   .     D
O1259  H1260   0.990   .     S
C1261  H1267   1.089   .     S
C1261  H1266   1.111   .     S
C1261  C1360   1.532   .     S
C1262  H1264   1.108   .     S
C1262  H1263   1.107   .     S
C1262  H1265   1.110   .     S
C1262  C1457   1.532   1_455 S
C1268  C1269   1.530   .     S
C1268  H1274   1.095   .     S
C1268  H1469   1.112   1_455 S
C1269  H1270   1.110   .     S
C1269  H1272   1.108   .     S
C1269  H1467   1.109   1_455 S
H1271  C1367   1.109   .     S
H1273  C1366   1.112   .     S
C1275  C1286   1.415   .     S
C1275  O1321   1.282   .     A
C1275  O1319   1.298   .     A
C1276  O1320   1.292   .     A
C1276  C1285   1.411   .     S
C1276  O1322   1.286   .     A
C1277  C1279   1.402   .     A
C1277  C1306   1.409   .     A
C1277  H1311   1.079   .     S
C1278  C1280   1.396   .     A
C1278  H1312   1.082   .     S
C1278  C1305   1.406   .     A
C1279  S1329   1.767   .     S
C1280  S1334   1.772   .     S
C1280  C422    1.415   1_556 S
C1281  C1286   1.412   .     A
C1281  S1349   1.773   .     S
C1281  C1577   1.374   .     S
C1282  C1285   1.405   .     A
C1282  S1354   1.773   .     S
C1283  H1313   1.084   .     S
C1283  C1285   1.389   .     A
C1284  H1314   1.082   .     S
C1284  C1286   1.392   .     A
C1284  C1576   1.377   .     S
C1287  C1359   1.514   .     S
C1287  N1318   1.393   .     A
C1287  C1387   1.424   .     S
C1288  C1366   1.507   .     S
C1288  N1317   1.389   .     A
C1289  H1315   1.080   .     S
C1289  N1317   1.353   .     A
C1290  N1318   1.351   .     A
C1290  H1316   1.077   .     S
C1290  C1386   1.419   .     S
C1291  O1325   1.301   .     A
C1291  O1323   1.308   .     A
C1291  C1293   1.475   .     S
C1292  O1326   1.294   .     A
C1292  O1324   1.305   .     A
C1292  C1294   1.454   .     S
C1293  C1297   1.408   .     A
C1293  C1299   1.409   .     A
C1294  C1298   1.398   .     A
C1294  C1300   1.401   .     A
C1295  C1303   1.409   .     A
C1295  H1309   1.081   .     S
C1295  C1297   1.400   .     A
C1296  C1298   1.390   .     A
C1296  C1304   1.407   .     A
C1296  H1310   1.080   .     S
C1297  H1308   1.083   .     S
C1298  H1307   1.080   .     S
C1299  C1301   1.397   .     A
C1299  S1344   1.787   .     S
C1300  S1339   1.790   .     S
C1300  C1302   1.410   .     A
C1301  C1303   1.411   .     A
C1301  C1305   1.402   .     A
C1302  C1306   1.410   .     A
C1302  C1304   1.425   .     A
C1303  C397    1.412   1_556 S
C1305  C424    1.393   1_556 S
N1317  Zn1327  2.030   .     S
N1318  Zn1328  2.030   .     S
O1319  Zn1327  1.996   .     S
O1320  Zn1328  1.996   .     S
O1321  Zn1328  1.980   .     S
O1322  Zn1327  1.980   .     S
O1323  Zn1327  1.958   .     S
O1324  Zn1328  1.958   .     S
O1325  Zn1328  1.921   .     S
O1326  Zn1327  1.921   .     S
S1329  O1330   1.503   .     D
S1329  O1332   1.683   .     S
O1331  S1427   1.498   .     S
O1332  H1333   0.990   .     S
S1334  O1337   1.683   .     S
S1334  O1336   1.504   .     D
S1334  O1335   1.503   .     D
O1337  H1338   0.990   .     S
S1339  O1341   1.499   .     D
S1339  O1342   1.683   .     S
S1339  O1340   1.504   .     D
O1342  H1343   0.990   .     S
S1344  O1345   1.503   .     D
S1344  O1347   1.684   .     S
S1344  O1346   1.503   .     D
O1347  H1348   0.990   .     S
S1349  O1350   1.496   .     D
S1349  O1351   1.504   .     D
S1349  O1352   1.680   .     S
O1352  H1353   0.991   .     S
S1354  O1357   1.680   .     S
S1354  O1356   1.504   .     D
S1354  O1355   1.503   .     D
O1357  H1358   0.990   .     S
C1359  H1365   1.089   .     S
C1359  H1364   1.111   .     S
C1359  C1458   1.532   .     S
C1360  H1362   1.108   .     S
C1360  H1361   1.107   .     S
C1360  H1363   1.110   .     S
C1366  C1367   1.530   .     S
C1366  H1372   1.095   .     S
C1367  H1368   1.110   .     S
C1367  H1370   1.108   .     S
H1369  C1465   1.109   .     S
H1371  C1464   1.112   .     S
C1373  C1384   1.415   .     S
C1373  O1419   1.282   .     A
C1373  O1417   1.298   .     A
C1374  O1418   1.292   .     A
C1374  C1383   1.411   .     S
C1374  O1420   1.286   .     A
C1375  C1377   1.402   .     A
C1375  C1404   1.409   .     A
C1375  H1409   1.079   .     S
C1376  C1378   1.396   .     A
C1376  H1410   1.082   .     S
C1376  C1403   1.406   .     A
C1377  S1427   1.767   .     S
C1378  S1432   1.772   .     S
C1378  C520    1.415   1_556 S
C1379  C1384   1.412   .     A
C1379  S1447   1.773   .     S
C1379  C1675   1.374   .     S
C1380  C1383   1.405   .     A
C1380  S1452   1.773   .     S
C1381  H1411   1.084   .     S
C1381  C1383   1.389   .     A
C1382  H1412   1.082   .     S
C1382  C1384   1.392   .     A
C1382  C1674   1.377   .     S
C1385  C1457   1.514   .     S
C1385  N1416   1.393   .     A
C1385  C1191   1.424   1_655 S
C1386  C1464   1.507   .     S
C1386  N1415   1.389   .     A
C1387  H1413   1.080   .     S
C1387  N1415   1.353   .     A
C1388  N1416   1.351   .     A
C1388  H1414   1.077   .     S
C1388  C1190   1.419   1_655 S
C1389  O1423   1.301   .     A
C1389  O1421   1.308   .     A
C1389  C1391   1.475   .     S
C1390  O1424   1.294   .     A
C1390  O1422   1.305   .     A
C1390  C1392   1.454   .     S
C1391  C1395   1.408   .     A
C1391  C1397   1.409   .     A
C1392  C1396   1.398   .     A
C1392  C1398   1.401   .     A
C1393  C1401   1.409   .     A
C1393  H1407   1.081   .     S
C1393  C1395   1.400   .     A
C1394  C1396   1.390   .     A
C1394  C1402   1.407   .     A
C1394  H1408   1.080   .     S
C1395  H1406   1.083   .     S
C1396  H1405   1.080   .     S
C1397  C1399   1.397   .     A
C1397  S1442   1.787   .     S
C1398  S1437   1.790   .     S
C1398  C1400   1.410   .     A
C1399  C1401   1.411   .     A
C1399  C1403   1.402   .     A
C1400  C1404   1.410   .     A
C1400  C1402   1.425   .     A
C1401  C495    1.412   1_556 S
C1403  C522    1.393   1_556 S
N1415  Zn1425  2.030   .     S
N1416  Zn1426  2.030   .     S
O1417  Zn1425  1.996   .     S
O1418  Zn1426  1.996   .     S
O1419  Zn1426  1.980   .     S
O1420  Zn1425  1.980   .     S
O1421  Zn1425  1.958   .     S
O1422  Zn1426  1.958   .     S
O1423  Zn1426  1.921   .     S
O1424  Zn1425  1.921   .     S
S1427  O1428   1.503   .     D
S1427  O1430   1.683   .     S
O1429  S1231   1.498   1_655 S
O1430  H1431   0.990   .     S
S1432  O1435   1.683   .     S
S1432  O1434   1.504   .     D
S1432  O1433   1.503   .     D
O1435  H1436   0.990   .     S
S1437  O1439   1.499   .     D
S1437  O1440   1.683   .     S
S1437  O1438   1.504   .     D
O1440  H1441   0.990   .     S
S1442  O1443   1.503   .     D
S1442  O1445   1.684   .     S
S1442  O1444   1.503   .     D
O1445  H1446   0.990   .     S
S1447  O1448   1.496   .     D
S1447  O1449   1.504   .     D
S1447  O1450   1.680   .     S
O1450  H1451   0.991   .     S
S1452  O1455   1.680   .     S
S1452  O1454   1.504   .     D
S1452  O1453   1.503   .     D
O1455  H1456   0.990   .     S
C1457  H1463   1.089   .     S
C1457  H1462   1.111   .     S
C1457  C1262   1.532   1_655 S
C1458  H1460   1.108   .     S
C1458  H1459   1.107   .     S
C1458  H1461   1.110   .     S
C1464  C1465   1.530   .     S
C1464  H1470   1.095   .     S
C1465  H1466   1.110   .     S
C1465  H1468   1.108   .     S
H1467  C1269   1.109   1_655 S
H1469  C1268   1.112   1_655 S
C1471  C1482   1.415   .     S
C1471  O1517   1.282   .     A
C1471  O1515   1.298   .     A
C1472  O1516   1.292   .     A
C1472  C1481   1.411   .     S
C1472  O1518   1.286   .     A
C1473  C1475   1.402   .     A
C1473  C1502   1.409   .     A
C1473  H1507   1.079   .     S
C1474  C1476   1.396   .     A
C1474  H1508   1.082   .     S
C1474  C1501   1.406   .     A
C1475  S1525   1.767   .     S
C1476  S1530   1.772   .     S
C1476  C618    1.415   1_556 S
C1477  C1482   1.412   .     A
C1477  S1545   1.773   .     S
C1477  C891    1.374   1_565 S
C1478  C1481   1.405   .     A
C1478  S1550   1.773   .     S
C1479  H1509   1.084   .     S
C1479  C1481   1.389   .     A
C1480  H1510   1.082   .     S
C1480  C1482   1.392   .     A
C1480  C890    1.377   1_565 S
C1483  C1555   1.514   .     S
C1483  N1514   1.393   .     A
C1483  C1583   1.424   .     S
C1484  C1562   1.507   .     S
C1484  N1513   1.389   .     A
C1484  C1682   1.419   1_455 S
C1485  H1511   1.080   .     S
C1485  N1513   1.353   .     A
C1485  C1679   1.424   1_455 S
C1486  N1514   1.351   .     A
C1486  H1512   1.077   .     S
C1486  C1582   1.419   .     S
C1487  O1521   1.301   .     A
C1487  O1519   1.308   .     A
C1487  C1489   1.475   .     S
C1488  O1522   1.294   .     A
C1488  O1520   1.305   .     A
C1488  C1490   1.454   .     S
C1489  C1493   1.408   .     A
C1489  C1495   1.409   .     A
C1490  C1494   1.398   .     A
C1490  C1496   1.401   .     A
C1491  C1499   1.409   .     A
C1491  H1505   1.081   .     S
C1491  C1493   1.400   .     A
C1492  C1494   1.390   .     A
C1492  C1500   1.407   .     A
C1492  H1506   1.080   .     S
C1493  H1504   1.083   .     S
C1494  H1503   1.080   .     S
C1495  C1497   1.397   .     A
C1495  S1540   1.787   .     S
C1496  S1535   1.790   .     S
C1496  C1498   1.410   .     A
C1497  C1499   1.411   .     A
C1497  C1501   1.402   .     A
C1498  C1502   1.410   .     A
C1498  C1500   1.425   .     A
C1499  C593    1.412   1_556 S
C1501  C620    1.393   1_556 S
N1513  Zn1523  2.030   .     S
N1514  Zn1524  2.030   .     S
O1515  Zn1523  1.996   .     S
O1516  Zn1524  1.996   .     S
O1517  Zn1524  1.980   .     S
O1518  Zn1523  1.980   .     S
O1519  Zn1523  1.958   .     S
O1520  Zn1524  1.958   .     S
O1521  Zn1524  1.921   .     S
O1522  Zn1523  1.921   .     S
S1525  O1526   1.503   .     D
S1525  O1528   1.683   .     S
S1525  O1723   1.498   1_455 S
O1527  S1623   1.498   .     S
O1528  H1529   0.990   .     S
S1530  O1533   1.683   .     S
S1530  O1532   1.504   .     D
S1530  O1531   1.503   .     D
O1533  H1534   0.990   .     S
S1535  O1537   1.499   .     D
S1535  O1538   1.683   .     S
S1535  O1536   1.504   .     D
O1538  H1539   0.990   .     S
S1540  O1541   1.503   .     D
S1540  O1543   1.684   .     S
S1540  O1542   1.503   .     D
O1543  H1544   0.990   .     S
S1545  O1546   1.496   .     D
S1545  O1547   1.504   .     D
S1545  O1548   1.680   .     S
O1548  H1549   0.991   .     S
S1550  O1553   1.680   .     S
S1550  O1552   1.504   .     D
S1550  O1551   1.503   .     D
O1553  H1554   0.990   .     S
C1555  H1561   1.089   .     S
C1555  H1560   1.111   .     S
C1555  C1654   1.532   .     S
C1556  H1558   1.108   .     S
C1556  H1557   1.107   .     S
C1556  H1559   1.110   .     S
C1556  C1751   1.532   1_455 S
C1562  C1563   1.530   .     S
C1562  H1568   1.095   .     S
C1562  H1763   1.112   1_455 S
C1563  H1564   1.110   .     S
C1563  H1566   1.108   .     S
C1563  H1761   1.109   1_455 S
H1565  C1661   1.109   .     S
H1567  C1660   1.112   .     S
C1569  C1580   1.415   .     S
C1569  O1615   1.282   .     A
C1569  O1613   1.298   .     A
C1570  O1614   1.292   .     A
C1570  C1579   1.411   .     S
C1570  O1616   1.286   .     A
C1571  C1573   1.402   .     A
C1571  C1600   1.409   .     A
C1571  H1605   1.079   .     S
C1572  C1574   1.396   .     A
C1572  H1606   1.082   .     S
C1572  C1599   1.406   .     A
C1573  S1623   1.767   .     S
C1574  S1628   1.772   .     S
C1574  C716    1.415   1_556 S
C1575  C1580   1.412   .     A
C1575  S1643   1.773   .     S
C1575  C989    1.374   1_565 S
C1576  C1579   1.405   .     A
C1576  S1648   1.773   .     S
C1577  H1607   1.084   .     S
C1577  C1579   1.389   .     A
C1578  H1608   1.082   .     S
C1578  C1580   1.392   .     A
C1578  C988    1.377   1_565 S
C1581  C1653   1.514   .     S
C1581  N1612   1.393   .     A
C1581  C1681   1.424   .     S
C1582  C1660   1.507   .     S
C1582  N1611   1.389   .     A
C1583  H1609   1.080   .     S
C1583  N1611   1.353   .     A
C1584  N1612   1.351   .     A
C1584  H1610   1.077   .     S
C1584  C1680   1.419   .     S
C1585  O1619   1.301   .     A
C1585  O1617   1.308   .     A
C1585  C1587   1.475   .     S
C1586  O1620   1.294   .     A
C1586  O1618   1.305   .     A
C1586  C1588   1.454   .     S
C1587  C1591   1.408   .     A
C1587  C1593   1.409   .     A
C1588  C1592   1.398   .     A
C1588  C1594   1.401   .     A
C1589  C1597   1.409   .     A
C1589  H1603   1.081   .     S
C1589  C1591   1.400   .     A
C1590  C1592   1.390   .     A
C1590  C1598   1.407   .     A
C1590  H1604   1.080   .     S
C1591  H1602   1.083   .     S
C1592  H1601   1.080   .     S
C1593  C1595   1.397   .     A
C1593  S1638   1.787   .     S
C1594  S1633   1.790   .     S
C1594  C1596   1.410   .     A
C1595  C1597   1.411   .     A
C1595  C1599   1.402   .     A
C1596  C1600   1.410   .     A
C1596  C1598   1.425   .     A
C1597  C691    1.412   1_556 S
C1599  C718    1.393   1_556 S
N1611  Zn1621  2.030   .     S
N1612  Zn1622  2.030   .     S
O1613  Zn1621  1.996   .     S
O1614  Zn1622  1.996   .     S
O1615  Zn1622  1.980   .     S
O1616  Zn1621  1.980   .     S
O1617  Zn1621  1.958   .     S
O1618  Zn1622  1.958   .     S
O1619  Zn1622  1.921   .     S
O1620  Zn1621  1.921   .     S
S1623  O1624   1.503   .     D
S1623  O1626   1.683   .     S
O1625  S1721   1.498   .     S
O1626  H1627   0.990   .     S
S1628  O1631   1.683   .     S
S1628  O1630   1.504   .     D
S1628  O1629   1.503   .     D
O1631  H1632   0.990   .     S
S1633  O1635   1.499   .     D
S1633  O1636   1.683   .     S
S1633  O1634   1.504   .     D
O1636  H1637   0.990   .     S
S1638  O1639   1.503   .     D
S1638  O1641   1.684   .     S
S1638  O1640   1.503   .     D
O1641  H1642   0.990   .     S
S1643  O1644   1.496   .     D
S1643  O1645   1.504   .     D
S1643  O1646   1.680   .     S
O1646  H1647   0.991   .     S
S1648  O1651   1.680   .     S
S1648  O1650   1.504   .     D
S1648  O1649   1.503   .     D
O1651  H1652   0.990   .     S
C1653  H1659   1.089   .     S
C1653  H1658   1.111   .     S
C1653  C1752   1.532   .     S
C1654  H1656   1.108   .     S
C1654  H1655   1.107   .     S
C1654  H1657   1.110   .     S
C1660  C1661   1.530   .     S
C1660  H1666   1.095   .     S
C1661  H1662   1.110   .     S
C1661  H1664   1.108   .     S
H1663  C1759   1.109   .     S
H1665  C1758   1.112   .     S
C1667  C1678   1.415   .     S
C1667  O1713   1.282   .     A
C1667  O1711   1.298   .     A
C1668  O1712   1.292   .     A
C1668  C1677   1.411   .     S
C1668  O1714   1.286   .     A
C1669  C1671   1.402   .     A
C1669  C1698   1.409   .     A
C1669  H1703   1.079   .     S
C1670  C1672   1.396   .     A
C1670  H1704   1.082   .     S
C1670  C1697   1.406   .     A
C1671  S1721   1.767   .     S
C1672  S1726   1.772   .     S
C1672  C814    1.415   1_556 S
C1673  C1678   1.412   .     A
C1673  S1741   1.773   .     S
C1673  C1087   1.374   1_565 S
C1674  C1677   1.405   .     A
C1674  S1746   1.773   .     S
C1675  H1705   1.084   .     S
C1675  C1677   1.389   .     A
C1676  H1706   1.082   .     S
C1676  C1678   1.392   .     A
C1676  C1086   1.377   1_565 S
C1679  C1751   1.514   .     S
C1679  N1710   1.393   .     A
C1679  C1485   1.424   1_655 S
C1680  C1758   1.507   .     S
C1680  N1709   1.389   .     A
C1681  H1707   1.080   .     S
C1681  N1709   1.353   .     A
C1682  N1710   1.351   .     A
C1682  H1708   1.077   .     S
C1682  C1484   1.419   1_655 S
C1683  O1717   1.301   .     A
C1683  O1715   1.308   .     A
C1683  C1685   1.475   .     S
C1684  O1718   1.294   .     A
C1684  O1716   1.305   .     A
C1684  C1686   1.454   .     S
C1685  C1689   1.408   .     A
C1685  C1691   1.409   .     A
C1686  C1690   1.398   .     A
C1686  C1692   1.401   .     A
C1687  C1695   1.409   .     A
C1687  H1701   1.081   .     S
C1687  C1689   1.400   .     A
C1688  C1690   1.390   .     A
C1688  C1696   1.407   .     A
C1688  H1702   1.080   .     S
C1689  H1700   1.083   .     S
C1690  H1699   1.080   .     S
C1691  C1693   1.397   .     A
C1691  S1736   1.787   .     S
C1692  S1731   1.790   .     S
C1692  C1694   1.410   .     A
C1693  C1695   1.411   .     A
C1693  C1697   1.402   .     A
C1694  C1698   1.410   .     A
C1694  C1696   1.425   .     A
C1695  C789    1.412   1_556 S
C1697  C816    1.393   1_556 S
N1709  Zn1719  2.030   .     S
N1710  Zn1720  2.030   .     S
O1711  Zn1719  1.996   .     S
O1712  Zn1720  1.996   .     S
O1713  Zn1720  1.980   .     S
O1714  Zn1719  1.980   .     S
O1715  Zn1719  1.958   .     S
O1716  Zn1720  1.958   .     S
O1717  Zn1720  1.921   .     S
O1718  Zn1719  1.921   .     S
S1721  O1722   1.503   .     D
S1721  O1724   1.683   .     S
O1723  S1525   1.498   1_655 S
O1724  H1725   0.990   .     S
S1726  O1729   1.683   .     S
S1726  O1728   1.504   .     D
S1726  O1727   1.503   .     D
O1729  H1730   0.990   .     S
S1731  O1733   1.499   .     D
S1731  O1734   1.683   .     S
S1731  O1732   1.504   .     D
O1734  H1735   0.990   .     S
S1736  O1737   1.503   .     D
S1736  O1739   1.684   .     S
S1736  O1738   1.503   .     D
O1739  H1740   0.990   .     S
S1741  O1742   1.496   .     D
S1741  O1743   1.504   .     D
S1741  O1744   1.680   .     S
O1744  H1745   0.991   .     S
S1746  O1749   1.680   .     S
S1746  O1748   1.504   .     D
S1746  O1747   1.503   .     D
O1749  H1750   0.990   .     S
C1751  H1757   1.089   .     S
C1751  H1756   1.111   .     S
C1751  C1556   1.532   1_655 S
C1752  H1754   1.108   .     S
C1752  H1753   1.107   .     S
C1752  H1755   1.110   .     S
C1758  C1759   1.530   .     S
C1758  H1764   1.095   .     S
C1759  H1760   1.110   .     S
C1759  H1762   1.108   .     S
H1761  C1563   1.109   1_655 S
H1763  C1562   1.112   1_655 S
