data_str_m3_o10_o16_pcu_sym.33
_audit_creation_date              2020-01-03
_audit_creation_method            'Materials Studio'
_symmetry_space_group_name_H-M    'P1'
_symmetry_Int_Tables_number       1
_symmetry_cell_setting            triclinic
loop_
_symmetry_equiv_pos_as_xyz
  x,y,z
_cell_length_a                    23.4924
_cell_length_b                    25.6972
_cell_length_c                    24.0217
_cell_angle_alpha                 92.2097
_cell_angle_beta                  101.1409
_cell_angle_gamma                 94.2246
loop_
_atom_site_label
_atom_site_type_symbol
_atom_site_fract_x
_atom_site_fract_y
_atom_site_fract_z
_atom_site_U_iso_or_equiv
_atom_site_adp_type
_atom_site_occupancy
C1     C     0.01489   0.26492   0.24861   0.00000  Uiso   1.00
C2     C     0.05329   0.16833   0.41692   0.00000  Uiso   1.00
C3     C     0.02262   0.31951   0.24783   0.00000  Uiso   1.00
C4     C     0.03534   0.16807   0.35545   0.00000  Uiso   1.00
C5     C     0.31071   0.01383   0.25213   0.00000  Uiso   1.00
C6     C     0.31845   0.06842   0.25138   0.00000  Uiso   1.00
C7     C     0.29774   0.16329   0.14468   0.00000  Uiso   1.00
C8     C     0.26648   0.09043   0.00504   0.00000  Uiso   1.00
C9     C     0.27848   0.15384   0.08413   0.00000  Uiso   1.00
C10    C     0.02533   0.19857   0.45172   0.00000  Uiso   1.00
C11    C     0.05042   0.20884   0.00882   0.00000  Uiso   1.00
C12    C     0.13463   0.16382   0.49444   0.00000  Uiso   1.00
C13    C     0.10535   0.19258   0.03001   0.00000  Uiso   1.00
C14    C     0.22908   0.23681   0.06790   0.00000  Uiso   1.00
C15    C     0.10404   0.14509   0.44051   0.00000  Uiso   1.00
C16    C     0.19268   0.15140   0.01153   0.00000  Uiso   1.00
C17    C     0.21277   0.10911   0.48285   0.00000  Uiso   1.00
C18    C     0.17838   0.08549   0.43324   0.00000  Uiso   1.00
C19    C     0.12520   0.10426   0.41132   0.00000  Uiso   1.00
C20    C     0.23137   0.17928   0.05653   0.00000  Uiso   1.00
C21    C     0.29770   0.11091   0.05733   0.00000  Uiso   1.00
H22    H     0.00182   0.09186   0.07799   0.00000  Uiso   1.00
H23    H     0.15650   0.12493   0.20806   0.00000  Uiso   1.00
H24    H     0.19300   0.05318   0.41088   0.00000  Uiso   1.00
H25    H     0.20477   0.30540   0.03657   0.00000  Uiso   1.00
H26    H     0.26811   0.32993   0.25620   0.00000  Uiso   1.00
H27    H     0.17683   0.20839   0.29195   0.00000  Uiso   1.00
H28    H     0.28192   0.05757   0.48432   0.00000  Uiso   1.00
H29    H     0.31858   0.21557   0.43444   0.00000  Uiso   1.00
H30    H     0.12435   0.20215   0.07427   0.00000  Uiso   1.00
H31    H     0.02860   0.23151   0.03599   0.00000  Uiso   1.00
H32    H     0.09981   0.08535   0.37242   0.00000  Uiso   1.00
H33    H     0.06522   0.00340   0.24376   0.00000  Uiso   1.00
N34    N     0.14493   0.15223   0.23543   0.00000  Uiso   1.00
N35    N     0.18840   0.18110   0.26458   0.00000  Uiso   1.00
O36    O     0.29769   0.24629   0.25358   0.00000  Uiso   1.00
O37    O     0.20284   0.26698   0.02436   0.00000  Uiso   1.00
O38    O     0.05742   0.23704   0.24424   0.00000  Uiso   1.00
O39    O     0.31490   0.17358   0.33380   0.00000  Uiso   1.00
O40    O     0.07463   0.16433   0.32446   0.00000  Uiso   1.00
O41    O     0.27592   0.09629   0.25576   0.00000  Uiso   1.00
O42    O     0.03565   0.08704   0.24643   0.00000  Uiso   1.00
O43    O     0.25870   0.16901   0.17554   0.00000  Uiso   1.00
O44    O     0.01843   0.15976   0.16620   0.00000  Uiso   1.00
O45    O     0.25220   0.25828   0.11385   0.00000  Uiso   1.00
Zn46   Zn    0.27119   0.17284   0.25624   0.00000  Uiso   1.00
Zn47   Zn    0.06214   0.16049   0.24377   0.00000  Uiso   1.00
C48    C     0.34822   0.26492   0.24861   0.00000  Uiso   1.00
C49    C     0.38662   0.16833   0.41692   0.00000  Uiso   1.00
C50    C     0.35595   0.31951   0.24783   0.00000  Uiso   1.00
C51    C     0.36867   0.16807   0.35545   0.00000  Uiso   1.00
C52    C     0.64404   0.01383   0.25213   0.00000  Uiso   1.00
C53    C     0.65178   0.06842   0.25138   0.00000  Uiso   1.00
C54    C     0.63107   0.16329   0.14468   0.00000  Uiso   1.00
C55    C     0.59981   0.09043   0.00504   0.00000  Uiso   1.00
C56    C     0.61182   0.15384   0.08413   0.00000  Uiso   1.00
C57    C     0.35866   0.19857   0.45172   0.00000  Uiso   1.00
C58    C     0.38375   0.20884   0.00882   0.00000  Uiso   1.00
C59    C     0.46796   0.16382   0.49444   0.00000  Uiso   1.00
C60    C     0.43868   0.19258   0.03001   0.00000  Uiso   1.00
C61    C     0.56241   0.23681   0.06790   0.00000  Uiso   1.00
C62    C     0.43738   0.14509   0.44051   0.00000  Uiso   1.00
C63    C     0.52601   0.15140   0.01153   0.00000  Uiso   1.00
C64    C     0.54611   0.10911   0.48285   0.00000  Uiso   1.00
C65    C     0.51171   0.08549   0.43324   0.00000  Uiso   1.00
C66    C     0.45853   0.10426   0.41132   0.00000  Uiso   1.00
C67    C     0.56470   0.17928   0.05653   0.00000  Uiso   1.00
C68    C     0.63103   0.11091   0.05733   0.00000  Uiso   1.00
H69    H     0.33516   0.09186   0.07799   0.00000  Uiso   1.00
H70    H     0.48983   0.12493   0.20806   0.00000  Uiso   1.00
H71    H     0.52634   0.05318   0.41088   0.00000  Uiso   1.00
H72    H     0.53810   0.30540   0.03657   0.00000  Uiso   1.00
H73    H     0.60144   0.32993   0.25620   0.00000  Uiso   1.00
H74    H     0.51017   0.20839   0.29195   0.00000  Uiso   1.00
H75    H     0.61525   0.05757   0.48432   0.00000  Uiso   1.00
H76    H     0.65191   0.21557   0.43444   0.00000  Uiso   1.00
H77    H     0.45768   0.20215   0.07427   0.00000  Uiso   1.00
H78    H     0.36193   0.23151   0.03599   0.00000  Uiso   1.00
H79    H     0.43315   0.08535   0.37242   0.00000  Uiso   1.00
H80    H     0.39855   0.00340   0.24376   0.00000  Uiso   1.00
N81    N     0.47827   0.15223   0.23543   0.00000  Uiso   1.00
N82    N     0.52173   0.18110   0.26458   0.00000  Uiso   1.00
O83    O     0.63102   0.24629   0.25358   0.00000  Uiso   1.00
O84    O     0.53618   0.26698   0.02436   0.00000  Uiso   1.00
O85    O     0.39075   0.23704   0.24424   0.00000  Uiso   1.00
O86    O     0.64823   0.17358   0.33380   0.00000  Uiso   1.00
O87    O     0.40796   0.16433   0.32446   0.00000  Uiso   1.00
O88    O     0.60925   0.09629   0.25576   0.00000  Uiso   1.00
O89    O     0.36898   0.08704   0.24643   0.00000  Uiso   1.00
O90    O     0.59204   0.16901   0.17554   0.00000  Uiso   1.00
O91    O     0.35177   0.15976   0.16620   0.00000  Uiso   1.00
O92    O     0.58553   0.25828   0.11385   0.00000  Uiso   1.00
Zn93   Zn    0.60453   0.17284   0.25624   0.00000  Uiso   1.00
Zn94   Zn    0.39547   0.16049   0.24377   0.00000  Uiso   1.00
C95    C     0.68155   0.26492   0.24861   0.00000  Uiso   1.00
C96    C     0.71995   0.16833   0.41692   0.00000  Uiso   1.00
C97    C     0.68928   0.31951   0.24783   0.00000  Uiso   1.00
C98    C     0.70200   0.16807   0.35545   0.00000  Uiso   1.00
C99    C     0.97738   0.01383   0.25213   0.00000  Uiso   1.00
C100   C     0.98511   0.06842   0.25138   0.00000  Uiso   1.00
C101   C     0.96441   0.16329   0.14468   0.00000  Uiso   1.00
C102   C     0.93315   0.09043   0.00504   0.00000  Uiso   1.00
C103   C     0.94515   0.15384   0.08413   0.00000  Uiso   1.00
C104   C     0.69199   0.19857   0.45172   0.00000  Uiso   1.00
C105   C     0.71708   0.20884   0.00882   0.00000  Uiso   1.00
C106   C     0.80130   0.16382   0.49444   0.00000  Uiso   1.00
C107   C     0.77202   0.19258   0.03001   0.00000  Uiso   1.00
C108   C     0.89574   0.23681   0.06790   0.00000  Uiso   1.00
C109   C     0.77071   0.14509   0.44051   0.00000  Uiso   1.00
C110   C     0.85935   0.15140   0.01153   0.00000  Uiso   1.00
C111   C     0.87944   0.10911   0.48285   0.00000  Uiso   1.00
C112   C     0.84504   0.08549   0.43324   0.00000  Uiso   1.00
C113   C     0.79187   0.10426   0.41132   0.00000  Uiso   1.00
C114   C     0.89804   0.17928   0.05653   0.00000  Uiso   1.00
C115   C     0.96436   0.11091   0.05733   0.00000  Uiso   1.00
H116   H     0.66849   0.09186   0.07799   0.00000  Uiso   1.00
H117   H     0.82317   0.12493   0.20806   0.00000  Uiso   1.00
H118   H     0.85967   0.05318   0.41088   0.00000  Uiso   1.00
H119   H     0.87143   0.30540   0.03657   0.00000  Uiso   1.00
H120   H     0.93477   0.32993   0.25620   0.00000  Uiso   1.00
H121   H     0.84350   0.20839   0.29195   0.00000  Uiso   1.00
H122   H     0.94859   0.05757   0.48432   0.00000  Uiso   1.00
H123   H     0.98525   0.21557   0.43444   0.00000  Uiso   1.00
H124   H     0.79102   0.20215   0.07427   0.00000  Uiso   1.00
H125   H     0.69526   0.23151   0.03599   0.00000  Uiso   1.00
H126   H     0.76648   0.08535   0.37242   0.00000  Uiso   1.00
H127   H     0.73188   0.00340   0.24376   0.00000  Uiso   1.00
N128   N     0.81160   0.15223   0.23543   0.00000  Uiso   1.00
N129   N     0.85507   0.18110   0.26458   0.00000  Uiso   1.00
O130   O     0.96435   0.24629   0.25358   0.00000  Uiso   1.00
O131   O     0.86951   0.26698   0.02436   0.00000  Uiso   1.00
O132   O     0.72408   0.23704   0.24424   0.00000  Uiso   1.00
O133   O     0.98157   0.17358   0.33380   0.00000  Uiso   1.00
O134   O     0.74130   0.16433   0.32446   0.00000  Uiso   1.00
O135   O     0.94258   0.09629   0.25576   0.00000  Uiso   1.00
O136   O     0.70231   0.08704   0.24643   0.00000  Uiso   1.00
O137   O     0.92537   0.16901   0.17554   0.00000  Uiso   1.00
O138   O     0.68510   0.15976   0.16620   0.00000  Uiso   1.00
O139   O     0.91886   0.25828   0.11385   0.00000  Uiso   1.00
Zn140  Zn    0.93786   0.17284   0.25624   0.00000  Uiso   1.00
Zn141  Zn    0.72881   0.16049   0.24377   0.00000  Uiso   1.00
C142   C     0.01489   0.59825   0.24861   0.00000  Uiso   1.00
C143   C     0.05329   0.50166   0.41692   0.00000  Uiso   1.00
C144   C     0.02262   0.65284   0.24783   0.00000  Uiso   1.00
C145   C     0.03534   0.50140   0.35545   0.00000  Uiso   1.00
C146   C     0.31071   0.34716   0.25213   0.00000  Uiso   1.00
C147   C     0.31845   0.40175   0.25138   0.00000  Uiso   1.00
C148   C     0.29774   0.49662   0.14468   0.00000  Uiso   1.00
C149   C     0.26648   0.42376   0.00504   0.00000  Uiso   1.00
C150   C     0.27848   0.48717   0.08413   0.00000  Uiso   1.00
C151   C     0.02533   0.53190   0.45172   0.00000  Uiso   1.00
C152   C     0.05042   0.54217   0.00882   0.00000  Uiso   1.00
C153   C     0.13463   0.49716   0.49444   0.00000  Uiso   1.00
C154   C     0.10535   0.52592   0.03001   0.00000  Uiso   1.00
C155   C     0.22908   0.57014   0.06790   0.00000  Uiso   1.00
C156   C     0.10404   0.47843   0.44051   0.00000  Uiso   1.00
C157   C     0.19268   0.48474   0.01153   0.00000  Uiso   1.00
C158   C     0.21277   0.44244   0.48285   0.00000  Uiso   1.00
C159   C     0.17838   0.41883   0.43324   0.00000  Uiso   1.00
C160   C     0.12520   0.43760   0.41132   0.00000  Uiso   1.00
C161   C     0.23137   0.51262   0.05653   0.00000  Uiso   1.00
C162   C     0.29770   0.44424   0.05733   0.00000  Uiso   1.00
H163   H     0.00182   0.42519   0.07799   0.00000  Uiso   1.00
H164   H     0.15650   0.45827   0.20806   0.00000  Uiso   1.00
H165   H     0.19300   0.38651   0.41088   0.00000  Uiso   1.00
H166   H     0.20477   0.63873   0.03657   0.00000  Uiso   1.00
H167   H     0.26811   0.66326   0.25620   0.00000  Uiso   1.00
H168   H     0.17683   0.54173   0.29195   0.00000  Uiso   1.00
H169   H     0.28192   0.39091   0.48432   0.00000  Uiso   1.00
H170   H     0.31858   0.54891   0.43444   0.00000  Uiso   1.00
H171   H     0.12435   0.53548   0.07427   0.00000  Uiso   1.00
H172   H     0.02860   0.56484   0.03599   0.00000  Uiso   1.00
H173   H     0.09981   0.41868   0.37242   0.00000  Uiso   1.00
H174   H     0.06522   0.33674   0.24376   0.00000  Uiso   1.00
N175   N     0.14493   0.48556   0.23543   0.00000  Uiso   1.00
N176   N     0.18840   0.51444   0.26458   0.00000  Uiso   1.00
O177   O     0.29769   0.57963   0.25358   0.00000  Uiso   1.00
O178   O     0.20284   0.60032   0.02436   0.00000  Uiso   1.00
O179   O     0.05742   0.57038   0.24424   0.00000  Uiso   1.00
O180   O     0.31490   0.50691   0.33380   0.00000  Uiso   1.00
O181   O     0.07463   0.49766   0.32446   0.00000  Uiso   1.00
O182   O     0.27592   0.42962   0.25576   0.00000  Uiso   1.00
O183   O     0.03565   0.42037   0.24643   0.00000  Uiso   1.00
O184   O     0.25870   0.50234   0.17554   0.00000  Uiso   1.00
O185   O     0.01843   0.49309   0.16620   0.00000  Uiso   1.00
O186   O     0.25220   0.59162   0.11385   0.00000  Uiso   1.00
Zn187  Zn    0.27119   0.50618   0.25624   0.00000  Uiso   1.00
Zn188  Zn    0.06214   0.49382   0.24377   0.00000  Uiso   1.00
C189   C     0.34822   0.59825   0.24861   0.00000  Uiso   1.00
C190   C     0.38662   0.50166   0.41692   0.00000  Uiso   1.00
C191   C     0.35595   0.65284   0.24783   0.00000  Uiso   1.00
C192   C     0.36867   0.50140   0.35545   0.00000  Uiso   1.00
C193   C     0.64404   0.34716   0.25213   0.00000  Uiso   1.00
C194   C     0.65178   0.40175   0.25138   0.00000  Uiso   1.00
C195   C     0.63107   0.49662   0.14468   0.00000  Uiso   1.00
C196   C     0.59981   0.42376   0.00504   0.00000  Uiso   1.00
C197   C     0.61182   0.48717   0.08413   0.00000  Uiso   1.00
C198   C     0.35866   0.53190   0.45172   0.00000  Uiso   1.00
C199   C     0.38375   0.54217   0.00882   0.00000  Uiso   1.00
C200   C     0.46796   0.49716   0.49444   0.00000  Uiso   1.00
C201   C     0.43868   0.52592   0.03001   0.00000  Uiso   1.00
C202   C     0.56241   0.57014   0.06790   0.00000  Uiso   1.00
C203   C     0.43738   0.47843   0.44051   0.00000  Uiso   1.00
C204   C     0.52601   0.48474   0.01153   0.00000  Uiso   1.00
C205   C     0.54611   0.44244   0.48285   0.00000  Uiso   1.00
C206   C     0.51171   0.41883   0.43324   0.00000  Uiso   1.00
C207   C     0.45853   0.43760   0.41132   0.00000  Uiso   1.00
C208   C     0.56470   0.51262   0.05653   0.00000  Uiso   1.00
C209   C     0.63103   0.44424   0.05733   0.00000  Uiso   1.00
H210   H     0.33516   0.42519   0.07799   0.00000  Uiso   1.00
H211   H     0.48983   0.45827   0.20806   0.00000  Uiso   1.00
H212   H     0.52634   0.38651   0.41088   0.00000  Uiso   1.00
H213   H     0.53810   0.63873   0.03657   0.00000  Uiso   1.00
H214   H     0.60144   0.66326   0.25620   0.00000  Uiso   1.00
H215   H     0.51017   0.54173   0.29195   0.00000  Uiso   1.00
H216   H     0.61525   0.39091   0.48432   0.00000  Uiso   1.00
H217   H     0.65191   0.54891   0.43444   0.00000  Uiso   1.00
H218   H     0.45768   0.53548   0.07427   0.00000  Uiso   1.00
H219   H     0.36193   0.56484   0.03599   0.00000  Uiso   1.00
H220   H     0.43315   0.41868   0.37242   0.00000  Uiso   1.00
H221   H     0.39855   0.33674   0.24376   0.00000  Uiso   1.00
N222   N     0.47827   0.48556   0.23543   0.00000  Uiso   1.00
N223   N     0.52173   0.51444   0.26458   0.00000  Uiso   1.00
O224   O     0.63102   0.57963   0.25358   0.00000  Uiso   1.00
O225   O     0.53618   0.60032   0.02436   0.00000  Uiso   1.00
O226   O     0.39075   0.57038   0.24424   0.00000  Uiso   1.00
O227   O     0.64823   0.50691   0.33380   0.00000  Uiso   1.00
O228   O     0.40796   0.49766   0.32446   0.00000  Uiso   1.00
O229   O     0.60925   0.42962   0.25576   0.00000  Uiso   1.00
O230   O     0.36898   0.42037   0.24643   0.00000  Uiso   1.00
O231   O     0.59204   0.50234   0.17554   0.00000  Uiso   1.00
O232   O     0.35177   0.49309   0.16620   0.00000  Uiso   1.00
O233   O     0.58553   0.59162   0.11385   0.00000  Uiso   1.00
Zn234  Zn    0.60453   0.50618   0.25624   0.00000  Uiso   1.00
Zn235  Zn    0.39547   0.49382   0.24377   0.00000  Uiso   1.00
C236   C     0.68155   0.59825   0.24861   0.00000  Uiso   1.00
C237   C     0.71995   0.50166   0.41692   0.00000  Uiso   1.00
C238   C     0.68928   0.65284   0.24783   0.00000  Uiso   1.00
C239   C     0.70200   0.50140   0.35545   0.00000  Uiso   1.00
C240   C     0.97738   0.34716   0.25213   0.00000  Uiso   1.00
C241   C     0.98511   0.40175   0.25138   0.00000  Uiso   1.00
C242   C     0.96441   0.49662   0.14468   0.00000  Uiso   1.00
C243   C     0.93315   0.42376   0.00504   0.00000  Uiso   1.00
C244   C     0.94515   0.48717   0.08413   0.00000  Uiso   1.00
C245   C     0.69199   0.53190   0.45172   0.00000  Uiso   1.00
C246   C     0.71708   0.54217   0.00882   0.00000  Uiso   1.00
C247   C     0.80130   0.49716   0.49444   0.00000  Uiso   1.00
C248   C     0.77202   0.52592   0.03001   0.00000  Uiso   1.00
C249   C     0.89574   0.57014   0.06790   0.00000  Uiso   1.00
C250   C     0.77071   0.47843   0.44051   0.00000  Uiso   1.00
C251   C     0.85935   0.48474   0.01153   0.00000  Uiso   1.00
C252   C     0.87944   0.44244   0.48285   0.00000  Uiso   1.00
C253   C     0.84504   0.41883   0.43324   0.00000  Uiso   1.00
C254   C     0.79187   0.43760   0.41132   0.00000  Uiso   1.00
C255   C     0.89804   0.51262   0.05653   0.00000  Uiso   1.00
C256   C     0.96436   0.44424   0.05733   0.00000  Uiso   1.00
H257   H     0.66849   0.42519   0.07799   0.00000  Uiso   1.00
H258   H     0.82317   0.45827   0.20806   0.00000  Uiso   1.00
H259   H     0.85967   0.38651   0.41088   0.00000  Uiso   1.00
H260   H     0.87143   0.63873   0.03657   0.00000  Uiso   1.00
H261   H     0.93477   0.66326   0.25620   0.00000  Uiso   1.00
H262   H     0.84350   0.54173   0.29195   0.00000  Uiso   1.00
H263   H     0.94859   0.39091   0.48432   0.00000  Uiso   1.00
H264   H     0.98525   0.54891   0.43444   0.00000  Uiso   1.00
H265   H     0.79102   0.53548   0.07427   0.00000  Uiso   1.00
H266   H     0.69526   0.56484   0.03599   0.00000  Uiso   1.00
H267   H     0.76648   0.41868   0.37242   0.00000  Uiso   1.00
H268   H     0.73188   0.33674   0.24376   0.00000  Uiso   1.00
N269   N     0.81160   0.48556   0.23543   0.00000  Uiso   1.00
N270   N     0.85507   0.51444   0.26458   0.00000  Uiso   1.00
O271   O     0.96435   0.57963   0.25358   0.00000  Uiso   1.00
O272   O     0.86951   0.60032   0.02436   0.00000  Uiso   1.00
O273   O     0.72408   0.57038   0.24424   0.00000  Uiso   1.00
O274   O     0.98157   0.50691   0.33380   0.00000  Uiso   1.00
O275   O     0.74130   0.49766   0.32446   0.00000  Uiso   1.00
O276   O     0.94258   0.42962   0.25576   0.00000  Uiso   1.00
O277   O     0.70231   0.42037   0.24643   0.00000  Uiso   1.00
O278   O     0.92537   0.50234   0.17554   0.00000  Uiso   1.00
O279   O     0.68510   0.49309   0.16620   0.00000  Uiso   1.00
O280   O     0.91886   0.59162   0.11385   0.00000  Uiso   1.00
Zn281  Zn    0.93786   0.50618   0.25624   0.00000  Uiso   1.00
Zn282  Zn    0.72881   0.49382   0.24377   0.00000  Uiso   1.00
C283   C     0.01489   0.93158   0.24861   0.00000  Uiso   1.00
C284   C     0.05329   0.83499   0.41692   0.00000  Uiso   1.00
C285   C     0.02262   0.98617   0.24783   0.00000  Uiso   1.00
C286   C     0.03534   0.83473   0.35545   0.00000  Uiso   1.00
C287   C     0.31071   0.68050   0.25213   0.00000  Uiso   1.00
C288   C     0.31845   0.73508   0.25138   0.00000  Uiso   1.00
C289   C     0.29774   0.82995   0.14468   0.00000  Uiso   1.00
C290   C     0.26648   0.75710   0.00504   0.00000  Uiso   1.00
C291   C     0.27848   0.82050   0.08413   0.00000  Uiso   1.00
C292   C     0.02533   0.86523   0.45172   0.00000  Uiso   1.00
C293   C     0.05042   0.87550   0.00882   0.00000  Uiso   1.00
C294   C     0.13463   0.83049   0.49444   0.00000  Uiso   1.00
C295   C     0.10535   0.85925   0.03001   0.00000  Uiso   1.00
C296   C     0.22908   0.90348   0.06790   0.00000  Uiso   1.00
C297   C     0.10404   0.81176   0.44051   0.00000  Uiso   1.00
C298   C     0.19268   0.81807   0.01153   0.00000  Uiso   1.00
C299   C     0.21277   0.77578   0.48285   0.00000  Uiso   1.00
C300   C     0.17838   0.75216   0.43324   0.00000  Uiso   1.00
C301   C     0.12520   0.77093   0.41132   0.00000  Uiso   1.00
C302   C     0.23137   0.84595   0.05653   0.00000  Uiso   1.00
C303   C     0.29770   0.77758   0.05733   0.00000  Uiso   1.00
H304   H     0.00182   0.75852   0.07799   0.00000  Uiso   1.00
H305   H     0.15650   0.79160   0.20806   0.00000  Uiso   1.00
H306   H     0.19300   0.71985   0.41088   0.00000  Uiso   1.00
H307   H     0.20477   0.97206   0.03657   0.00000  Uiso   1.00
H308   H     0.26811   0.99660   0.25620   0.00000  Uiso   1.00
H309   H     0.17683   0.87506   0.29195   0.00000  Uiso   1.00
H310   H     0.28192   0.72424   0.48432   0.00000  Uiso   1.00
H311   H     0.31858   0.88224   0.43444   0.00000  Uiso   1.00
H312   H     0.12435   0.86882   0.07427   0.00000  Uiso   1.00
H313   H     0.02860   0.89817   0.03599   0.00000  Uiso   1.00
H314   H     0.09981   0.75202   0.37242   0.00000  Uiso   1.00
H315   H     0.06522   0.67007   0.24376   0.00000  Uiso   1.00
N316   N     0.14493   0.81890   0.23543   0.00000  Uiso   1.00
N317   N     0.18840   0.84777   0.26458   0.00000  Uiso   1.00
O318   O     0.29769   0.91296   0.25358   0.00000  Uiso   1.00
O319   O     0.20284   0.93365   0.02436   0.00000  Uiso   1.00
O320   O     0.05742   0.90371   0.24424   0.00000  Uiso   1.00
O321   O     0.31490   0.84024   0.33380   0.00000  Uiso   1.00
O322   O     0.07463   0.83099   0.32446   0.00000  Uiso   1.00
O323   O     0.27592   0.76296   0.25576   0.00000  Uiso   1.00
O324   O     0.03565   0.75371   0.24643   0.00000  Uiso   1.00
O325   O     0.25870   0.83567   0.17554   0.00000  Uiso   1.00
O326   O     0.01843   0.82642   0.16620   0.00000  Uiso   1.00
O327   O     0.25220   0.92495   0.11385   0.00000  Uiso   1.00
Zn328  Zn    0.27119   0.83951   0.25624   0.00000  Uiso   1.00
Zn329  Zn    0.06214   0.82716   0.24377   0.00000  Uiso   1.00
C330   C     0.34822   0.93158   0.24861   0.00000  Uiso   1.00
C331   C     0.38662   0.83499   0.41692   0.00000  Uiso   1.00
C332   C     0.35595   0.98617   0.24783   0.00000  Uiso   1.00
C333   C     0.36867   0.83473   0.35545   0.00000  Uiso   1.00
C334   C     0.64404   0.68050   0.25213   0.00000  Uiso   1.00
C335   C     0.65178   0.73508   0.25138   0.00000  Uiso   1.00
C336   C     0.63107   0.82995   0.14468   0.00000  Uiso   1.00
C337   C     0.59981   0.75710   0.00504   0.00000  Uiso   1.00
C338   C     0.61182   0.82050   0.08413   0.00000  Uiso   1.00
C339   C     0.35866   0.86523   0.45172   0.00000  Uiso   1.00
C340   C     0.38375   0.87550   0.00882   0.00000  Uiso   1.00
C341   C     0.46796   0.83049   0.49444   0.00000  Uiso   1.00
C342   C     0.43868   0.85925   0.03001   0.00000  Uiso   1.00
C343   C     0.56241   0.90348   0.06790   0.00000  Uiso   1.00
C344   C     0.43738   0.81176   0.44051   0.00000  Uiso   1.00
C345   C     0.52601   0.81807   0.01153   0.00000  Uiso   1.00
C346   C     0.54611   0.77578   0.48285   0.00000  Uiso   1.00
C347   C     0.51171   0.75216   0.43324   0.00000  Uiso   1.00
C348   C     0.45853   0.77093   0.41132   0.00000  Uiso   1.00
C349   C     0.56470   0.84595   0.05653   0.00000  Uiso   1.00
C350   C     0.63103   0.77758   0.05733   0.00000  Uiso   1.00
H351   H     0.33516   0.75852   0.07799   0.00000  Uiso   1.00
H352   H     0.48983   0.79160   0.20806   0.00000  Uiso   1.00
H353   H     0.52634   0.71985   0.41088   0.00000  Uiso   1.00
H354   H     0.53810   0.97206   0.03657   0.00000  Uiso   1.00
H355   H     0.60144   0.99660   0.25620   0.00000  Uiso   1.00
H356   H     0.51017   0.87506   0.29195   0.00000  Uiso   1.00
H357   H     0.61525   0.72424   0.48432   0.00000  Uiso   1.00
H358   H     0.65191   0.88224   0.43444   0.00000  Uiso   1.00
H359   H     0.45768   0.86882   0.07427   0.00000  Uiso   1.00
H360   H     0.36193   0.89817   0.03599   0.00000  Uiso   1.00
H361   H     0.43315   0.75202   0.37242   0.00000  Uiso   1.00
H362   H     0.39855   0.67007   0.24376   0.00000  Uiso   1.00
N363   N     0.47827   0.81890   0.23543   0.00000  Uiso   1.00
N364   N     0.52173   0.84777   0.26458   0.00000  Uiso   1.00
O365   O     0.63102   0.91296   0.25358   0.00000  Uiso   1.00
O366   O     0.53618   0.93365   0.02436   0.00000  Uiso   1.00
O367   O     0.39075   0.90371   0.24424   0.00000  Uiso   1.00
O368   O     0.64823   0.84024   0.33380   0.00000  Uiso   1.00
O369   O     0.40796   0.83099   0.32446   0.00000  Uiso   1.00
O370   O     0.60925   0.76296   0.25576   0.00000  Uiso   1.00
O371   O     0.36898   0.75371   0.24643   0.00000  Uiso   1.00
O372   O     0.59204   0.83567   0.17554   0.00000  Uiso   1.00
O373   O     0.35177   0.82642   0.16620   0.00000  Uiso   1.00
O374   O     0.58553   0.92495   0.11385   0.00000  Uiso   1.00
Zn375  Zn    0.60453   0.83951   0.25624   0.00000  Uiso   1.00
Zn376  Zn    0.39547   0.82716   0.24377   0.00000  Uiso   1.00
C377   C     0.68155   0.93158   0.24861   0.00000  Uiso   1.00
C378   C     0.71995   0.83499   0.41692   0.00000  Uiso   1.00
C379   C     0.68928   0.98617   0.24783   0.00000  Uiso   1.00
C380   C     0.70200   0.83473   0.35545   0.00000  Uiso   1.00
C381   C     0.97738   0.68050   0.25213   0.00000  Uiso   1.00
C382   C     0.98511   0.73508   0.25138   0.00000  Uiso   1.00
C383   C     0.96441   0.82995   0.14468   0.00000  Uiso   1.00
C384   C     0.93315   0.75710   0.00504   0.00000  Uiso   1.00
C385   C     0.94515   0.82050   0.08413   0.00000  Uiso   1.00
C386   C     0.69199   0.86523   0.45172   0.00000  Uiso   1.00
C387   C     0.71708   0.87550   0.00882   0.00000  Uiso   1.00
C388   C     0.80130   0.83049   0.49444   0.00000  Uiso   1.00
C389   C     0.77202   0.85925   0.03001   0.00000  Uiso   1.00
C390   C     0.89574   0.90348   0.06790   0.00000  Uiso   1.00
C391   C     0.77071   0.81176   0.44051   0.00000  Uiso   1.00
C392   C     0.85935   0.81807   0.01153   0.00000  Uiso   1.00
C393   C     0.87944   0.77578   0.48285   0.00000  Uiso   1.00
C394   C     0.84504   0.75216   0.43324   0.00000  Uiso   1.00
C395   C     0.79187   0.77093   0.41132   0.00000  Uiso   1.00
C396   C     0.89804   0.84595   0.05653   0.00000  Uiso   1.00
C397   C     0.96436   0.77758   0.05733   0.00000  Uiso   1.00
H398   H     0.66849   0.75852   0.07799   0.00000  Uiso   1.00
H399   H     0.82317   0.79160   0.20806   0.00000  Uiso   1.00
H400   H     0.85967   0.71985   0.41088   0.00000  Uiso   1.00
H401   H     0.87143   0.97206   0.03657   0.00000  Uiso   1.00
H402   H     0.93477   0.99660   0.25620   0.00000  Uiso   1.00
H403   H     0.84350   0.87506   0.29195   0.00000  Uiso   1.00
H404   H     0.94859   0.72424   0.48432   0.00000  Uiso   1.00
H405   H     0.98525   0.88224   0.43444   0.00000  Uiso   1.00
H406   H     0.79102   0.86882   0.07427   0.00000  Uiso   1.00
H407   H     0.69526   0.89817   0.03599   0.00000  Uiso   1.00
H408   H     0.76648   0.75202   0.37242   0.00000  Uiso   1.00
H409   H     0.73188   0.67007   0.24376   0.00000  Uiso   1.00
N410   N     0.81160   0.81890   0.23543   0.00000  Uiso   1.00
N411   N     0.85507   0.84777   0.26458   0.00000  Uiso   1.00
O412   O     0.96435   0.91296   0.25358   0.00000  Uiso   1.00
O413   O     0.86951   0.93365   0.02436   0.00000  Uiso   1.00
O414   O     0.72408   0.90371   0.24424   0.00000  Uiso   1.00
O415   O     0.98157   0.84024   0.33380   0.00000  Uiso   1.00
O416   O     0.74130   0.83099   0.32446   0.00000  Uiso   1.00
O417   O     0.94258   0.76296   0.25576   0.00000  Uiso   1.00
O418   O     0.70231   0.75371   0.24643   0.00000  Uiso   1.00
O419   O     0.92537   0.83567   0.17554   0.00000  Uiso   1.00
O420   O     0.68510   0.82642   0.16620   0.00000  Uiso   1.00
O421   O     0.91886   0.92495   0.11385   0.00000  Uiso   1.00
Zn422  Zn    0.93786   0.83951   0.25624   0.00000  Uiso   1.00
Zn423  Zn    0.72881   0.82716   0.24377   0.00000  Uiso   1.00
C424   C     0.01489   0.26492   0.74861   0.00000  Uiso   1.00
C425   C     0.05329   0.16833   0.91692   0.00000  Uiso   1.00
C426   C     0.02262   0.31951   0.74783   0.00000  Uiso   1.00
C427   C     0.03534   0.16807   0.85545   0.00000  Uiso   1.00
C428   C     0.31071   0.01383   0.75213   0.00000  Uiso   1.00
C429   C     0.31845   0.06842   0.75138   0.00000  Uiso   1.00
C430   C     0.29774   0.16329   0.64468   0.00000  Uiso   1.00
C431   C     0.26648   0.09043   0.50504   0.00000  Uiso   1.00
C432   C     0.27848   0.15384   0.58413   0.00000  Uiso   1.00
C433   C     0.02533   0.19857   0.95172   0.00000  Uiso   1.00
C434   C     0.05042   0.20884   0.50882   0.00000  Uiso   1.00
C435   C     0.13463   0.16382   0.99444   0.00000  Uiso   1.00
C436   C     0.10535   0.19258   0.53001   0.00000  Uiso   1.00
C437   C     0.22908   0.23681   0.56790   0.00000  Uiso   1.00
C438   C     0.10404   0.14509   0.94051   0.00000  Uiso   1.00
C439   C     0.19268   0.15140   0.51153   0.00000  Uiso   1.00
C440   C     0.21277   0.10911   0.98285   0.00000  Uiso   1.00
C441   C     0.17838   0.08549   0.93324   0.00000  Uiso   1.00
C442   C     0.12520   0.10426   0.91132   0.00000  Uiso   1.00
C443   C     0.23137   0.17928   0.55653   0.00000  Uiso   1.00
C444   C     0.29770   0.11091   0.55733   0.00000  Uiso   1.00
H445   H     0.00182   0.09186   0.57799   0.00000  Uiso   1.00
H446   H     0.15650   0.12493   0.70806   0.00000  Uiso   1.00
H447   H     0.19300   0.05318   0.91088   0.00000  Uiso   1.00
H448   H     0.20477   0.30540   0.53657   0.00000  Uiso   1.00
H449   H     0.26811   0.32993   0.75620   0.00000  Uiso   1.00
H450   H     0.17683   0.20839   0.79195   0.00000  Uiso   1.00
H451   H     0.28192   0.05757   0.98432   0.00000  Uiso   1.00
H452   H     0.31858   0.21557   0.93444   0.00000  Uiso   1.00
H453   H     0.12435   0.20215   0.57427   0.00000  Uiso   1.00
H454   H     0.02860   0.23151   0.53599   0.00000  Uiso   1.00
H455   H     0.09981   0.08535   0.87242   0.00000  Uiso   1.00
H456   H     0.06522   0.00340   0.74376   0.00000  Uiso   1.00
N457   N     0.14493   0.15223   0.73543   0.00000  Uiso   1.00
N458   N     0.18840   0.18110   0.76458   0.00000  Uiso   1.00
O459   O     0.29769   0.24629   0.75358   0.00000  Uiso   1.00
O460   O     0.20284   0.26698   0.52436   0.00000  Uiso   1.00
O461   O     0.05742   0.23704   0.74424   0.00000  Uiso   1.00
O462   O     0.31490   0.17358   0.83380   0.00000  Uiso   1.00
O463   O     0.07463   0.16433   0.82446   0.00000  Uiso   1.00
O464   O     0.27592   0.09629   0.75576   0.00000  Uiso   1.00
O465   O     0.03565   0.08704   0.74643   0.00000  Uiso   1.00
O466   O     0.25870   0.16901   0.67554   0.00000  Uiso   1.00
O467   O     0.01843   0.15976   0.66620   0.00000  Uiso   1.00
O468   O     0.25220   0.25828   0.61385   0.00000  Uiso   1.00
Zn469  Zn    0.27119   0.17284   0.75624   0.00000  Uiso   1.00
Zn470  Zn    0.06214   0.16049   0.74377   0.00000  Uiso   1.00
C471   C     0.34822   0.26492   0.74861   0.00000  Uiso   1.00
C472   C     0.38662   0.16833   0.91692   0.00000  Uiso   1.00
C473   C     0.35595   0.31951   0.74783   0.00000  Uiso   1.00
C474   C     0.36867   0.16807   0.85545   0.00000  Uiso   1.00
C475   C     0.64404   0.01383   0.75213   0.00000  Uiso   1.00
C476   C     0.65178   0.06842   0.75138   0.00000  Uiso   1.00
C477   C     0.63107   0.16329   0.64468   0.00000  Uiso   1.00
C478   C     0.59981   0.09043   0.50504   0.00000  Uiso   1.00
C479   C     0.61182   0.15384   0.58413   0.00000  Uiso   1.00
C480   C     0.35866   0.19857   0.95172   0.00000  Uiso   1.00
C481   C     0.38375   0.20884   0.50882   0.00000  Uiso   1.00
C482   C     0.46796   0.16382   0.99444   0.00000  Uiso   1.00
C483   C     0.43868   0.19258   0.53001   0.00000  Uiso   1.00
C484   C     0.56241   0.23681   0.56790   0.00000  Uiso   1.00
C485   C     0.43738   0.14509   0.94051   0.00000  Uiso   1.00
C486   C     0.52601   0.15140   0.51153   0.00000  Uiso   1.00
C487   C     0.54611   0.10911   0.98285   0.00000  Uiso   1.00
C488   C     0.51171   0.08549   0.93324   0.00000  Uiso   1.00
C489   C     0.45853   0.10426   0.91132   0.00000  Uiso   1.00
C490   C     0.56470   0.17928   0.55653   0.00000  Uiso   1.00
C491   C     0.63103   0.11091   0.55733   0.00000  Uiso   1.00
H492   H     0.33516   0.09186   0.57799   0.00000  Uiso   1.00
H493   H     0.48983   0.12493   0.70806   0.00000  Uiso   1.00
H494   H     0.52634   0.05318   0.91088   0.00000  Uiso   1.00
H495   H     0.53810   0.30540   0.53657   0.00000  Uiso   1.00
H496   H     0.60144   0.32993   0.75620   0.00000  Uiso   1.00
H497   H     0.51017   0.20839   0.79195   0.00000  Uiso   1.00
H498   H     0.61525   0.05757   0.98432   0.00000  Uiso   1.00
H499   H     0.65191   0.21557   0.93444   0.00000  Uiso   1.00
H500   H     0.45768   0.20215   0.57427   0.00000  Uiso   1.00
H501   H     0.36193   0.23151   0.53599   0.00000  Uiso   1.00
H502   H     0.43315   0.08535   0.87242   0.00000  Uiso   1.00
H503   H     0.39855   0.00340   0.74376   0.00000  Uiso   1.00
N504   N     0.47827   0.15223   0.73543   0.00000  Uiso   1.00
N505   N     0.52173   0.18110   0.76458   0.00000  Uiso   1.00
O506   O     0.63102   0.24629   0.75358   0.00000  Uiso   1.00
O507   O     0.53618   0.26698   0.52436   0.00000  Uiso   1.00
O508   O     0.39075   0.23704   0.74424   0.00000  Uiso   1.00
O509   O     0.64823   0.17358   0.83380   0.00000  Uiso   1.00
O510   O     0.40796   0.16433   0.82446   0.00000  Uiso   1.00
O511   O     0.60925   0.09629   0.75576   0.00000  Uiso   1.00
O512   O     0.36898   0.08704   0.74643   0.00000  Uiso   1.00
O513   O     0.59204   0.16901   0.67554   0.00000  Uiso   1.00
O514   O     0.35177   0.15976   0.66620   0.00000  Uiso   1.00
O515   O     0.58553   0.25828   0.61385   0.00000  Uiso   1.00
Zn516  Zn    0.60453   0.17284   0.75624   0.00000  Uiso   1.00
Zn517  Zn    0.39547   0.16049   0.74377   0.00000  Uiso   1.00
C518   C     0.68155   0.26492   0.74861   0.00000  Uiso   1.00
C519   C     0.71995   0.16833   0.91692   0.00000  Uiso   1.00
C520   C     0.68928   0.31951   0.74783   0.00000  Uiso   1.00
C521   C     0.70200   0.16807   0.85545   0.00000  Uiso   1.00
C522   C     0.97738   0.01383   0.75213   0.00000  Uiso   1.00
C523   C     0.98511   0.06842   0.75138   0.00000  Uiso   1.00
C524   C     0.96441   0.16329   0.64468   0.00000  Uiso   1.00
C525   C     0.93315   0.09043   0.50504   0.00000  Uiso   1.00
C526   C     0.94515   0.15384   0.58413   0.00000  Uiso   1.00
C527   C     0.69199   0.19857   0.95172   0.00000  Uiso   1.00
C528   C     0.71708   0.20884   0.50882   0.00000  Uiso   1.00
C529   C     0.80130   0.16382   0.99444   0.00000  Uiso   1.00
C530   C     0.77202   0.19258   0.53001   0.00000  Uiso   1.00
C531   C     0.89574   0.23681   0.56790   0.00000  Uiso   1.00
C532   C     0.77071   0.14509   0.94051   0.00000  Uiso   1.00
C533   C     0.85935   0.15140   0.51153   0.00000  Uiso   1.00
C534   C     0.87944   0.10911   0.98285   0.00000  Uiso   1.00
C535   C     0.84504   0.08549   0.93324   0.00000  Uiso   1.00
C536   C     0.79187   0.10426   0.91132   0.00000  Uiso   1.00
C537   C     0.89804   0.17928   0.55653   0.00000  Uiso   1.00
C538   C     0.96436   0.11091   0.55733   0.00000  Uiso   1.00
H539   H     0.66849   0.09186   0.57799   0.00000  Uiso   1.00
H540   H     0.82317   0.12493   0.70806   0.00000  Uiso   1.00
H541   H     0.85967   0.05318   0.91088   0.00000  Uiso   1.00
H542   H     0.87143   0.30540   0.53657   0.00000  Uiso   1.00
H543   H     0.93477   0.32993   0.75620   0.00000  Uiso   1.00
H544   H     0.84350   0.20839   0.79195   0.00000  Uiso   1.00
H545   H     0.94859   0.05757   0.98432   0.00000  Uiso   1.00
H546   H     0.98525   0.21557   0.93444   0.00000  Uiso   1.00
H547   H     0.79102   0.20215   0.57427   0.00000  Uiso   1.00
H548   H     0.69526   0.23151   0.53599   0.00000  Uiso   1.00
H549   H     0.76648   0.08535   0.87242   0.00000  Uiso   1.00
H550   H     0.73188   0.00340   0.74376   0.00000  Uiso   1.00
N551   N     0.81160   0.15223   0.73543   0.00000  Uiso   1.00
N552   N     0.85507   0.18110   0.76458   0.00000  Uiso   1.00
O553   O     0.96435   0.24629   0.75358   0.00000  Uiso   1.00
O554   O     0.86951   0.26698   0.52436   0.00000  Uiso   1.00
O555   O     0.72408   0.23704   0.74424   0.00000  Uiso   1.00
O556   O     0.98157   0.17358   0.83380   0.00000  Uiso   1.00
O557   O     0.74130   0.16433   0.82446   0.00000  Uiso   1.00
O558   O     0.94258   0.09629   0.75576   0.00000  Uiso   1.00
O559   O     0.70231   0.08704   0.74643   0.00000  Uiso   1.00
O560   O     0.92537   0.16901   0.67554   0.00000  Uiso   1.00
O561   O     0.68510   0.15976   0.66620   0.00000  Uiso   1.00
O562   O     0.91886   0.25828   0.61385   0.00000  Uiso   1.00
Zn563  Zn    0.93786   0.17284   0.75624   0.00000  Uiso   1.00
Zn564  Zn    0.72881   0.16049   0.74377   0.00000  Uiso   1.00
C565   C     0.01489   0.59825   0.74861   0.00000  Uiso   1.00
C566   C     0.05329   0.50166   0.91692   0.00000  Uiso   1.00
C567   C     0.02262   0.65284   0.74783   0.00000  Uiso   1.00
C568   C     0.03534   0.50140   0.85545   0.00000  Uiso   1.00
C569   C     0.31071   0.34716   0.75213   0.00000  Uiso   1.00
C570   C     0.31845   0.40175   0.75138   0.00000  Uiso   1.00
C571   C     0.29774   0.49662   0.64468   0.00000  Uiso   1.00
C572   C     0.26648   0.42376   0.50504   0.00000  Uiso   1.00
C573   C     0.27848   0.48717   0.58413   0.00000  Uiso   1.00
C574   C     0.02533   0.53190   0.95172   0.00000  Uiso   1.00
C575   C     0.05042   0.54217   0.50882   0.00000  Uiso   1.00
C576   C     0.13463   0.49716   0.99444   0.00000  Uiso   1.00
C577   C     0.10535   0.52592   0.53001   0.00000  Uiso   1.00
C578   C     0.22908   0.57014   0.56790   0.00000  Uiso   1.00
C579   C     0.10404   0.47843   0.94051   0.00000  Uiso   1.00
C580   C     0.19268   0.48474   0.51153   0.00000  Uiso   1.00
C581   C     0.21277   0.44244   0.98285   0.00000  Uiso   1.00
C582   C     0.17838   0.41883   0.93324   0.00000  Uiso   1.00
C583   C     0.12520   0.43760   0.91132   0.00000  Uiso   1.00
C584   C     0.23137   0.51262   0.55653   0.00000  Uiso   1.00
C585   C     0.29770   0.44424   0.55733   0.00000  Uiso   1.00
H586   H     0.00182   0.42519   0.57799   0.00000  Uiso   1.00
H587   H     0.15650   0.45827   0.70806   0.00000  Uiso   1.00
H588   H     0.19300   0.38651   0.91088   0.00000  Uiso   1.00
H589   H     0.20477   0.63873   0.53657   0.00000  Uiso   1.00
H590   H     0.26811   0.66326   0.75620   0.00000  Uiso   1.00
H591   H     0.17683   0.54173   0.79195   0.00000  Uiso   1.00
H592   H     0.28192   0.39091   0.98432   0.00000  Uiso   1.00
H593   H     0.31858   0.54891   0.93444   0.00000  Uiso   1.00
H594   H     0.12435   0.53548   0.57427   0.00000  Uiso   1.00
H595   H     0.02860   0.56484   0.53599   0.00000  Uiso   1.00
H596   H     0.09981   0.41868   0.87242   0.00000  Uiso   1.00
H597   H     0.06522   0.33674   0.74376   0.00000  Uiso   1.00
N598   N     0.14493   0.48556   0.73543   0.00000  Uiso   1.00
N599   N     0.18840   0.51444   0.76458   0.00000  Uiso   1.00
O600   O     0.29769   0.57963   0.75358   0.00000  Uiso   1.00
O601   O     0.20284   0.60032   0.52436   0.00000  Uiso   1.00
O602   O     0.05742   0.57038   0.74424   0.00000  Uiso   1.00
O603   O     0.31490   0.50691   0.83380   0.00000  Uiso   1.00
O604   O     0.07463   0.49766   0.82446   0.00000  Uiso   1.00
O605   O     0.27592   0.42962   0.75576   0.00000  Uiso   1.00
O606   O     0.03565   0.42037   0.74643   0.00000  Uiso   1.00
O607   O     0.25870   0.50234   0.67554   0.00000  Uiso   1.00
O608   O     0.01843   0.49309   0.66620   0.00000  Uiso   1.00
O609   O     0.25220   0.59162   0.61385   0.00000  Uiso   1.00
Zn610  Zn    0.27119   0.50618   0.75624   0.00000  Uiso   1.00
Zn611  Zn    0.06214   0.49382   0.74377   0.00000  Uiso   1.00
C612   C     0.34822   0.59825   0.74861   0.00000  Uiso   1.00
C613   C     0.38662   0.50166   0.91692   0.00000  Uiso   1.00
C614   C     0.35595   0.65284   0.74783   0.00000  Uiso   1.00
C615   C     0.36867   0.50140   0.85545   0.00000  Uiso   1.00
C616   C     0.64404   0.34716   0.75213   0.00000  Uiso   1.00
C617   C     0.65178   0.40175   0.75138   0.00000  Uiso   1.00
C618   C     0.63107   0.49662   0.64468   0.00000  Uiso   1.00
C619   C     0.59981   0.42376   0.50504   0.00000  Uiso   1.00
C620   C     0.61182   0.48717   0.58413   0.00000  Uiso   1.00
C621   C     0.35866   0.53190   0.95172   0.00000  Uiso   1.00
C622   C     0.38375   0.54217   0.50882   0.00000  Uiso   1.00
C623   C     0.46796   0.49716   0.99444   0.00000  Uiso   1.00
C624   C     0.43868   0.52592   0.53001   0.00000  Uiso   1.00
C625   C     0.56241   0.57014   0.56790   0.00000  Uiso   1.00
C626   C     0.43738   0.47843   0.94051   0.00000  Uiso   1.00
C627   C     0.52601   0.48474   0.51153   0.00000  Uiso   1.00
C628   C     0.54611   0.44244   0.98285   0.00000  Uiso   1.00
C629   C     0.51171   0.41883   0.93324   0.00000  Uiso   1.00
C630   C     0.45853   0.43760   0.91132   0.00000  Uiso   1.00
C631   C     0.56470   0.51262   0.55653   0.00000  Uiso   1.00
C632   C     0.63103   0.44424   0.55733   0.00000  Uiso   1.00
H633   H     0.33516   0.42519   0.57799   0.00000  Uiso   1.00
H634   H     0.48983   0.45827   0.70806   0.00000  Uiso   1.00
H635   H     0.52634   0.38651   0.91088   0.00000  Uiso   1.00
H636   H     0.53810   0.63873   0.53657   0.00000  Uiso   1.00
H637   H     0.60144   0.66326   0.75620   0.00000  Uiso   1.00
H638   H     0.51017   0.54173   0.79195   0.00000  Uiso   1.00
H639   H     0.61525   0.39091   0.98432   0.00000  Uiso   1.00
H640   H     0.65191   0.54891   0.93444   0.00000  Uiso   1.00
H641   H     0.45768   0.53548   0.57427   0.00000  Uiso   1.00
H642   H     0.36193   0.56484   0.53599   0.00000  Uiso   1.00
H643   H     0.43315   0.41868   0.87242   0.00000  Uiso   1.00
H644   H     0.39855   0.33674   0.74376   0.00000  Uiso   1.00
N645   N     0.47827   0.48556   0.73543   0.00000  Uiso   1.00
N646   N     0.52173   0.51444   0.76458   0.00000  Uiso   1.00
O647   O     0.63102   0.57963   0.75358   0.00000  Uiso   1.00
O648   O     0.53618   0.60032   0.52436   0.00000  Uiso   1.00
O649   O     0.39075   0.57038   0.74424   0.00000  Uiso   1.00
O650   O     0.64823   0.50691   0.83380   0.00000  Uiso   1.00
O651   O     0.40796   0.49766   0.82446   0.00000  Uiso   1.00
O652   O     0.60925   0.42962   0.75576   0.00000  Uiso   1.00
O653   O     0.36898   0.42037   0.74643   0.00000  Uiso   1.00
O654   O     0.59204   0.50234   0.67554   0.00000  Uiso   1.00
O655   O     0.35177   0.49309   0.66620   0.00000  Uiso   1.00
O656   O     0.58553   0.59162   0.61385   0.00000  Uiso   1.00
Zn657  Zn    0.60453   0.50618   0.75624   0.00000  Uiso   1.00
Zn658  Zn    0.39547   0.49382   0.74377   0.00000  Uiso   1.00
C659   C     0.68155   0.59825   0.74861   0.00000  Uiso   1.00
C660   C     0.71995   0.50166   0.91692   0.00000  Uiso   1.00
C661   C     0.68928   0.65284   0.74783   0.00000  Uiso   1.00
C662   C     0.70200   0.50140   0.85545   0.00000  Uiso   1.00
C663   C     0.97738   0.34716   0.75213   0.00000  Uiso   1.00
C664   C     0.98511   0.40175   0.75138   0.00000  Uiso   1.00
C665   C     0.96441   0.49662   0.64468   0.00000  Uiso   1.00
C666   C     0.93315   0.42376   0.50504   0.00000  Uiso   1.00
C667   C     0.94515   0.48717   0.58413   0.00000  Uiso   1.00
C668   C     0.69199   0.53190   0.95172   0.00000  Uiso   1.00
C669   C     0.71708   0.54217   0.50882   0.00000  Uiso   1.00
C670   C     0.80130   0.49716   0.99444   0.00000  Uiso   1.00
C671   C     0.77202   0.52592   0.53001   0.00000  Uiso   1.00
C672   C     0.89574   0.57014   0.56790   0.00000  Uiso   1.00
C673   C     0.77071   0.47843   0.94051   0.00000  Uiso   1.00
C674   C     0.85935   0.48474   0.51153   0.00000  Uiso   1.00
C675   C     0.87944   0.44244   0.98285   0.00000  Uiso   1.00
C676   C     0.84504   0.41883   0.93324   0.00000  Uiso   1.00
C677   C     0.79187   0.43760   0.91132   0.00000  Uiso   1.00
C678   C     0.89804   0.51262   0.55653   0.00000  Uiso   1.00
C679   C     0.96436   0.44424   0.55733   0.00000  Uiso   1.00
H680   H     0.66849   0.42519   0.57799   0.00000  Uiso   1.00
H681   H     0.82317   0.45827   0.70806   0.00000  Uiso   1.00
H682   H     0.85967   0.38651   0.91088   0.00000  Uiso   1.00
H683   H     0.87143   0.63873   0.53657   0.00000  Uiso   1.00
H684   H     0.93477   0.66326   0.75620   0.00000  Uiso   1.00
H685   H     0.84350   0.54173   0.79195   0.00000  Uiso   1.00
H686   H     0.94859   0.39091   0.98432   0.00000  Uiso   1.00
H687   H     0.98525   0.54891   0.93444   0.00000  Uiso   1.00
H688   H     0.79102   0.53548   0.57427   0.00000  Uiso   1.00
H689   H     0.69526   0.56484   0.53599   0.00000  Uiso   1.00
H690   H     0.76648   0.41868   0.87242   0.00000  Uiso   1.00
H691   H     0.73188   0.33674   0.74376   0.00000  Uiso   1.00
N692   N     0.81160   0.48556   0.73543   0.00000  Uiso   1.00
N693   N     0.85507   0.51444   0.76458   0.00000  Uiso   1.00
O694   O     0.96435   0.57963   0.75358   0.00000  Uiso   1.00
O695   O     0.86951   0.60032   0.52436   0.00000  Uiso   1.00
O696   O     0.72408   0.57038   0.74424   0.00000  Uiso   1.00
O697   O     0.98157   0.50691   0.83380   0.00000  Uiso   1.00
O698   O     0.74130   0.49766   0.82446   0.00000  Uiso   1.00
O699   O     0.94258   0.42962   0.75576   0.00000  Uiso   1.00
O700   O     0.70231   0.42037   0.74643   0.00000  Uiso   1.00
O701   O     0.92537   0.50234   0.67554   0.00000  Uiso   1.00
O702   O     0.68510   0.49309   0.66620   0.00000  Uiso   1.00
O703   O     0.91886   0.59162   0.61385   0.00000  Uiso   1.00
Zn704  Zn    0.93786   0.50618   0.75624   0.00000  Uiso   1.00
Zn705  Zn    0.72881   0.49382   0.74377   0.00000  Uiso   1.00
C706   C     0.01489   0.93158   0.74861   0.00000  Uiso   1.00
C707   C     0.05329   0.83499   0.91692   0.00000  Uiso   1.00
C708   C     0.02262   0.98617   0.74783   0.00000  Uiso   1.00
C709   C     0.03534   0.83473   0.85545   0.00000  Uiso   1.00
C710   C     0.31071   0.68050   0.75213   0.00000  Uiso   1.00
C711   C     0.31845   0.73508   0.75138   0.00000  Uiso   1.00
C712   C     0.29774   0.82995   0.64468   0.00000  Uiso   1.00
C713   C     0.26648   0.75710   0.50504   0.00000  Uiso   1.00
C714   C     0.27848   0.82050   0.58413   0.00000  Uiso   1.00
C715   C     0.02533   0.86523   0.95172   0.00000  Uiso   1.00
C716   C     0.05042   0.87550   0.50882   0.00000  Uiso   1.00
C717   C     0.13463   0.83049   0.99444   0.00000  Uiso   1.00
C718   C     0.10535   0.85925   0.53001   0.00000  Uiso   1.00
C719   C     0.22908   0.90348   0.56790   0.00000  Uiso   1.00
C720   C     0.10404   0.81176   0.94051   0.00000  Uiso   1.00
C721   C     0.19268   0.81807   0.51153   0.00000  Uiso   1.00
C722   C     0.21277   0.77578   0.98285   0.00000  Uiso   1.00
C723   C     0.17838   0.75216   0.93324   0.00000  Uiso   1.00
C724   C     0.12520   0.77093   0.91132   0.00000  Uiso   1.00
C725   C     0.23137   0.84595   0.55653   0.00000  Uiso   1.00
C726   C     0.29770   0.77758   0.55733   0.00000  Uiso   1.00
H727   H     0.00182   0.75852   0.57799   0.00000  Uiso   1.00
H728   H     0.15650   0.79160   0.70806   0.00000  Uiso   1.00
H729   H     0.19300   0.71985   0.91088   0.00000  Uiso   1.00
H730   H     0.20477   0.97206   0.53657   0.00000  Uiso   1.00
H731   H     0.26811   0.99660   0.75620   0.00000  Uiso   1.00
H732   H     0.17683   0.87506   0.79195   0.00000  Uiso   1.00
H733   H     0.28192   0.72424   0.98432   0.00000  Uiso   1.00
H734   H     0.31858   0.88224   0.93444   0.00000  Uiso   1.00
H735   H     0.12435   0.86882   0.57427   0.00000  Uiso   1.00
H736   H     0.02860   0.89817   0.53599   0.00000  Uiso   1.00
H737   H     0.09981   0.75202   0.87242   0.00000  Uiso   1.00
H738   H     0.06522   0.67007   0.74376   0.00000  Uiso   1.00
N739   N     0.14493   0.81890   0.73543   0.00000  Uiso   1.00
N740   N     0.18840   0.84777   0.76458   0.00000  Uiso   1.00
O741   O     0.29769   0.91296   0.75358   0.00000  Uiso   1.00
O742   O     0.20284   0.93365   0.52436   0.00000  Uiso   1.00
O743   O     0.05742   0.90371   0.74424   0.00000  Uiso   1.00
O744   O     0.31490   0.84024   0.83380   0.00000  Uiso   1.00
O745   O     0.07463   0.83099   0.82446   0.00000  Uiso   1.00
O746   O     0.27592   0.76296   0.75576   0.00000  Uiso   1.00
O747   O     0.03565   0.75371   0.74643   0.00000  Uiso   1.00
O748   O     0.25870   0.83567   0.67554   0.00000  Uiso   1.00
O749   O     0.01843   0.82642   0.66620   0.00000  Uiso   1.00
O750   O     0.25220   0.92495   0.61385   0.00000  Uiso   1.00
Zn751  Zn    0.27119   0.83951   0.75624   0.00000  Uiso   1.00
Zn752  Zn    0.06214   0.82716   0.74377   0.00000  Uiso   1.00
C753   C     0.34822   0.93158   0.74861   0.00000  Uiso   1.00
C754   C     0.38662   0.83499   0.91692   0.00000  Uiso   1.00
C755   C     0.35595   0.98617   0.74783   0.00000  Uiso   1.00
C756   C     0.36867   0.83473   0.85545   0.00000  Uiso   1.00
C757   C     0.64404   0.68050   0.75213   0.00000  Uiso   1.00
C758   C     0.65178   0.73508   0.75138   0.00000  Uiso   1.00
C759   C     0.63107   0.82995   0.64468   0.00000  Uiso   1.00
C760   C     0.59981   0.75710   0.50504   0.00000  Uiso   1.00
C761   C     0.61182   0.82050   0.58413   0.00000  Uiso   1.00
C762   C     0.35866   0.86523   0.95172   0.00000  Uiso   1.00
C763   C     0.38375   0.87550   0.50882   0.00000  Uiso   1.00
C764   C     0.46796   0.83049   0.99444   0.00000  Uiso   1.00
C765   C     0.43868   0.85925   0.53001   0.00000  Uiso   1.00
C766   C     0.56241   0.90348   0.56790   0.00000  Uiso   1.00
C767   C     0.43738   0.81176   0.94051   0.00000  Uiso   1.00
C768   C     0.52601   0.81807   0.51153   0.00000  Uiso   1.00
C769   C     0.54611   0.77578   0.98285   0.00000  Uiso   1.00
C770   C     0.51171   0.75216   0.93324   0.00000  Uiso   1.00
C771   C     0.45853   0.77093   0.91132   0.00000  Uiso   1.00
C772   C     0.56470   0.84595   0.55653   0.00000  Uiso   1.00
C773   C     0.63103   0.77758   0.55733   0.00000  Uiso   1.00
H774   H     0.33516   0.75852   0.57799   0.00000  Uiso   1.00
H775   H     0.48983   0.79160   0.70806   0.00000  Uiso   1.00
H776   H     0.52634   0.71985   0.91088   0.00000  Uiso   1.00
H777   H     0.53810   0.97206   0.53657   0.00000  Uiso   1.00
H778   H     0.60144   0.99660   0.75620   0.00000  Uiso   1.00
H779   H     0.51017   0.87506   0.79195   0.00000  Uiso   1.00
H780   H     0.61525   0.72424   0.98432   0.00000  Uiso   1.00
H781   H     0.65191   0.88224   0.93444   0.00000  Uiso   1.00
H782   H     0.45768   0.86882   0.57427   0.00000  Uiso   1.00
H783   H     0.36193   0.89817   0.53599   0.00000  Uiso   1.00
H784   H     0.43315   0.75202   0.87242   0.00000  Uiso   1.00
H785   H     0.39855   0.67007   0.74376   0.00000  Uiso   1.00
N786   N     0.47827   0.81890   0.73543   0.00000  Uiso   1.00
N787   N     0.52173   0.84777   0.76458   0.00000  Uiso   1.00
O788   O     0.63102   0.91296   0.75358   0.00000  Uiso   1.00
O789   O     0.53618   0.93365   0.52436   0.00000  Uiso   1.00
O790   O     0.39075   0.90371   0.74424   0.00000  Uiso   1.00
O791   O     0.64823   0.84024   0.83380   0.00000  Uiso   1.00
O792   O     0.40796   0.83099   0.82446   0.00000  Uiso   1.00
O793   O     0.60925   0.76296   0.75576   0.00000  Uiso   1.00
O794   O     0.36898   0.75371   0.74643   0.00000  Uiso   1.00
O795   O     0.59204   0.83567   0.67554   0.00000  Uiso   1.00
O796   O     0.35177   0.82642   0.66620   0.00000  Uiso   1.00
O797   O     0.58553   0.92495   0.61385   0.00000  Uiso   1.00
Zn798  Zn    0.60453   0.83951   0.75624   0.00000  Uiso   1.00
Zn799  Zn    0.39547   0.82716   0.74377   0.00000  Uiso   1.00
C800   C     0.68155   0.93158   0.74861   0.00000  Uiso   1.00
C801   C     0.71995   0.83499   0.91692   0.00000  Uiso   1.00
C802   C     0.68928   0.98617   0.74783   0.00000  Uiso   1.00
C803   C     0.70200   0.83473   0.85545   0.00000  Uiso   1.00
C804   C     0.97738   0.68050   0.75213   0.00000  Uiso   1.00
C805   C     0.98511   0.73508   0.75138   0.00000  Uiso   1.00
C806   C     0.96441   0.82995   0.64468   0.00000  Uiso   1.00
C807   C     0.93315   0.75710   0.50504   0.00000  Uiso   1.00
C808   C     0.94515   0.82050   0.58413   0.00000  Uiso   1.00
C809   C     0.69199   0.86523   0.95172   0.00000  Uiso   1.00
C810   C     0.71708   0.87550   0.50882   0.00000  Uiso   1.00
C811   C     0.80130   0.83049   0.99444   0.00000  Uiso   1.00
C812   C     0.77202   0.85925   0.53001   0.00000  Uiso   1.00
C813   C     0.89574   0.90348   0.56790   0.00000  Uiso   1.00
C814   C     0.77071   0.81176   0.94051   0.00000  Uiso   1.00
C815   C     0.85935   0.81807   0.51153   0.00000  Uiso   1.00
C816   C     0.87944   0.77578   0.98285   0.00000  Uiso   1.00
C817   C     0.84504   0.75216   0.93324   0.00000  Uiso   1.00
C818   C     0.79187   0.77093   0.91132   0.00000  Uiso   1.00
C819   C     0.89804   0.84595   0.55653   0.00000  Uiso   1.00
C820   C     0.96436   0.77758   0.55733   0.00000  Uiso   1.00
H821   H     0.66849   0.75852   0.57799   0.00000  Uiso   1.00
H822   H     0.82317   0.79160   0.70806   0.00000  Uiso   1.00
H823   H     0.85967   0.71985   0.91088   0.00000  Uiso   1.00
H824   H     0.87143   0.97206   0.53657   0.00000  Uiso   1.00
H825   H     0.93477   0.99660   0.75620   0.00000  Uiso   1.00
H826   H     0.84350   0.87506   0.79195   0.00000  Uiso   1.00
H827   H     0.94859   0.72424   0.98432   0.00000  Uiso   1.00
H828   H     0.98525   0.88224   0.93444   0.00000  Uiso   1.00
H829   H     0.79102   0.86882   0.57427   0.00000  Uiso   1.00
H830   H     0.69526   0.89817   0.53599   0.00000  Uiso   1.00
H831   H     0.76648   0.75202   0.87242   0.00000  Uiso   1.00
H832   H     0.73188   0.67007   0.74376   0.00000  Uiso   1.00
N833   N     0.81160   0.81890   0.73543   0.00000  Uiso   1.00
N834   N     0.85507   0.84777   0.76458   0.00000  Uiso   1.00
O835   O     0.96435   0.91296   0.75358   0.00000  Uiso   1.00
O836   O     0.86951   0.93365   0.52436   0.00000  Uiso   1.00
O837   O     0.72408   0.90371   0.74424   0.00000  Uiso   1.00
O838   O     0.98157   0.84024   0.83380   0.00000  Uiso   1.00
O839   O     0.74130   0.83099   0.82446   0.00000  Uiso   1.00
O840   O     0.94258   0.76296   0.75576   0.00000  Uiso   1.00
O841   O     0.70231   0.75371   0.74643   0.00000  Uiso   1.00
O842   O     0.92537   0.83567   0.67554   0.00000  Uiso   1.00
O843   O     0.68510   0.82642   0.66620   0.00000  Uiso   1.00
O844   O     0.91886   0.92495   0.61385   0.00000  Uiso   1.00
Zn845  Zn    0.93786   0.83951   0.75624   0.00000  Uiso   1.00
Zn846  Zn    0.72881   0.82716   0.74377   0.00000  Uiso   1.00
loop_
_geom_bond_atom_site_label_1
_geom_bond_atom_site_label_2
_geom_bond_distance
_geom_bond_site_symmetry_2
_ccdc_geom_bond_type
C1     O38     1.289   .     A
C1     C3      1.403   .     S
C1     O130    1.276   1_455 S
C2     C4      1.455   .     S
C2     C15     1.403   .     A
C2     C10     1.404   .     A
C3     C240    1.339   1_455 S
C3     H174    1.088   .     S
C4     O40     1.299   .     A
C4     O133    1.290   1_455 S
C5     C6      1.402   .     S
C5     C332    1.339   1_545 S
C5     H308    1.088   1_545 S
C6     O41     1.289   .     A
C6     O89     1.276   .     S
C7     O43     1.299   .     A
C7     C9      1.443   .     S
C7     O91     1.286   .     S
C8     C21     1.389   .     A
C8     C440    1.398   1_554 S
C8     H451    1.084   1_554 S
C9     C20     1.396   .     A
C9     C21     1.402   .     A
C10    C434    1.391   .     S
C10    H123    1.083   1_455 S
C11    H31     1.083   .     S
C11    C13     1.393   .     A
C11    C433    1.391   1_554 S
C12    C15     1.403   .     A
C12    C436    1.415   .     S
C12    C439    1.410   .     S
C13    H30     1.082   .     S
C13    C435    1.415   1_554 S
C14    O45     1.223   .     D
C14    O37     1.400   .     S
C14    C20     1.500   .     S
C15    C19     1.412   .     A
C16    C20     1.405   .     A
C16    C435    1.410   1_554 S
C16    C440    1.422   1_554 S
C17    C18     1.393   .     A
C17    C431    1.398   .     S
C17    C439    1.422   .     S
C18    H24     1.084   .     S
C18    C19     1.387   .     A
C19    H32     1.083   .     S
C21    H69     1.083   .     S
H22    C115    1.083   1_455 S
H23    N34     1.029   .     S
H25    O37     1.014   .     S
H26    C146    1.088   .     S
H27    N35     1.029   .     S
H28    C431    1.084   .     S
H29    C57     1.083   .     S
H33    C285    1.088   1_545 S
N34    N35     1.287   .     D
N34    Zn47    2.019   .     S
N35    Zn46    2.019   .     S
O36    Zn46    1.951   .     S
O36    C48     1.276   .     S
O38    Zn47    1.978   .     S
O39    Zn46    1.945   .     S
O39    C51     1.290   .     S
O40    Zn47    1.901   .     S
O41    Zn46    1.978   .     S
O42    Zn47    1.951   .     S
O42    C100    1.276   1_455 S
O43    Zn46    1.901   .     S
O44    Zn47    1.945   .     S
O44    C101    1.286   1_455 S
C48    O85     1.289   .     A
C48    C50     1.403   .     S
C49    C51     1.455   .     S
C49    C62     1.403   .     A
C49    C57     1.404   .     A
C50    C146    1.339   .     S
C50    H221    1.088   .     S
C51    O87     1.299   .     A
C52    C53     1.402   .     S
C52    C379    1.339   1_545 S
C52    H355    1.088   1_545 S
C53    O88     1.289   .     A
C53    O136    1.276   .     S
C54    O90     1.299   .     A
C54    C56     1.443   .     S
C54    O138    1.286   .     S
C55    C68     1.389   .     A
C55    C487    1.398   1_554 S
C55    H498    1.084   1_554 S
C56    C67     1.396   .     A
C56    C68     1.402   .     A
C57    C481    1.391   .     S
C58    H78     1.083   .     S
C58    C60     1.393   .     A
C58    C480    1.391   1_554 S
C59    C62     1.403   .     A
C59    C483    1.415   .     S
C59    C486    1.410   .     S
C60    H77     1.082   .     S
C60    C482    1.415   1_554 S
C61    O92     1.223   .     D
C61    O84     1.400   .     S
C61    C67     1.500   .     S
C62    C66     1.412   .     A
C63    C67     1.405   .     A
C63    C482    1.410   1_554 S
C63    C487    1.422   1_554 S
C64    C65     1.393   .     A
C64    C478    1.398   .     S
C64    C486    1.422   .     S
C65    H71     1.084   .     S
C65    C66     1.387   .     A
C66    H79     1.083   .     S
C68    H116    1.083   .     S
H70    N81     1.029   .     S
H72    O84     1.014   .     S
H73    C193    1.088   .     S
H74    N82     1.029   .     S
H75    C478    1.084   .     S
H76    C104    1.083   .     S
H80    C332    1.088   1_545 S
N81    N82     1.287   .     D
N81    Zn94    2.019   .     S
N82    Zn93    2.019   .     S
O83    Zn93    1.951   .     S
O83    C95     1.276   .     S
O85    Zn94    1.978   .     S
O86    Zn93    1.945   .     S
O86    C98     1.290   .     S
O87    Zn94    1.901   .     S
O88    Zn93    1.978   .     S
O89    Zn94    1.951   .     S
O90    Zn93    1.901   .     S
O91    Zn94    1.945   .     S
C95    O132    1.289   .     A
C95    C97     1.403   .     S
C96    C98     1.455   .     S
C96    C109    1.403   .     A
C96    C104    1.404   .     A
C97    C193    1.339   .     S
C97    H268    1.088   .     S
C98    O134    1.299   .     A
C99    C100    1.402   .     S
C99    C285    1.339   1_645 S
C99    H402    1.088   1_545 S
C100   O135    1.289   .     A
C100   O42     1.276   1_655 S
C101   O137    1.299   .     A
C101   C103    1.443   .     S
C101   O44     1.286   1_655 S
C102   C115    1.389   .     A
C102   C534    1.398   1_554 S
C102   H545    1.084   1_554 S
C103   C114    1.396   .     A
C103   C115    1.402   .     A
C104   C528    1.391   .     S
C105   H125    1.083   .     S
C105   C107    1.393   .     A
C105   C527    1.391   1_554 S
C106   C109    1.403   .     A
C106   C530    1.415   .     S
C106   C533    1.410   .     S
C107   H124    1.082   .     S
C107   C529    1.415   1_554 S
C108   O139    1.223   .     D
C108   O131    1.400   .     S
C108   C114    1.500   .     S
C109   C113    1.412   .     A
C110   C114    1.405   .     A
C110   C529    1.410   1_554 S
C110   C534    1.422   1_554 S
C111   C112    1.393   .     A
C111   C525    1.398   .     S
C111   C533    1.422   .     S
C112   H118    1.084   .     S
C112   C113    1.387   .     A
C113   H126    1.083   .     S
C115   H22     1.083   1_655 S
H117   N128    1.029   .     S
H119   O131    1.014   .     S
H120   C240    1.088   .     S
H121   N129    1.029   .     S
H122   C525    1.084   .     S
H123   C10     1.083   1_655 S
H127   C379    1.088   1_545 S
N128   N129    1.287   .     D
N128   Zn141   2.019   .     S
N129   Zn140   2.019   .     S
O130   Zn140   1.951   .     S
O130   C1      1.276   1_655 S
O132   Zn141   1.978   .     S
O133   Zn140   1.945   .     S
O133   C4      1.290   1_655 S
O134   Zn141   1.901   .     S
O135   Zn140   1.978   .     S
O136   Zn141   1.951   .     S
O137   Zn140   1.901   .     S
O138   Zn141   1.945   .     S
C142   O179    1.289   .     A
C142   C144    1.403   .     S
C142   O271    1.276   1_455 S
C143   C145    1.455   .     S
C143   C156    1.403   .     A
C143   C151    1.404   .     A
C144   C381    1.339   1_455 S
C144   H315    1.088   .     S
C145   O181    1.299   .     A
C145   O274    1.290   1_455 S
C146   C147    1.402   .     S
C147   O182    1.289   .     A
C147   O230    1.276   .     S
C148   O184    1.299   .     A
C148   C150    1.443   .     S
C148   O232    1.286   .     S
C149   C162    1.389   .     A
C149   C581    1.398   1_554 S
C149   H592    1.084   1_554 S
C150   C161    1.396   .     A
C150   C162    1.402   .     A
C151   C575    1.391   .     S
C151   H264    1.083   1_455 S
C152   H172    1.083   .     S
C152   C154    1.393   .     A
C152   C574    1.391   1_554 S
C153   C156    1.403   .     A
C153   C577    1.415   .     S
C153   C580    1.410   .     S
C154   H171    1.082   .     S
C154   C576    1.415   1_554 S
C155   O186    1.223   .     D
C155   O178    1.400   .     S
C155   C161    1.500   .     S
C156   C160    1.412   .     A
C157   C161    1.405   .     A
C157   C576    1.410   1_554 S
C157   C581    1.422   1_554 S
C158   C159    1.393   .     A
C158   C572    1.398   .     S
C158   C580    1.422   .     S
C159   H165    1.084   .     S
C159   C160    1.387   .     A
C160   H173    1.083   .     S
C162   H210    1.083   .     S
H163   C256    1.083   1_455 S
H164   N175    1.029   .     S
H166   O178    1.014   .     S
H167   C287    1.088   .     S
H168   N176    1.029   .     S
H169   C572    1.084   .     S
H170   C198    1.083   .     S
N175   N176    1.287   .     D
N175   Zn188   2.019   .     S
N176   Zn187   2.019   .     S
O177   Zn187   1.951   .     S
O177   C189    1.276   .     S
O179   Zn188   1.978   .     S
O180   Zn187   1.945   .     S
O180   C192    1.290   .     S
O181   Zn188   1.901   .     S
O182   Zn187   1.978   .     S
O183   Zn188   1.951   .     S
O183   C241    1.276   1_455 S
O184   Zn187   1.901   .     S
O185   Zn188   1.945   .     S
O185   C242    1.286   1_455 S
C189   O226    1.289   .     A
C189   C191    1.403   .     S
C190   C192    1.455   .     S
C190   C203    1.403   .     A
C190   C198    1.404   .     A
C191   C287    1.339   .     S
C191   H362    1.088   .     S
C192   O228    1.299   .     A
C193   C194    1.402   .     S
C194   O229    1.289   .     A
C194   O277    1.276   .     S
C195   O231    1.299   .     A
C195   C197    1.443   .     S
C195   O279    1.286   .     S
C196   C209    1.389   .     A
C196   C628    1.398   1_554 S
C196   H639    1.084   1_554 S
C197   C208    1.396   .     A
C197   C209    1.402   .     A
C198   C622    1.391   .     S
C199   H219    1.083   .     S
C199   C201    1.393   .     A
C199   C621    1.391   1_554 S
C200   C203    1.403   .     A
C200   C624    1.415   .     S
C200   C627    1.410   .     S
C201   H218    1.082   .     S
C201   C623    1.415   1_554 S
C202   O233    1.223   .     D
C202   O225    1.400   .     S
C202   C208    1.500   .     S
C203   C207    1.412   .     A
C204   C208    1.405   .     A
C204   C623    1.410   1_554 S
C204   C628    1.422   1_554 S
C205   C206    1.393   .     A
C205   C619    1.398   .     S
C205   C627    1.422   .     S
C206   H212    1.084   .     S
C206   C207    1.387   .     A
C207   H220    1.083   .     S
C209   H257    1.083   .     S
H211   N222    1.029   .     S
H213   O225    1.014   .     S
H214   C334    1.088   .     S
H215   N223    1.029   .     S
H216   C619    1.084   .     S
H217   C245    1.083   .     S
N222   N223    1.287   .     D
N222   Zn235   2.019   .     S
N223   Zn234   2.019   .     S
O224   Zn234   1.951   .     S
O224   C236    1.276   .     S
O226   Zn235   1.978   .     S
O227   Zn234   1.945   .     S
O227   C239    1.290   .     S
O228   Zn235   1.901   .     S
O229   Zn234   1.978   .     S
O230   Zn235   1.951   .     S
O231   Zn234   1.901   .     S
O232   Zn235   1.945   .     S
C236   O273    1.289   .     A
C236   C238    1.403   .     S
C237   C239    1.455   .     S
C237   C250    1.403   .     A
C237   C245    1.404   .     A
C238   C334    1.339   .     S
C238   H409    1.088   .     S
C239   O275    1.299   .     A
C240   C241    1.402   .     S
C240   C3      1.339   1_655 S
C241   O276    1.289   .     A
C241   O183    1.276   1_655 S
C242   O278    1.299   .     A
C242   C244    1.443   .     S
C242   O185    1.286   1_655 S
C243   C256    1.389   .     A
C243   C675    1.398   1_554 S
C243   H686    1.084   1_554 S
C244   C255    1.396   .     A
C244   C256    1.402   .     A
C245   C669    1.391   .     S
C246   H266    1.083   .     S
C246   C248    1.393   .     A
C246   C668    1.391   1_554 S
C247   C250    1.403   .     A
C247   C671    1.415   .     S
C247   C674    1.410   .     S
C248   H265    1.082   .     S
C248   C670    1.415   1_554 S
C249   O280    1.223   .     D
C249   O272    1.400   .     S
C249   C255    1.500   .     S
C250   C254    1.412   .     A
C251   C255    1.405   .     A
C251   C670    1.410   1_554 S
C251   C675    1.422   1_554 S
C252   C253    1.393   .     A
C252   C666    1.398   .     S
C252   C674    1.422   .     S
C253   H259    1.084   .     S
C253   C254    1.387   .     A
C254   H267    1.083   .     S
C256   H163    1.083   1_655 S
H258   N269    1.029   .     S
H260   O272    1.014   .     S
H261   C381    1.088   .     S
H262   N270    1.029   .     S
H263   C666    1.084   .     S
H264   C151    1.083   1_655 S
N269   N270    1.287   .     D
N269   Zn282   2.019   .     S
N270   Zn281   2.019   .     S
O271   Zn281   1.951   .     S
O271   C142    1.276   1_655 S
O273   Zn282   1.978   .     S
O274   Zn281   1.945   .     S
O274   C145    1.290   1_655 S
O275   Zn282   1.901   .     S
O276   Zn281   1.978   .     S
O277   Zn282   1.951   .     S
O278   Zn281   1.901   .     S
O279   Zn282   1.945   .     S
C283   O320    1.289   .     A
C283   C285    1.403   .     S
C283   O412    1.276   1_455 S
C284   C286    1.455   .     S
C284   C297    1.403   .     A
C284   C292    1.404   .     A
C285   C99     1.339   1_465 S
C285   H33     1.088   1_565 S
C286   O322    1.299   .     A
C286   O415    1.290   1_455 S
C287   C288    1.402   .     S
C288   O323    1.289   .     A
C288   O371    1.276   .     S
C289   O325    1.299   .     A
C289   C291    1.443   .     S
C289   O373    1.286   .     S
C290   C303    1.389   .     A
C290   C722    1.398   1_554 S
C290   H733    1.084   1_554 S
C291   C302    1.396   .     A
C291   C303    1.402   .     A
C292   C716    1.391   .     S
C292   H405    1.083   1_455 S
C293   H313    1.083   .     S
C293   C295    1.393   .     A
C293   C715    1.391   1_554 S
C294   C297    1.403   .     A
C294   C718    1.415   .     S
C294   C721    1.410   .     S
C295   H312    1.082   .     S
C295   C717    1.415   1_554 S
C296   O327    1.223   .     D
C296   O319    1.400   .     S
C296   C302    1.500   .     S
C297   C301    1.412   .     A
C298   C302    1.405   .     A
C298   C717    1.410   1_554 S
C298   C722    1.422   1_554 S
C299   C300    1.393   .     A
C299   C713    1.398   .     S
C299   C721    1.422   .     S
C300   H306    1.084   .     S
C300   C301    1.387   .     A
C301   H314    1.083   .     S
C303   H351    1.083   .     S
H304   C397    1.083   1_455 S
H305   N316    1.029   .     S
H307   O319    1.014   .     S
H308   C5      1.088   1_565 S
H309   N317    1.029   .     S
H310   C713    1.084   .     S
H311   C339    1.083   .     S
N316   N317    1.287   .     D
N316   Zn329   2.019   .     S
N317   Zn328   2.019   .     S
O318   Zn328   1.951   .     S
O318   C330    1.276   .     S
O320   Zn329   1.978   .     S
O321   Zn328   1.945   .     S
O321   C333    1.290   .     S
O322   Zn329   1.901   .     S
O323   Zn328   1.978   .     S
O324   Zn329   1.951   .     S
O324   C382    1.276   1_455 S
O325   Zn328   1.901   .     S
O326   Zn329   1.945   .     S
O326   C383    1.286   1_455 S
C330   O367    1.289   .     A
C330   C332    1.403   .     S
C331   C333    1.455   .     S
C331   C344    1.403   .     A
C331   C339    1.404   .     A
C332   C5      1.339   1_565 S
C332   H80     1.088   1_565 S
C333   O369    1.299   .     A
C334   C335    1.402   .     S
C335   O370    1.289   .     A
C335   O418    1.276   .     S
C336   O372    1.299   .     A
C336   C338    1.443   .     S
C336   O420    1.286   .     S
C337   C350    1.389   .     A
C337   C769    1.398   1_554 S
C337   H780    1.084   1_554 S
C338   C349    1.396   .     A
C338   C350    1.402   .     A
C339   C763    1.391   .     S
C340   H360    1.083   .     S
C340   C342    1.393   .     A
C340   C762    1.391   1_554 S
C341   C344    1.403   .     A
C341   C765    1.415   .     S
C341   C768    1.410   .     S
C342   H359    1.082   .     S
C342   C764    1.415   1_554 S
C343   O374    1.223   .     D
C343   O366    1.400   .     S
C343   C349    1.500   .     S
C344   C348    1.412   .     A
C345   C349    1.405   .     A
C345   C764    1.410   1_554 S
C345   C769    1.422   1_554 S
C346   C347    1.393   .     A
C346   C760    1.398   .     S
C346   C768    1.422   .     S
C347   H353    1.084   .     S
C347   C348    1.387   .     A
C348   H361    1.083   .     S
C350   H398    1.083   .     S
H352   N363    1.029   .     S
H354   O366    1.014   .     S
H355   C52     1.088   1_565 S
H356   N364    1.029   .     S
H357   C760    1.084   .     S
H358   C386    1.083   .     S
N363   N364    1.287   .     D
N363   Zn376   2.019   .     S
N364   Zn375   2.019   .     S
O365   Zn375   1.951   .     S
O365   C377    1.276   .     S
O367   Zn376   1.978   .     S
O368   Zn375   1.945   .     S
O368   C380    1.290   .     S
O369   Zn376   1.901   .     S
O370   Zn375   1.978   .     S
O371   Zn376   1.951   .     S
O372   Zn375   1.901   .     S
O373   Zn376   1.945   .     S
C377   O414    1.289   .     A
C377   C379    1.403   .     S
C378   C380    1.455   .     S
C378   C391    1.403   .     A
C378   C386    1.404   .     A
C379   C52     1.339   1_565 S
C379   H127    1.088   1_565 S
C380   O416    1.299   .     A
C381   C382    1.402   .     S
C381   C144    1.339   1_655 S
C382   O417    1.289   .     A
C382   O324    1.276   1_655 S
C383   O419    1.299   .     A
C383   C385    1.443   .     S
C383   O326    1.286   1_655 S
C384   C397    1.389   .     A
C384   C816    1.398   1_554 S
C384   H827    1.084   1_554 S
C385   C396    1.396   .     A
C385   C397    1.402   .     A
C386   C810    1.391   .     S
C387   H407    1.083   .     S
C387   C389    1.393   .     A
C387   C809    1.391   1_554 S
C388   C391    1.403   .     A
C388   C812    1.415   .     S
C388   C815    1.410   .     S
C389   H406    1.082   .     S
C389   C811    1.415   1_554 S
C390   O421    1.223   .     D
C390   O413    1.400   .     S
C390   C396    1.500   .     S
C391   C395    1.412   .     A
C392   C396    1.405   .     A
C392   C811    1.410   1_554 S
C392   C816    1.422   1_554 S
C393   C394    1.393   .     A
C393   C807    1.398   .     S
C393   C815    1.422   .     S
C394   H400    1.084   .     S
C394   C395    1.387   .     A
C395   H408    1.083   .     S
C397   H304    1.083   1_655 S
H399   N410    1.029   .     S
H401   O413    1.014   .     S
H402   C99     1.088   1_565 S
H403   N411    1.029   .     S
H404   C807    1.084   .     S
H405   C292    1.083   1_655 S
N410   N411    1.287   .     D
N410   Zn423   2.019   .     S
N411   Zn422   2.019   .     S
O412   Zn422   1.951   .     S
O412   C283    1.276   1_655 S
O414   Zn423   1.978   .     S
O415   Zn422   1.945   .     S
O415   C286    1.290   1_655 S
O416   Zn423   1.901   .     S
O417   Zn422   1.978   .     S
O418   Zn423   1.951   .     S
O419   Zn422   1.901   .     S
O420   Zn423   1.945   .     S
C424   O461    1.289   .     A
C424   C426    1.403   .     S
C424   O553    1.276   1_455 S
C425   C427    1.455   .     S
C425   C438    1.403   .     A
C425   C433    1.404   .     A
C426   C663    1.339   1_455 S
C426   H597    1.088   .     S
C427   O463    1.299   .     A
C427   O556    1.290   1_455 S
C428   C429    1.402   .     S
C428   C755    1.339   1_545 S
C428   H731    1.088   1_545 S
C429   O464    1.289   .     A
C429   O512    1.276   .     S
C430   O466    1.299   .     A
C430   C432    1.443   .     S
C430   O514    1.286   .     S
C431   C444    1.389   .     A
C432   C443    1.396   .     A
C432   C444    1.402   .     A
C433   C11     1.391   1_556 S
C433   H546    1.083   1_455 S
C434   H454    1.083   .     S
C434   C436    1.393   .     A
C435   C438    1.403   .     A
C435   C13     1.415   1_556 S
C435   C16     1.410   1_556 S
C436   H453    1.082   .     S
C437   O468    1.223   .     D
C437   O460    1.400   .     S
C437   C443    1.500   .     S
C438   C442    1.412   .     A
C439   C443    1.405   .     A
C440   C441    1.393   .     A
C440   C8      1.398   1_556 S
C440   C16     1.422   1_556 S
C441   H447    1.084   .     S
C441   C442    1.387   .     A
C442   H455    1.083   .     S
C444   H492    1.083   .     S
H445   C538    1.083   1_455 S
H446   N457    1.029   .     S
H448   O460    1.014   .     S
H449   C569    1.088   .     S
H450   N458    1.029   .     S
H451   C8      1.084   1_556 S
H452   C480    1.083   .     S
H456   C708    1.088   1_545 S
N457   N458    1.287   .     D
N457   Zn470   2.019   .     S
N458   Zn469   2.019   .     S
O459   Zn469   1.951   .     S
O459   C471    1.276   .     S
O461   Zn470   1.978   .     S
O462   Zn469   1.945   .     S
O462   C474    1.290   .     S
O463   Zn470   1.901   .     S
O464   Zn469   1.978   .     S
O465   Zn470   1.951   .     S
O465   C523    1.276   1_455 S
O466   Zn469   1.901   .     S
O467   Zn470   1.945   .     S
O467   C524    1.286   1_455 S
C471   O508    1.289   .     A
C471   C473    1.403   .     S
C472   C474    1.455   .     S
C472   C485    1.403   .     A
C472   C480    1.404   .     A
C473   C569    1.339   .     S
C473   H644    1.088   .     S
C474   O510    1.299   .     A
C475   C476    1.402   .     S
C475   C802    1.339   1_545 S
C475   H778    1.088   1_545 S
C476   O511    1.289   .     A
C476   O559    1.276   .     S
C477   O513    1.299   .     A
C477   C479    1.443   .     S
C477   O561    1.286   .     S
C478   C491    1.389   .     A
C479   C490    1.396   .     A
C479   C491    1.402   .     A
C480   C58     1.391   1_556 S
C481   H501    1.083   .     S
C481   C483    1.393   .     A
C482   C485    1.403   .     A
C482   C60     1.415   1_556 S
C482   C63     1.410   1_556 S
C483   H500    1.082   .     S
C484   O515    1.223   .     D
C484   O507    1.400   .     S
C484   C490    1.500   .     S
C485   C489    1.412   .     A
C486   C490    1.405   .     A
C487   C488    1.393   .     A
C487   C55     1.398   1_556 S
C487   C63     1.422   1_556 S
C488   H494    1.084   .     S
C488   C489    1.387   .     A
C489   H502    1.083   .     S
C491   H539    1.083   .     S
H493   N504    1.029   .     S
H495   O507    1.014   .     S
H496   C616    1.088   .     S
H497   N505    1.029   .     S
H498   C55     1.084   1_556 S
H499   C527    1.083   .     S
H503   C755    1.088   1_545 S
N504   N505    1.287   .     D
N504   Zn517   2.019   .     S
N505   Zn516   2.019   .     S
O506   Zn516   1.951   .     S
O506   C518    1.276   .     S
O508   Zn517   1.978   .     S
O509   Zn516   1.945   .     S
O509   C521    1.290   .     S
O510   Zn517   1.901   .     S
O511   Zn516   1.978   .     S
O512   Zn517   1.951   .     S
O513   Zn516   1.901   .     S
O514   Zn517   1.945   .     S
C518   O555    1.289   .     A
C518   C520    1.403   .     S
C519   C521    1.455   .     S
C519   C532    1.403   .     A
C519   C527    1.404   .     A
C520   C616    1.339   .     S
C520   H691    1.088   .     S
C521   O557    1.299   .     A
C522   C523    1.402   .     S
C522   C708    1.339   1_645 S
C522   H825    1.088   1_545 S
C523   O558    1.289   .     A
C523   O465    1.276   1_655 S
C524   O560    1.299   .     A
C524   C526    1.443   .     S
C524   O467    1.286   1_655 S
C525   C538    1.389   .     A
C526   C537    1.396   .     A
C526   C538    1.402   .     A
C527   C105    1.391   1_556 S
C528   H548    1.083   .     S
C528   C530    1.393   .     A
C529   C532    1.403   .     A
C529   C107    1.415   1_556 S
C529   C110    1.410   1_556 S
C530   H547    1.082   .     S
C531   O562    1.223   .     D
C531   O554    1.400   .     S
C531   C537    1.500   .     S
C532   C536    1.412   .     A
C533   C537    1.405   .     A
C534   C535    1.393   .     A
C534   C102    1.398   1_556 S
C534   C110    1.422   1_556 S
C535   H541    1.084   .     S
C535   C536    1.387   .     A
C536   H549    1.083   .     S
C538   H445    1.083   1_655 S
H540   N551    1.029   .     S
H542   O554    1.014   .     S
H543   C663    1.088   .     S
H544   N552    1.029   .     S
H545   C102    1.084   1_556 S
H546   C433    1.083   1_655 S
H550   C802    1.088   1_545 S
N551   N552    1.287   .     D
N551   Zn564   2.019   .     S
N552   Zn563   2.019   .     S
O553   Zn563   1.951   .     S
O553   C424    1.276   1_655 S
O555   Zn564   1.978   .     S
O556   Zn563   1.945   .     S
O556   C427    1.290   1_655 S
O557   Zn564   1.901   .     S
O558   Zn563   1.978   .     S
O559   Zn564   1.951   .     S
O560   Zn563   1.901   .     S
O561   Zn564   1.945   .     S
C565   O602    1.289   .     A
C565   C567    1.403   .     S
C565   O694    1.276   1_455 S
C566   C568    1.455   .     S
C566   C579    1.403   .     A
C566   C574    1.404   .     A
C567   C804    1.339   1_455 S
C567   H738    1.088   .     S
C568   O604    1.299   .     A
C568   O697    1.290   1_455 S
C569   C570    1.402   .     S
C570   O605    1.289   .     A
C570   O653    1.276   .     S
C571   O607    1.299   .     A
C571   C573    1.443   .     S
C571   O655    1.286   .     S
C572   C585    1.389   .     A
C573   C584    1.396   .     A
C573   C585    1.402   .     A
C574   C152    1.391   1_556 S
C574   H687    1.083   1_455 S
C575   H595    1.083   .     S
C575   C577    1.393   .     A
C576   C579    1.403   .     A
C576   C154    1.415   1_556 S
C576   C157    1.410   1_556 S
C577   H594    1.082   .     S
C578   O609    1.223   .     D
C578   O601    1.400   .     S
C578   C584    1.500   .     S
C579   C583    1.412   .     A
C580   C584    1.405   .     A
C581   C582    1.393   .     A
C581   C149    1.398   1_556 S
C581   C157    1.422   1_556 S
C582   H588    1.084   .     S
C582   C583    1.387   .     A
C583   H596    1.083   .     S
C585   H633    1.083   .     S
H586   C679    1.083   1_455 S
H587   N598    1.029   .     S
H589   O601    1.014   .     S
H590   C710    1.088   .     S
H591   N599    1.029   .     S
H592   C149    1.084   1_556 S
H593   C621    1.083   .     S
N598   N599    1.287   .     D
N598   Zn611   2.019   .     S
N599   Zn610   2.019   .     S
O600   Zn610   1.951   .     S
O600   C612    1.276   .     S
O602   Zn611   1.978   .     S
O603   Zn610   1.945   .     S
O603   C615    1.290   .     S
O604   Zn611   1.901   .     S
O605   Zn610   1.978   .     S
O606   Zn611   1.951   .     S
O606   C664    1.276   1_455 S
O607   Zn610   1.901   .     S
O608   Zn611   1.945   .     S
O608   C665    1.286   1_455 S
C612   O649    1.289   .     A
C612   C614    1.403   .     S
C613   C615    1.455   .     S
C613   C626    1.403   .     A
C613   C621    1.404   .     A
C614   C710    1.339   .     S
C614   H785    1.088   .     S
C615   O651    1.299   .     A
C616   C617    1.402   .     S
C617   O652    1.289   .     A
C617   O700    1.276   .     S
C618   O654    1.299   .     A
C618   C620    1.443   .     S
C618   O702    1.286   .     S
C619   C632    1.389   .     A
C620   C631    1.396   .     A
C620   C632    1.402   .     A
C621   C199    1.391   1_556 S
C622   H642    1.083   .     S
C622   C624    1.393   .     A
C623   C626    1.403   .     A
C623   C201    1.415   1_556 S
C623   C204    1.410   1_556 S
C624   H641    1.082   .     S
C625   O656    1.223   .     D
C625   O648    1.400   .     S
C625   C631    1.500   .     S
C626   C630    1.412   .     A
C627   C631    1.405   .     A
C628   C629    1.393   .     A
C628   C196    1.398   1_556 S
C628   C204    1.422   1_556 S
C629   H635    1.084   .     S
C629   C630    1.387   .     A
C630   H643    1.083   .     S
C632   H680    1.083   .     S
H634   N645    1.029   .     S
H636   O648    1.014   .     S
H637   C757    1.088   .     S
H638   N646    1.029   .     S
H639   C196    1.084   1_556 S
H640   C668    1.083   .     S
N645   N646    1.287   .     D
N645   Zn658   2.019   .     S
N646   Zn657   2.019   .     S
O647   Zn657   1.951   .     S
O647   C659    1.276   .     S
O649   Zn658   1.978   .     S
O650   Zn657   1.945   .     S
O650   C662    1.290   .     S
O651   Zn658   1.901   .     S
O652   Zn657   1.978   .     S
O653   Zn658   1.951   .     S
O654   Zn657   1.901   .     S
O655   Zn658   1.945   .     S
C659   O696    1.289   .     A
C659   C661    1.403   .     S
C660   C662    1.455   .     S
C660   C673    1.403   .     A
C660   C668    1.404   .     A
C661   C757    1.339   .     S
C661   H832    1.088   .     S
C662   O698    1.299   .     A
C663   C664    1.402   .     S
C663   C426    1.339   1_655 S
C664   O699    1.289   .     A
C664   O606    1.276   1_655 S
C665   O701    1.299   .     A
C665   C667    1.443   .     S
C665   O608    1.286   1_655 S
C666   C679    1.389   .     A
C667   C678    1.396   .     A
C667   C679    1.402   .     A
C668   C246    1.391   1_556 S
C669   H689    1.083   .     S
C669   C671    1.393   .     A
C670   C673    1.403   .     A
C670   C248    1.415   1_556 S
C670   C251    1.410   1_556 S
C671   H688    1.082   .     S
C672   O703    1.223   .     D
C672   O695    1.400   .     S
C672   C678    1.500   .     S
C673   C677    1.412   .     A
C674   C678    1.405   .     A
C675   C676    1.393   .     A
C675   C243    1.398   1_556 S
C675   C251    1.422   1_556 S
C676   H682    1.084   .     S
C676   C677    1.387   .     A
C677   H690    1.083   .     S
C679   H586    1.083   1_655 S
H681   N692    1.029   .     S
H683   O695    1.014   .     S
H684   C804    1.088   .     S
H685   N693    1.029   .     S
H686   C243    1.084   1_556 S
H687   C574    1.083   1_655 S
N692   N693    1.287   .     D
N692   Zn705   2.019   .     S
N693   Zn704   2.019   .     S
O694   Zn704   1.951   .     S
O694   C565    1.276   1_655 S
O696   Zn705   1.978   .     S
O697   Zn704   1.945   .     S
O697   C568    1.290   1_655 S
O698   Zn705   1.901   .     S
O699   Zn704   1.978   .     S
O700   Zn705   1.951   .     S
O701   Zn704   1.901   .     S
O702   Zn705   1.945   .     S
C706   O743    1.289   .     A
C706   C708    1.403   .     S
C706   O835    1.276   1_455 S
C707   C709    1.455   .     S
C707   C720    1.403   .     A
C707   C715    1.404   .     A
C708   C522    1.339   1_465 S
C708   H456    1.088   1_565 S
C709   O745    1.299   .     A
C709   O838    1.290   1_455 S
C710   C711    1.402   .     S
C711   O746    1.289   .     A
C711   O794    1.276   .     S
C712   O748    1.299   .     A
C712   C714    1.443   .     S
C712   O796    1.286   .     S
C713   C726    1.389   .     A
C714   C725    1.396   .     A
C714   C726    1.402   .     A
C715   C293    1.391   1_556 S
C715   H828    1.083   1_455 S
C716   H736    1.083   .     S
C716   C718    1.393   .     A
C717   C720    1.403   .     A
C717   C295    1.415   1_556 S
C717   C298    1.410   1_556 S
C718   H735    1.082   .     S
C719   O750    1.223   .     D
C719   O742    1.400   .     S
C719   C725    1.500   .     S
C720   C724    1.412   .     A
C721   C725    1.405   .     A
C722   C723    1.393   .     A
C722   C290    1.398   1_556 S
C722   C298    1.422   1_556 S
C723   H729    1.084   .     S
C723   C724    1.387   .     A
C724   H737    1.083   .     S
C726   H774    1.083   .     S
H727   C820    1.083   1_455 S
H728   N739    1.029   .     S
H730   O742    1.014   .     S
H731   C428    1.088   1_565 S
H732   N740    1.029   .     S
H733   C290    1.084   1_556 S
H734   C762    1.083   .     S
N739   N740    1.287   .     D
N739   Zn752   2.019   .     S
N740   Zn751   2.019   .     S
O741   Zn751   1.951   .     S
O741   C753    1.276   .     S
O743   Zn752   1.978   .     S
O744   Zn751   1.945   .     S
O744   C756    1.290   .     S
O745   Zn752   1.901   .     S
O746   Zn751   1.978   .     S
O747   Zn752   1.951   .     S
O747   C805    1.276   1_455 S
O748   Zn751   1.901   .     S
O749   Zn752   1.945   .     S
O749   C806    1.286   1_455 S
C753   O790    1.289   .     A
C753   C755    1.403   .     S
C754   C756    1.455   .     S
C754   C767    1.403   .     A
C754   C762    1.404   .     A
C755   C428    1.339   1_565 S
C755   H503    1.088   1_565 S
C756   O792    1.299   .     A
C757   C758    1.402   .     S
C758   O793    1.289   .     A
C758   O841    1.276   .     S
C759   O795    1.299   .     A
C759   C761    1.443   .     S
C759   O843    1.286   .     S
C760   C773    1.389   .     A
C761   C772    1.396   .     A
C761   C773    1.402   .     A
C762   C340    1.391   1_556 S
C763   H783    1.083   .     S
C763   C765    1.393   .     A
C764   C767    1.403   .     A
C764   C342    1.415   1_556 S
C764   C345    1.410   1_556 S
C765   H782    1.082   .     S
C766   O797    1.223   .     D
C766   O789    1.400   .     S
C766   C772    1.500   .     S
C767   C771    1.412   .     A
C768   C772    1.405   .     A
C769   C770    1.393   .     A
C769   C337    1.398   1_556 S
C769   C345    1.422   1_556 S
C770   H776    1.084   .     S
C770   C771    1.387   .     A
C771   H784    1.083   .     S
C773   H821    1.083   .     S
H775   N786    1.029   .     S
H777   O789    1.014   .     S
H778   C475    1.088   1_565 S
H779   N787    1.029   .     S
H780   C337    1.084   1_556 S
H781   C809    1.083   .     S
N786   N787    1.287   .     D
N786   Zn799   2.019   .     S
N787   Zn798   2.019   .     S
O788   Zn798   1.951   .     S
O788   C800    1.276   .     S
O790   Zn799   1.978   .     S
O791   Zn798   1.945   .     S
O791   C803    1.290   .     S
O792   Zn799   1.901   .     S
O793   Zn798   1.978   .     S
O794   Zn799   1.951   .     S
O795   Zn798   1.901   .     S
O796   Zn799   1.945   .     S
C800   O837    1.289   .     A
C800   C802    1.403   .     S
C801   C803    1.455   .     S
C801   C814    1.403   .     A
C801   C809    1.404   .     A
C802   C475    1.339   1_565 S
C802   H550    1.088   1_565 S
C803   O839    1.299   .     A
C804   C805    1.402   .     S
C804   C567    1.339   1_655 S
C805   O840    1.289   .     A
C805   O747    1.276   1_655 S
C806   O842    1.299   .     A
C806   C808    1.443   .     S
C806   O749    1.286   1_655 S
C807   C820    1.389   .     A
C808   C819    1.396   .     A
C808   C820    1.402   .     A
C809   C387    1.391   1_556 S
C810   H830    1.083   .     S
C810   C812    1.393   .     A
C811   C814    1.403   .     A
C811   C389    1.415   1_556 S
C811   C392    1.410   1_556 S
C812   H829    1.082   .     S
C813   O844    1.223   .     D
C813   O836    1.400   .     S
C813   C819    1.500   .     S
C814   C818    1.412   .     A
C815   C819    1.405   .     A
C816   C817    1.393   .     A
C816   C384    1.398   1_556 S
C816   C392    1.422   1_556 S
C817   H823    1.084   .     S
C817   C818    1.387   .     A
C818   H831    1.083   .     S
C820   H727    1.083   1_655 S
H822   N833    1.029   .     S
H824   O836    1.014   .     S
H825   C522    1.088   1_565 S
H826   N834    1.029   .     S
H827   C384    1.084   1_556 S
H828   C715    1.083   1_655 S
N833   N834    1.287   .     D
N833   Zn846   2.019   .     S
N834   Zn845   2.019   .     S
O835   Zn845   1.951   .     S
O835   C706    1.276   1_655 S
O837   Zn846   1.978   .     S
O838   Zn845   1.945   .     S
O838   C709    1.290   1_655 S
O839   Zn846   1.901   .     S
O840   Zn845   1.978   .     S
O841   Zn846   1.951   .     S
O842   Zn845   1.901   .     S
O843   Zn846   1.945   .     S
