data_str_m2_o1_o17_pcu_sym.219
_audit_creation_date              2020-01-03
_audit_creation_method            'Materials Studio'
_symmetry_space_group_name_H-M    'P1'
_symmetry_Int_Tables_number       1
_symmetry_cell_setting            triclinic
loop_
_symmetry_equiv_pos_as_xyz
  x,y,z
_cell_length_a                    32.4676
_cell_length_b                    28.6136
_cell_length_c                    30.1177
_cell_angle_alpha                 89.8319
_cell_angle_beta                  91.1336
_cell_angle_gamma                 90.2488
loop_
_atom_site_label
_atom_site_type_symbol
_atom_site_fract_x
_atom_site_fract_y
_atom_site_fract_z
_atom_site_U_iso_or_equiv
_atom_site_adp_type
_atom_site_occupancy
C1     C     0.08742   0.16657   0.25039   0.00000  Uiso   1.00
C2     C     0.24592   0.16676   0.24961   0.00000  Uiso   1.00
C3     C     0.09387   0.18984   0.01987   0.00000  Uiso   1.00
C4     C     0.23946   0.14349   0.48013   0.00000  Uiso   1.00
C5     C     0.02082   0.12899   0.23132   0.00000  Uiso   1.00
C6     C     0.31251   0.20435   0.26868   0.00000  Uiso   1.00
C7     C     0.31153   0.12925   0.23081   0.00000  Uiso   1.00
C8     C     0.02180   0.20408   0.26919   0.00000  Uiso   1.00
C9     C     0.29053   0.16690   0.24954   0.00000  Uiso   1.00
C10    C     0.04280   0.16643   0.25046   0.00000  Uiso   1.00
C11    C     0.14160   0.02473   0.22137   0.00000  Uiso   1.00
C12    C     0.19174   0.30860   0.27863   0.00000  Uiso   1.00
C13    C     0.19179   0.02480   0.27858   0.00000  Uiso   1.00
C14    C     0.14154   0.30853   0.22142   0.00000  Uiso   1.00
C15    C     0.16573   0.16673   0.16455   0.00000  Uiso   1.00
C16    C     0.16760   0.16660   0.33545   0.00000  Uiso   1.00
C17    C     0.20470   0.15557   0.40740   0.00000  Uiso   1.00
C18    C     0.12863   0.17777   0.09260   0.00000  Uiso   1.00
C19    C     0.16847   0.16645   0.38362   0.00000  Uiso   1.00
C20    C     0.16486   0.16689   0.11638   0.00000  Uiso   1.00
C21    C     0.13226   0.17756   0.40494   0.00000  Uiso   1.00
C22    C     0.20107   0.15577   0.09506   0.00000  Uiso   1.00
C23    C     0.13079   0.17798   0.45144   0.00000  Uiso   1.00
C24    C     0.20254   0.15536   0.04856   0.00000  Uiso   1.00
C25    C     0.16707   0.16660   0.47646   0.00000  Uiso   1.00
C26    C     0.16626   0.16673   0.02354   0.00000  Uiso   1.00
C27    C     0.20417   0.15508   0.45444   0.00000  Uiso   1.00
C28    C     0.12917   0.17825   0.04556   0.00000  Uiso   1.00
C29    C     0.09426   0.18945   0.47369   0.00000  Uiso   1.00
C30    C     0.23907   0.14388   0.02631   0.00000  Uiso   1.00
Cu31   Cu    0.16667   0.21355   0.25000   0.00000  Uiso   1.00
Cu32   Cu    0.16667   0.11978   0.25000   0.00000  Uiso   1.00
N33    N     0.16667   0.28402   0.25000   0.00000  Uiso   1.00
N34    N     0.16667   0.04931   0.25000   0.00000  Uiso   1.00
O35    O     0.10655   0.20625   0.24999   0.00000  Uiso   1.00
O36    O     0.22679   0.12709   0.25000   0.00000  Uiso   1.00
O37    O     0.22679   0.20625   0.25000   0.00000  Uiso   1.00
O38    O     0.10655   0.12709   0.24999   0.00000  Uiso   1.00
O39    O     0.16666   0.20627   0.18513   0.00000  Uiso   1.00
O40    O     0.16668   0.12707   0.31487   0.00000  Uiso   1.00
O41    O     0.16668   0.20627   0.31487   0.00000  Uiso   1.00
O42    O     0.16666   0.12707   0.18513   0.00000  Uiso   1.00
I43    I     0.25895   0.14311   0.36906   0.00000  Uiso   1.00
I44    I     0.07438   0.19022   0.13094   0.00000  Uiso   1.00
F45    F     0.09881   0.18756   0.37899   0.00000  Uiso   1.00
F46    F     0.23452   0.14577   0.12101   0.00000  Uiso   1.00
I47    I     0.03652   0.20721   0.44203   0.00000  Uiso   1.00
I48    I     0.29681   0.12612   0.05797   0.00000  Uiso   1.00
F49    F     0.05819   0.20254   0.03882   0.00000  Uiso   1.00
F50    F     0.27514   0.13080   0.46118   0.00000  Uiso   1.00
F51    F     0.04045   0.09279   0.21187   0.00000  Uiso   1.00
F52    F     0.29289   0.24054   0.28813   0.00000  Uiso   1.00
F53    F     0.29090   0.09326   0.21104   0.00000  Uiso   1.00
F54    F     0.04244   0.24008   0.28896   0.00000  Uiso   1.00
F55    F     0.11652   0.04787   0.19241   0.00000  Uiso   1.00
F56    F     0.21681   0.28546   0.30759   0.00000  Uiso   1.00
F57    F     0.21716   0.04801   0.30724   0.00000  Uiso   1.00
F58    F     0.11617   0.28533   0.19276   0.00000  Uiso   1.00
C59    C     0.42075   0.16657   0.25039   0.00000  Uiso   1.00
C60    C     0.57925   0.16676   0.24961   0.00000  Uiso   1.00
C61    C     0.42720   0.18984   0.01987   0.00000  Uiso   1.00
C62    C     0.57279   0.14349   0.48013   0.00000  Uiso   1.00
C63    C     0.35416   0.12899   0.23132   0.00000  Uiso   1.00
C64    C     0.64585   0.20435   0.26868   0.00000  Uiso   1.00
C65    C     0.64487   0.12925   0.23081   0.00000  Uiso   1.00
C66    C     0.35514   0.20408   0.26919   0.00000  Uiso   1.00
C67    C     0.62386   0.16690   0.24954   0.00000  Uiso   1.00
C68    C     0.37614   0.16643   0.25046   0.00000  Uiso   1.00
C69    C     0.47493   0.02473   0.22137   0.00000  Uiso   1.00
C70    C     0.52507   0.30860   0.27863   0.00000  Uiso   1.00
C71    C     0.52512   0.02480   0.27858   0.00000  Uiso   1.00
C72    C     0.47488   0.30853   0.22142   0.00000  Uiso   1.00
C73    C     0.49907   0.16673   0.16455   0.00000  Uiso   1.00
C74    C     0.50093   0.16660   0.33545   0.00000  Uiso   1.00
C75    C     0.53803   0.15557   0.40740   0.00000  Uiso   1.00
C76    C     0.46197   0.17777   0.09260   0.00000  Uiso   1.00
C77    C     0.50180   0.16645   0.38362   0.00000  Uiso   1.00
C78    C     0.49820   0.16689   0.11638   0.00000  Uiso   1.00
C79    C     0.46560   0.17756   0.40494   0.00000  Uiso   1.00
C80    C     0.53440   0.15577   0.09506   0.00000  Uiso   1.00
C81    C     0.46413   0.17798   0.45144   0.00000  Uiso   1.00
C82    C     0.53587   0.15536   0.04856   0.00000  Uiso   1.00
C83    C     0.50041   0.16660   0.47646   0.00000  Uiso   1.00
C84    C     0.49959   0.16673   0.02354   0.00000  Uiso   1.00
C85    C     0.53750   0.15508   0.45444   0.00000  Uiso   1.00
C86    C     0.46250   0.17825   0.04556   0.00000  Uiso   1.00
C87    C     0.42760   0.18945   0.47369   0.00000  Uiso   1.00
C88    C     0.57240   0.14388   0.02631   0.00000  Uiso   1.00
Cu89   Cu    0.50000   0.21355   0.25000   0.00000  Uiso   1.00
Cu90   Cu    0.50000   0.11978   0.25000   0.00000  Uiso   1.00
N91    N     0.50000   0.28402   0.25000   0.00000  Uiso   1.00
N92    N     0.50000   0.04931   0.25000   0.00000  Uiso   1.00
O93    O     0.43988   0.20625   0.24999   0.00000  Uiso   1.00
O94    O     0.56012   0.12709   0.25000   0.00000  Uiso   1.00
O95    O     0.56012   0.20625   0.25000   0.00000  Uiso   1.00
O96    O     0.43988   0.12709   0.24999   0.00000  Uiso   1.00
O97    O     0.49999   0.20627   0.18513   0.00000  Uiso   1.00
O98    O     0.50001   0.12707   0.31487   0.00000  Uiso   1.00
O99    O     0.50001   0.20627   0.31487   0.00000  Uiso   1.00
O100   O     0.49999   0.12707   0.18513   0.00000  Uiso   1.00
I101   I     0.59229   0.14311   0.36906   0.00000  Uiso   1.00
I102   I     0.40771   0.19022   0.13094   0.00000  Uiso   1.00
F103   F     0.43214   0.18756   0.37899   0.00000  Uiso   1.00
F104   F     0.56786   0.14577   0.12101   0.00000  Uiso   1.00
I105   I     0.36986   0.20721   0.44203   0.00000  Uiso   1.00
I106   I     0.63014   0.12612   0.05797   0.00000  Uiso   1.00
F107   F     0.39152   0.20254   0.03882   0.00000  Uiso   1.00
F108   F     0.60848   0.13080   0.46118   0.00000  Uiso   1.00
F109   F     0.37378   0.09279   0.21187   0.00000  Uiso   1.00
F110   F     0.62622   0.24054   0.28813   0.00000  Uiso   1.00
F111   F     0.62423   0.09326   0.21104   0.00000  Uiso   1.00
F112   F     0.37577   0.24008   0.28896   0.00000  Uiso   1.00
F113   F     0.44985   0.04787   0.19241   0.00000  Uiso   1.00
F114   F     0.55015   0.28546   0.30759   0.00000  Uiso   1.00
F115   F     0.55050   0.04801   0.30724   0.00000  Uiso   1.00
F116   F     0.44950   0.28533   0.19276   0.00000  Uiso   1.00
C117   C     0.75408   0.16657   0.25039   0.00000  Uiso   1.00
C118   C     0.91258   0.16676   0.24961   0.00000  Uiso   1.00
C119   C     0.76054   0.18984   0.01987   0.00000  Uiso   1.00
C120   C     0.90613   0.14349   0.48013   0.00000  Uiso   1.00
C121   C     0.68749   0.12899   0.23132   0.00000  Uiso   1.00
C122   C     0.97918   0.20435   0.26868   0.00000  Uiso   1.00
C123   C     0.97820   0.12925   0.23081   0.00000  Uiso   1.00
C124   C     0.68847   0.20408   0.26919   0.00000  Uiso   1.00
C125   C     0.95720   0.16690   0.24954   0.00000  Uiso   1.00
C126   C     0.70947   0.16643   0.25046   0.00000  Uiso   1.00
C127   C     0.80826   0.02473   0.22137   0.00000  Uiso   1.00
C128   C     0.85841   0.30860   0.27863   0.00000  Uiso   1.00
C129   C     0.85846   0.02480   0.27858   0.00000  Uiso   1.00
C130   C     0.80821   0.30853   0.22142   0.00000  Uiso   1.00
C131   C     0.83240   0.16673   0.16455   0.00000  Uiso   1.00
C132   C     0.83427   0.16660   0.33545   0.00000  Uiso   1.00
C133   C     0.87137   0.15557   0.40740   0.00000  Uiso   1.00
C134   C     0.79530   0.17777   0.09260   0.00000  Uiso   1.00
C135   C     0.83514   0.16645   0.38362   0.00000  Uiso   1.00
C136   C     0.83153   0.16689   0.11638   0.00000  Uiso   1.00
C137   C     0.79893   0.17756   0.40494   0.00000  Uiso   1.00
C138   C     0.86774   0.15577   0.09506   0.00000  Uiso   1.00
C139   C     0.79746   0.17798   0.45144   0.00000  Uiso   1.00
C140   C     0.86921   0.15536   0.04856   0.00000  Uiso   1.00
C141   C     0.83374   0.16660   0.47646   0.00000  Uiso   1.00
C142   C     0.83293   0.16673   0.02354   0.00000  Uiso   1.00
C143   C     0.87083   0.15508   0.45444   0.00000  Uiso   1.00
C144   C     0.79583   0.17825   0.04556   0.00000  Uiso   1.00
C145   C     0.76093   0.18945   0.47369   0.00000  Uiso   1.00
C146   C     0.90574   0.14388   0.02631   0.00000  Uiso   1.00
Cu147  Cu    0.83333   0.21355   0.25000   0.00000  Uiso   1.00
Cu148  Cu    0.83333   0.11978   0.25000   0.00000  Uiso   1.00
N149   N     0.83333   0.28402   0.25000   0.00000  Uiso   1.00
N150   N     0.83333   0.04931   0.25000   0.00000  Uiso   1.00
O151   O     0.77321   0.20625   0.24999   0.00000  Uiso   1.00
O152   O     0.89345   0.12709   0.25000   0.00000  Uiso   1.00
O153   O     0.89345   0.20625   0.25000   0.00000  Uiso   1.00
O154   O     0.77321   0.12709   0.24999   0.00000  Uiso   1.00
O155   O     0.83332   0.20627   0.18513   0.00000  Uiso   1.00
O156   O     0.83334   0.12707   0.31487   0.00000  Uiso   1.00
O157   O     0.83334   0.20627   0.31487   0.00000  Uiso   1.00
O158   O     0.83332   0.12707   0.18513   0.00000  Uiso   1.00
I159   I     0.92562   0.14311   0.36906   0.00000  Uiso   1.00
I160   I     0.74105   0.19022   0.13094   0.00000  Uiso   1.00
F161   F     0.76548   0.18756   0.37899   0.00000  Uiso   1.00
F162   F     0.90119   0.14577   0.12101   0.00000  Uiso   1.00
I163   I     0.70319   0.20721   0.44203   0.00000  Uiso   1.00
I164   I     0.96347   0.12612   0.05797   0.00000  Uiso   1.00
F165   F     0.72485   0.20254   0.03882   0.00000  Uiso   1.00
F166   F     0.94181   0.13080   0.46118   0.00000  Uiso   1.00
F167   F     0.70711   0.09279   0.21187   0.00000  Uiso   1.00
F168   F     0.95956   0.24054   0.28813   0.00000  Uiso   1.00
F169   F     0.95756   0.09326   0.21104   0.00000  Uiso   1.00
F170   F     0.70910   0.24008   0.28896   0.00000  Uiso   1.00
F171   F     0.78319   0.04787   0.19241   0.00000  Uiso   1.00
F172   F     0.88348   0.28546   0.30759   0.00000  Uiso   1.00
F173   F     0.88383   0.04801   0.30724   0.00000  Uiso   1.00
F174   F     0.78284   0.28533   0.19276   0.00000  Uiso   1.00
C175   C     0.08742   0.49990   0.25039   0.00000  Uiso   1.00
C176   C     0.24592   0.50010   0.24961   0.00000  Uiso   1.00
C177   C     0.09387   0.52318   0.01987   0.00000  Uiso   1.00
C178   C     0.23946   0.47682   0.48013   0.00000  Uiso   1.00
C179   C     0.02082   0.46232   0.23132   0.00000  Uiso   1.00
C180   C     0.31251   0.53768   0.26868   0.00000  Uiso   1.00
C181   C     0.31153   0.46259   0.23081   0.00000  Uiso   1.00
C182   C     0.02180   0.53741   0.26919   0.00000  Uiso   1.00
C183   C     0.29053   0.50024   0.24954   0.00000  Uiso   1.00
C184   C     0.04280   0.49976   0.25046   0.00000  Uiso   1.00
C185   C     0.14160   0.35807   0.22137   0.00000  Uiso   1.00
C186   C     0.19174   0.64193   0.27863   0.00000  Uiso   1.00
C187   C     0.19179   0.35813   0.27858   0.00000  Uiso   1.00
C188   C     0.14154   0.64187   0.22142   0.00000  Uiso   1.00
C189   C     0.16573   0.50006   0.16455   0.00000  Uiso   1.00
C190   C     0.16760   0.49994   0.33545   0.00000  Uiso   1.00
C191   C     0.20470   0.48890   0.40740   0.00000  Uiso   1.00
C192   C     0.12863   0.51110   0.09260   0.00000  Uiso   1.00
C193   C     0.16847   0.49978   0.38362   0.00000  Uiso   1.00
C194   C     0.16486   0.50022   0.11638   0.00000  Uiso   1.00
C195   C     0.13226   0.51089   0.40494   0.00000  Uiso   1.00
C196   C     0.20107   0.48911   0.09506   0.00000  Uiso   1.00
C197   C     0.13079   0.51131   0.45144   0.00000  Uiso   1.00
C198   C     0.20254   0.48869   0.04856   0.00000  Uiso   1.00
C199   C     0.16707   0.49994   0.47646   0.00000  Uiso   1.00
C200   C     0.16626   0.50006   0.02354   0.00000  Uiso   1.00
C201   C     0.20417   0.48841   0.45444   0.00000  Uiso   1.00
C202   C     0.12917   0.51159   0.04556   0.00000  Uiso   1.00
C203   C     0.09426   0.52279   0.47369   0.00000  Uiso   1.00
C204   C     0.23907   0.47722   0.02631   0.00000  Uiso   1.00
Cu205  Cu    0.16667   0.54689   0.25000   0.00000  Uiso   1.00
Cu206  Cu    0.16667   0.45311   0.25000   0.00000  Uiso   1.00
N207   N     0.16667   0.61736   0.25000   0.00000  Uiso   1.00
N208   N     0.16667   0.38264   0.25000   0.00000  Uiso   1.00
O209   O     0.10655   0.53958   0.24999   0.00000  Uiso   1.00
O210   O     0.22679   0.46042   0.25000   0.00000  Uiso   1.00
O211   O     0.22679   0.53958   0.25000   0.00000  Uiso   1.00
O212   O     0.10655   0.46042   0.24999   0.00000  Uiso   1.00
O213   O     0.16666   0.53960   0.18513   0.00000  Uiso   1.00
O214   O     0.16668   0.46040   0.31487   0.00000  Uiso   1.00
O215   O     0.16668   0.53960   0.31487   0.00000  Uiso   1.00
O216   O     0.16666   0.46040   0.18513   0.00000  Uiso   1.00
I217   I     0.25895   0.47644   0.36906   0.00000  Uiso   1.00
I218   I     0.07438   0.52356   0.13094   0.00000  Uiso   1.00
F219   F     0.09881   0.52089   0.37899   0.00000  Uiso   1.00
F220   F     0.23452   0.47911   0.12101   0.00000  Uiso   1.00
I221   I     0.03652   0.54055   0.44203   0.00000  Uiso   1.00
I222   I     0.29681   0.45945   0.05797   0.00000  Uiso   1.00
F223   F     0.05819   0.53587   0.03882   0.00000  Uiso   1.00
F224   F     0.27514   0.46413   0.46118   0.00000  Uiso   1.00
F225   F     0.04045   0.42613   0.21187   0.00000  Uiso   1.00
F226   F     0.29289   0.57387   0.28813   0.00000  Uiso   1.00
F227   F     0.29090   0.42659   0.21104   0.00000  Uiso   1.00
F228   F     0.04244   0.57341   0.28896   0.00000  Uiso   1.00
F229   F     0.11652   0.38121   0.19241   0.00000  Uiso   1.00
F230   F     0.21681   0.61879   0.30759   0.00000  Uiso   1.00
F231   F     0.21716   0.38134   0.30724   0.00000  Uiso   1.00
F232   F     0.11617   0.61866   0.19276   0.00000  Uiso   1.00
C233   C     0.42075   0.49990   0.25039   0.00000  Uiso   1.00
C234   C     0.57925   0.50010   0.24961   0.00000  Uiso   1.00
C235   C     0.42720   0.52318   0.01987   0.00000  Uiso   1.00
C236   C     0.57279   0.47682   0.48013   0.00000  Uiso   1.00
C237   C     0.35416   0.46232   0.23132   0.00000  Uiso   1.00
C238   C     0.64585   0.53768   0.26868   0.00000  Uiso   1.00
C239   C     0.64487   0.46259   0.23081   0.00000  Uiso   1.00
C240   C     0.35514   0.53741   0.26919   0.00000  Uiso   1.00
C241   C     0.62386   0.50024   0.24954   0.00000  Uiso   1.00
C242   C     0.37614   0.49976   0.25046   0.00000  Uiso   1.00
C243   C     0.47493   0.35807   0.22137   0.00000  Uiso   1.00
C244   C     0.52507   0.64193   0.27863   0.00000  Uiso   1.00
C245   C     0.52512   0.35813   0.27858   0.00000  Uiso   1.00
C246   C     0.47488   0.64187   0.22142   0.00000  Uiso   1.00
C247   C     0.49907   0.50006   0.16455   0.00000  Uiso   1.00
C248   C     0.50093   0.49994   0.33545   0.00000  Uiso   1.00
C249   C     0.53803   0.48890   0.40740   0.00000  Uiso   1.00
C250   C     0.46197   0.51110   0.09260   0.00000  Uiso   1.00
C251   C     0.50180   0.49978   0.38362   0.00000  Uiso   1.00
C252   C     0.49820   0.50022   0.11638   0.00000  Uiso   1.00
C253   C     0.46560   0.51089   0.40494   0.00000  Uiso   1.00
C254   C     0.53440   0.48911   0.09506   0.00000  Uiso   1.00
C255   C     0.46413   0.51131   0.45144   0.00000  Uiso   1.00
C256   C     0.53587   0.48869   0.04856   0.00000  Uiso   1.00
C257   C     0.50041   0.49994   0.47646   0.00000  Uiso   1.00
C258   C     0.49959   0.50006   0.02354   0.00000  Uiso   1.00
C259   C     0.53750   0.48841   0.45444   0.00000  Uiso   1.00
C260   C     0.46250   0.51159   0.04556   0.00000  Uiso   1.00
C261   C     0.42760   0.52279   0.47369   0.00000  Uiso   1.00
C262   C     0.57240   0.47722   0.02631   0.00000  Uiso   1.00
Cu263  Cu    0.50000   0.54689   0.25000   0.00000  Uiso   1.00
Cu264  Cu    0.50000   0.45311   0.25000   0.00000  Uiso   1.00
N265   N     0.50000   0.61736   0.25000   0.00000  Uiso   1.00
N266   N     0.50000   0.38264   0.25000   0.00000  Uiso   1.00
O267   O     0.43988   0.53958   0.24999   0.00000  Uiso   1.00
O268   O     0.56012   0.46042   0.25000   0.00000  Uiso   1.00
O269   O     0.56012   0.53958   0.25000   0.00000  Uiso   1.00
O270   O     0.43988   0.46042   0.24999   0.00000  Uiso   1.00
O271   O     0.49999   0.53960   0.18513   0.00000  Uiso   1.00
O272   O     0.50001   0.46040   0.31487   0.00000  Uiso   1.00
O273   O     0.50001   0.53960   0.31487   0.00000  Uiso   1.00
O274   O     0.49999   0.46040   0.18513   0.00000  Uiso   1.00
I275   I     0.59229   0.47644   0.36906   0.00000  Uiso   1.00
I276   I     0.40771   0.52356   0.13094   0.00000  Uiso   1.00
F277   F     0.43214   0.52089   0.37899   0.00000  Uiso   1.00
F278   F     0.56786   0.47911   0.12101   0.00000  Uiso   1.00
I279   I     0.36986   0.54055   0.44203   0.00000  Uiso   1.00
I280   I     0.63014   0.45945   0.05797   0.00000  Uiso   1.00
F281   F     0.39152   0.53587   0.03882   0.00000  Uiso   1.00
F282   F     0.60848   0.46413   0.46118   0.00000  Uiso   1.00
F283   F     0.37378   0.42613   0.21187   0.00000  Uiso   1.00
F284   F     0.62622   0.57387   0.28813   0.00000  Uiso   1.00
F285   F     0.62423   0.42659   0.21104   0.00000  Uiso   1.00
F286   F     0.37577   0.57341   0.28896   0.00000  Uiso   1.00
F287   F     0.44985   0.38121   0.19241   0.00000  Uiso   1.00
F288   F     0.55015   0.61879   0.30759   0.00000  Uiso   1.00
F289   F     0.55050   0.38134   0.30724   0.00000  Uiso   1.00
F290   F     0.44950   0.61866   0.19276   0.00000  Uiso   1.00
C291   C     0.75408   0.49990   0.25039   0.00000  Uiso   1.00
C292   C     0.91258   0.50010   0.24961   0.00000  Uiso   1.00
C293   C     0.76054   0.52318   0.01987   0.00000  Uiso   1.00
C294   C     0.90613   0.47682   0.48013   0.00000  Uiso   1.00
C295   C     0.68749   0.46232   0.23132   0.00000  Uiso   1.00
C296   C     0.97918   0.53768   0.26868   0.00000  Uiso   1.00
C297   C     0.97820   0.46259   0.23081   0.00000  Uiso   1.00
C298   C     0.68847   0.53741   0.26919   0.00000  Uiso   1.00
C299   C     0.95720   0.50024   0.24954   0.00000  Uiso   1.00
C300   C     0.70947   0.49976   0.25046   0.00000  Uiso   1.00
C301   C     0.80826   0.35807   0.22137   0.00000  Uiso   1.00
C302   C     0.85841   0.64193   0.27863   0.00000  Uiso   1.00
C303   C     0.85846   0.35813   0.27858   0.00000  Uiso   1.00
C304   C     0.80821   0.64187   0.22142   0.00000  Uiso   1.00
C305   C     0.83240   0.50006   0.16455   0.00000  Uiso   1.00
C306   C     0.83427   0.49994   0.33545   0.00000  Uiso   1.00
C307   C     0.87137   0.48890   0.40740   0.00000  Uiso   1.00
C308   C     0.79530   0.51110   0.09260   0.00000  Uiso   1.00
C309   C     0.83514   0.49978   0.38362   0.00000  Uiso   1.00
C310   C     0.83153   0.50022   0.11638   0.00000  Uiso   1.00
C311   C     0.79893   0.51089   0.40494   0.00000  Uiso   1.00
C312   C     0.86774   0.48911   0.09506   0.00000  Uiso   1.00
C313   C     0.79746   0.51131   0.45144   0.00000  Uiso   1.00
C314   C     0.86921   0.48869   0.04856   0.00000  Uiso   1.00
C315   C     0.83374   0.49994   0.47646   0.00000  Uiso   1.00
C316   C     0.83293   0.50006   0.02354   0.00000  Uiso   1.00
C317   C     0.87083   0.48841   0.45444   0.00000  Uiso   1.00
C318   C     0.79583   0.51159   0.04556   0.00000  Uiso   1.00
C319   C     0.76093   0.52279   0.47369   0.00000  Uiso   1.00
C320   C     0.90574   0.47722   0.02631   0.00000  Uiso   1.00
Cu321  Cu    0.83333   0.54689   0.25000   0.00000  Uiso   1.00
Cu322  Cu    0.83333   0.45311   0.25000   0.00000  Uiso   1.00
N323   N     0.83333   0.61736   0.25000   0.00000  Uiso   1.00
N324   N     0.83333   0.38264   0.25000   0.00000  Uiso   1.00
O325   O     0.77321   0.53958   0.24999   0.00000  Uiso   1.00
O326   O     0.89345   0.46042   0.25000   0.00000  Uiso   1.00
O327   O     0.89345   0.53958   0.25000   0.00000  Uiso   1.00
O328   O     0.77321   0.46042   0.24999   0.00000  Uiso   1.00
O329   O     0.83332   0.53960   0.18513   0.00000  Uiso   1.00
O330   O     0.83334   0.46040   0.31487   0.00000  Uiso   1.00
O331   O     0.83334   0.53960   0.31487   0.00000  Uiso   1.00
O332   O     0.83332   0.46040   0.18513   0.00000  Uiso   1.00
I333   I     0.92562   0.47644   0.36906   0.00000  Uiso   1.00
I334   I     0.74105   0.52356   0.13094   0.00000  Uiso   1.00
F335   F     0.76548   0.52089   0.37899   0.00000  Uiso   1.00
F336   F     0.90119   0.47911   0.12101   0.00000  Uiso   1.00
I337   I     0.70319   0.54055   0.44203   0.00000  Uiso   1.00
I338   I     0.96347   0.45945   0.05797   0.00000  Uiso   1.00
F339   F     0.72485   0.53587   0.03882   0.00000  Uiso   1.00
F340   F     0.94181   0.46413   0.46118   0.00000  Uiso   1.00
F341   F     0.70711   0.42613   0.21187   0.00000  Uiso   1.00
F342   F     0.95956   0.57387   0.28813   0.00000  Uiso   1.00
F343   F     0.95756   0.42659   0.21104   0.00000  Uiso   1.00
F344   F     0.70910   0.57341   0.28896   0.00000  Uiso   1.00
F345   F     0.78319   0.38121   0.19241   0.00000  Uiso   1.00
F346   F     0.88348   0.61879   0.30759   0.00000  Uiso   1.00
F347   F     0.88383   0.38134   0.30724   0.00000  Uiso   1.00
F348   F     0.78284   0.61866   0.19276   0.00000  Uiso   1.00
C349   C     0.08742   0.83324   0.25039   0.00000  Uiso   1.00
C350   C     0.24592   0.83343   0.24961   0.00000  Uiso   1.00
C351   C     0.09387   0.85651   0.01987   0.00000  Uiso   1.00
C352   C     0.23946   0.81016   0.48013   0.00000  Uiso   1.00
C353   C     0.02082   0.79565   0.23132   0.00000  Uiso   1.00
C354   C     0.31251   0.87101   0.26868   0.00000  Uiso   1.00
C355   C     0.31153   0.79592   0.23081   0.00000  Uiso   1.00
C356   C     0.02180   0.87075   0.26919   0.00000  Uiso   1.00
C357   C     0.29053   0.83357   0.24954   0.00000  Uiso   1.00
C358   C     0.04280   0.83310   0.25046   0.00000  Uiso   1.00
C359   C     0.14160   0.69140   0.22137   0.00000  Uiso   1.00
C360   C     0.19174   0.97527   0.27863   0.00000  Uiso   1.00
C361   C     0.19179   0.69147   0.27858   0.00000  Uiso   1.00
C362   C     0.14154   0.97520   0.22142   0.00000  Uiso   1.00
C363   C     0.16573   0.83340   0.16455   0.00000  Uiso   1.00
C364   C     0.16760   0.83327   0.33545   0.00000  Uiso   1.00
C365   C     0.20470   0.82223   0.40740   0.00000  Uiso   1.00
C366   C     0.12863   0.84443   0.09260   0.00000  Uiso   1.00
C367   C     0.16847   0.83311   0.38362   0.00000  Uiso   1.00
C368   C     0.16486   0.83355   0.11638   0.00000  Uiso   1.00
C369   C     0.13226   0.84423   0.40494   0.00000  Uiso   1.00
C370   C     0.20107   0.82244   0.09506   0.00000  Uiso   1.00
C371   C     0.13079   0.84464   0.45144   0.00000  Uiso   1.00
C372   C     0.20254   0.82202   0.04856   0.00000  Uiso   1.00
C373   C     0.16707   0.83327   0.47646   0.00000  Uiso   1.00
C374   C     0.16626   0.83340   0.02354   0.00000  Uiso   1.00
C375   C     0.20417   0.82175   0.45444   0.00000  Uiso   1.00
C376   C     0.12917   0.84492   0.04556   0.00000  Uiso   1.00
C377   C     0.09426   0.85612   0.47369   0.00000  Uiso   1.00
C378   C     0.23907   0.81055   0.02631   0.00000  Uiso   1.00
Cu379  Cu    0.16667   0.88022   0.25000   0.00000  Uiso   1.00
Cu380  Cu    0.16667   0.78645   0.25000   0.00000  Uiso   1.00
N381   N     0.16667   0.95069   0.25000   0.00000  Uiso   1.00
N382   N     0.16667   0.71598   0.25000   0.00000  Uiso   1.00
O383   O     0.10655   0.87291   0.24999   0.00000  Uiso   1.00
O384   O     0.22679   0.79375   0.25000   0.00000  Uiso   1.00
O385   O     0.22679   0.87291   0.25000   0.00000  Uiso   1.00
O386   O     0.10655   0.79375   0.24999   0.00000  Uiso   1.00
O387   O     0.16666   0.87293   0.18513   0.00000  Uiso   1.00
O388   O     0.16668   0.79373   0.31487   0.00000  Uiso   1.00
O389   O     0.16668   0.87293   0.31487   0.00000  Uiso   1.00
O390   O     0.16666   0.79373   0.18513   0.00000  Uiso   1.00
I391   I     0.25895   0.80978   0.36906   0.00000  Uiso   1.00
I392   I     0.07438   0.85689   0.13094   0.00000  Uiso   1.00
F393   F     0.09881   0.85422   0.37899   0.00000  Uiso   1.00
F394   F     0.23452   0.81244   0.12101   0.00000  Uiso   1.00
I395   I     0.03652   0.87388   0.44203   0.00000  Uiso   1.00
I396   I     0.29681   0.79279   0.05797   0.00000  Uiso   1.00
F397   F     0.05819   0.86920   0.03882   0.00000  Uiso   1.00
F398   F     0.27514   0.79746   0.46118   0.00000  Uiso   1.00
F399   F     0.04045   0.75946   0.21187   0.00000  Uiso   1.00
F400   F     0.29289   0.90720   0.28813   0.00000  Uiso   1.00
F401   F     0.29090   0.75992   0.21104   0.00000  Uiso   1.00
F402   F     0.04244   0.90674   0.28896   0.00000  Uiso   1.00
F403   F     0.11652   0.71454   0.19241   0.00000  Uiso   1.00
F404   F     0.21681   0.95213   0.30759   0.00000  Uiso   1.00
F405   F     0.21716   0.71467   0.30724   0.00000  Uiso   1.00
F406   F     0.11617   0.95199   0.19276   0.00000  Uiso   1.00
C407   C     0.42075   0.83324   0.25039   0.00000  Uiso   1.00
C408   C     0.57925   0.83343   0.24961   0.00000  Uiso   1.00
C409   C     0.42720   0.85651   0.01987   0.00000  Uiso   1.00
C410   C     0.57279   0.81016   0.48013   0.00000  Uiso   1.00
C411   C     0.35416   0.79565   0.23132   0.00000  Uiso   1.00
C412   C     0.64585   0.87101   0.26868   0.00000  Uiso   1.00
C413   C     0.64487   0.79592   0.23081   0.00000  Uiso   1.00
C414   C     0.35514   0.87075   0.26919   0.00000  Uiso   1.00
C415   C     0.62386   0.83357   0.24954   0.00000  Uiso   1.00
C416   C     0.37614   0.83310   0.25046   0.00000  Uiso   1.00
C417   C     0.47493   0.69140   0.22137   0.00000  Uiso   1.00
C418   C     0.52507   0.97527   0.27863   0.00000  Uiso   1.00
C419   C     0.52512   0.69147   0.27858   0.00000  Uiso   1.00
C420   C     0.47488   0.97520   0.22142   0.00000  Uiso   1.00
C421   C     0.49907   0.83340   0.16455   0.00000  Uiso   1.00
C422   C     0.50093   0.83327   0.33545   0.00000  Uiso   1.00
C423   C     0.53803   0.82223   0.40740   0.00000  Uiso   1.00
C424   C     0.46197   0.84443   0.09260   0.00000  Uiso   1.00
C425   C     0.50180   0.83311   0.38362   0.00000  Uiso   1.00
C426   C     0.49820   0.83355   0.11638   0.00000  Uiso   1.00
C427   C     0.46560   0.84423   0.40494   0.00000  Uiso   1.00
C428   C     0.53440   0.82244   0.09506   0.00000  Uiso   1.00
C429   C     0.46413   0.84464   0.45144   0.00000  Uiso   1.00
C430   C     0.53587   0.82202   0.04856   0.00000  Uiso   1.00
C431   C     0.50041   0.83327   0.47646   0.00000  Uiso   1.00
C432   C     0.49959   0.83340   0.02354   0.00000  Uiso   1.00
C433   C     0.53750   0.82175   0.45444   0.00000  Uiso   1.00
C434   C     0.46250   0.84492   0.04556   0.00000  Uiso   1.00
C435   C     0.42760   0.85612   0.47369   0.00000  Uiso   1.00
C436   C     0.57240   0.81055   0.02631   0.00000  Uiso   1.00
Cu437  Cu    0.50000   0.88022   0.25000   0.00000  Uiso   1.00
Cu438  Cu    0.50000   0.78645   0.25000   0.00000  Uiso   1.00
N439   N     0.50000   0.95069   0.25000   0.00000  Uiso   1.00
N440   N     0.50000   0.71598   0.25000   0.00000  Uiso   1.00
O441   O     0.43988   0.87291   0.24999   0.00000  Uiso   1.00
O442   O     0.56012   0.79375   0.25000   0.00000  Uiso   1.00
O443   O     0.56012   0.87291   0.25000   0.00000  Uiso   1.00
O444   O     0.43988   0.79375   0.24999   0.00000  Uiso   1.00
O445   O     0.49999   0.87293   0.18513   0.00000  Uiso   1.00
O446   O     0.50001   0.79373   0.31487   0.00000  Uiso   1.00
O447   O     0.50001   0.87293   0.31487   0.00000  Uiso   1.00
O448   O     0.49999   0.79373   0.18513   0.00000  Uiso   1.00
I449   I     0.59229   0.80978   0.36906   0.00000  Uiso   1.00
I450   I     0.40771   0.85689   0.13094   0.00000  Uiso   1.00
F451   F     0.43214   0.85422   0.37899   0.00000  Uiso   1.00
F452   F     0.56786   0.81244   0.12101   0.00000  Uiso   1.00
I453   I     0.36986   0.87388   0.44203   0.00000  Uiso   1.00
I454   I     0.63014   0.79279   0.05797   0.00000  Uiso   1.00
F455   F     0.39152   0.86920   0.03882   0.00000  Uiso   1.00
F456   F     0.60848   0.79746   0.46118   0.00000  Uiso   1.00
F457   F     0.37378   0.75946   0.21187   0.00000  Uiso   1.00
F458   F     0.62622   0.90720   0.28813   0.00000  Uiso   1.00
F459   F     0.62423   0.75992   0.21104   0.00000  Uiso   1.00
F460   F     0.37577   0.90674   0.28896   0.00000  Uiso   1.00
F461   F     0.44985   0.71454   0.19241   0.00000  Uiso   1.00
F462   F     0.55015   0.95213   0.30759   0.00000  Uiso   1.00
F463   F     0.55050   0.71467   0.30724   0.00000  Uiso   1.00
F464   F     0.44950   0.95199   0.19276   0.00000  Uiso   1.00
C465   C     0.75408   0.83324   0.25039   0.00000  Uiso   1.00
C466   C     0.91258   0.83343   0.24961   0.00000  Uiso   1.00
C467   C     0.76054   0.85651   0.01987   0.00000  Uiso   1.00
C468   C     0.90613   0.81016   0.48013   0.00000  Uiso   1.00
C469   C     0.68749   0.79565   0.23132   0.00000  Uiso   1.00
C470   C     0.97918   0.87101   0.26868   0.00000  Uiso   1.00
C471   C     0.97820   0.79592   0.23081   0.00000  Uiso   1.00
C472   C     0.68847   0.87075   0.26919   0.00000  Uiso   1.00
C473   C     0.95720   0.83357   0.24954   0.00000  Uiso   1.00
C474   C     0.70947   0.83310   0.25046   0.00000  Uiso   1.00
C475   C     0.80826   0.69140   0.22137   0.00000  Uiso   1.00
C476   C     0.85841   0.97527   0.27863   0.00000  Uiso   1.00
C477   C     0.85846   0.69147   0.27858   0.00000  Uiso   1.00
C478   C     0.80821   0.97520   0.22142   0.00000  Uiso   1.00
C479   C     0.83240   0.83340   0.16455   0.00000  Uiso   1.00
C480   C     0.83427   0.83327   0.33545   0.00000  Uiso   1.00
C481   C     0.87137   0.82223   0.40740   0.00000  Uiso   1.00
C482   C     0.79530   0.84443   0.09260   0.00000  Uiso   1.00
C483   C     0.83514   0.83311   0.38362   0.00000  Uiso   1.00
C484   C     0.83153   0.83355   0.11638   0.00000  Uiso   1.00
C485   C     0.79893   0.84423   0.40494   0.00000  Uiso   1.00
C486   C     0.86774   0.82244   0.09506   0.00000  Uiso   1.00
C487   C     0.79746   0.84464   0.45144   0.00000  Uiso   1.00
C488   C     0.86921   0.82202   0.04856   0.00000  Uiso   1.00
C489   C     0.83374   0.83327   0.47646   0.00000  Uiso   1.00
C490   C     0.83293   0.83340   0.02354   0.00000  Uiso   1.00
C491   C     0.87083   0.82175   0.45444   0.00000  Uiso   1.00
C492   C     0.79583   0.84492   0.04556   0.00000  Uiso   1.00
C493   C     0.76093   0.85612   0.47369   0.00000  Uiso   1.00
C494   C     0.90574   0.81055   0.02631   0.00000  Uiso   1.00
Cu495  Cu    0.83333   0.88022   0.25000   0.00000  Uiso   1.00
Cu496  Cu    0.83333   0.78645   0.25000   0.00000  Uiso   1.00
N497   N     0.83333   0.95069   0.25000   0.00000  Uiso   1.00
N498   N     0.83333   0.71598   0.25000   0.00000  Uiso   1.00
O499   O     0.77321   0.87291   0.24999   0.00000  Uiso   1.00
O500   O     0.89345   0.79375   0.25000   0.00000  Uiso   1.00
O501   O     0.89345   0.87291   0.25000   0.00000  Uiso   1.00
O502   O     0.77321   0.79375   0.24999   0.00000  Uiso   1.00
O503   O     0.83332   0.87293   0.18513   0.00000  Uiso   1.00
O504   O     0.83334   0.79373   0.31487   0.00000  Uiso   1.00
O505   O     0.83334   0.87293   0.31487   0.00000  Uiso   1.00
O506   O     0.83332   0.79373   0.18513   0.00000  Uiso   1.00
I507   I     0.92562   0.80978   0.36906   0.00000  Uiso   1.00
I508   I     0.74105   0.85689   0.13094   0.00000  Uiso   1.00
F509   F     0.76548   0.85422   0.37899   0.00000  Uiso   1.00
F510   F     0.90119   0.81244   0.12101   0.00000  Uiso   1.00
I511   I     0.70319   0.87388   0.44203   0.00000  Uiso   1.00
I512   I     0.96347   0.79279   0.05797   0.00000  Uiso   1.00
F513   F     0.72485   0.86920   0.03882   0.00000  Uiso   1.00
F514   F     0.94181   0.79746   0.46118   0.00000  Uiso   1.00
F515   F     0.70711   0.75946   0.21187   0.00000  Uiso   1.00
F516   F     0.95956   0.90720   0.28813   0.00000  Uiso   1.00
F517   F     0.95756   0.75992   0.21104   0.00000  Uiso   1.00
F518   F     0.70910   0.90674   0.28896   0.00000  Uiso   1.00
F519   F     0.78319   0.71454   0.19241   0.00000  Uiso   1.00
F520   F     0.88348   0.95213   0.30759   0.00000  Uiso   1.00
F521   F     0.88383   0.71467   0.30724   0.00000  Uiso   1.00
F522   F     0.78284   0.95199   0.19276   0.00000  Uiso   1.00
C523   C     0.08742   0.16657   0.75039   0.00000  Uiso   1.00
C524   C     0.24592   0.16676   0.74961   0.00000  Uiso   1.00
C525   C     0.09387   0.18984   0.51987   0.00000  Uiso   1.00
C526   C     0.23946   0.14349   0.98013   0.00000  Uiso   1.00
C527   C     0.02082   0.12899   0.73132   0.00000  Uiso   1.00
C528   C     0.31251   0.20435   0.76868   0.00000  Uiso   1.00
C529   C     0.31153   0.12925   0.73081   0.00000  Uiso   1.00
C530   C     0.02180   0.20408   0.76919   0.00000  Uiso   1.00
C531   C     0.29053   0.16690   0.74954   0.00000  Uiso   1.00
C532   C     0.04280   0.16643   0.75046   0.00000  Uiso   1.00
C533   C     0.14160   0.02473   0.72137   0.00000  Uiso   1.00
C534   C     0.19174   0.30860   0.77863   0.00000  Uiso   1.00
C535   C     0.19179   0.02480   0.77858   0.00000  Uiso   1.00
C536   C     0.14154   0.30853   0.72142   0.00000  Uiso   1.00
C537   C     0.16573   0.16673   0.66455   0.00000  Uiso   1.00
C538   C     0.16760   0.16660   0.83545   0.00000  Uiso   1.00
C539   C     0.20470   0.15557   0.90740   0.00000  Uiso   1.00
C540   C     0.12863   0.17777   0.59260   0.00000  Uiso   1.00
C541   C     0.16847   0.16645   0.88362   0.00000  Uiso   1.00
C542   C     0.16486   0.16689   0.61638   0.00000  Uiso   1.00
C543   C     0.13226   0.17756   0.90494   0.00000  Uiso   1.00
C544   C     0.20107   0.15577   0.59506   0.00000  Uiso   1.00
C545   C     0.13079   0.17798   0.95144   0.00000  Uiso   1.00
C546   C     0.20254   0.15536   0.54856   0.00000  Uiso   1.00
C547   C     0.16707   0.16660   0.97646   0.00000  Uiso   1.00
C548   C     0.16626   0.16673   0.52354   0.00000  Uiso   1.00
C549   C     0.20417   0.15508   0.95444   0.00000  Uiso   1.00
C550   C     0.12917   0.17825   0.54556   0.00000  Uiso   1.00
C551   C     0.09426   0.18945   0.97369   0.00000  Uiso   1.00
C552   C     0.23907   0.14388   0.52631   0.00000  Uiso   1.00
Cu553  Cu    0.16667   0.21355   0.75000   0.00000  Uiso   1.00
Cu554  Cu    0.16667   0.11978   0.75000   0.00000  Uiso   1.00
N555   N     0.16667   0.28402   0.75000   0.00000  Uiso   1.00
N556   N     0.16667   0.04931   0.75000   0.00000  Uiso   1.00
O557   O     0.10655   0.20625   0.74999   0.00000  Uiso   1.00
O558   O     0.22679   0.12709   0.75000   0.00000  Uiso   1.00
O559   O     0.22679   0.20625   0.75000   0.00000  Uiso   1.00
O560   O     0.10655   0.12709   0.74999   0.00000  Uiso   1.00
O561   O     0.16666   0.20627   0.68513   0.00000  Uiso   1.00
O562   O     0.16668   0.12707   0.81487   0.00000  Uiso   1.00
O563   O     0.16668   0.20627   0.81487   0.00000  Uiso   1.00
O564   O     0.16666   0.12707   0.68513   0.00000  Uiso   1.00
I565   I     0.25895   0.14311   0.86906   0.00000  Uiso   1.00
I566   I     0.07438   0.19022   0.63094   0.00000  Uiso   1.00
F567   F     0.09881   0.18756   0.87899   0.00000  Uiso   1.00
F568   F     0.23452   0.14577   0.62101   0.00000  Uiso   1.00
I569   I     0.03652   0.20721   0.94203   0.00000  Uiso   1.00
I570   I     0.29681   0.12612   0.55797   0.00000  Uiso   1.00
F571   F     0.05819   0.20254   0.53882   0.00000  Uiso   1.00
F572   F     0.27514   0.13080   0.96118   0.00000  Uiso   1.00
F573   F     0.04045   0.09279   0.71187   0.00000  Uiso   1.00
F574   F     0.29289   0.24054   0.78813   0.00000  Uiso   1.00
F575   F     0.29090   0.09326   0.71104   0.00000  Uiso   1.00
F576   F     0.04244   0.24008   0.78896   0.00000  Uiso   1.00
F577   F     0.11652   0.04787   0.69241   0.00000  Uiso   1.00
F578   F     0.21681   0.28546   0.80759   0.00000  Uiso   1.00
F579   F     0.21716   0.04801   0.80724   0.00000  Uiso   1.00
F580   F     0.11617   0.28533   0.69276   0.00000  Uiso   1.00
C581   C     0.42075   0.16657   0.75039   0.00000  Uiso   1.00
C582   C     0.57925   0.16676   0.74961   0.00000  Uiso   1.00
C583   C     0.42720   0.18984   0.51987   0.00000  Uiso   1.00
C584   C     0.57279   0.14349   0.98013   0.00000  Uiso   1.00
C585   C     0.35416   0.12899   0.73132   0.00000  Uiso   1.00
C586   C     0.64585   0.20435   0.76868   0.00000  Uiso   1.00
C587   C     0.64487   0.12925   0.73081   0.00000  Uiso   1.00
C588   C     0.35514   0.20408   0.76919   0.00000  Uiso   1.00
C589   C     0.62386   0.16690   0.74954   0.00000  Uiso   1.00
C590   C     0.37614   0.16643   0.75046   0.00000  Uiso   1.00
C591   C     0.47493   0.02473   0.72137   0.00000  Uiso   1.00
C592   C     0.52507   0.30860   0.77863   0.00000  Uiso   1.00
C593   C     0.52512   0.02480   0.77858   0.00000  Uiso   1.00
C594   C     0.47488   0.30853   0.72142   0.00000  Uiso   1.00
C595   C     0.49907   0.16673   0.66455   0.00000  Uiso   1.00
C596   C     0.50093   0.16660   0.83545   0.00000  Uiso   1.00
C597   C     0.53803   0.15557   0.90740   0.00000  Uiso   1.00
C598   C     0.46197   0.17777   0.59260   0.00000  Uiso   1.00
C599   C     0.50180   0.16645   0.88362   0.00000  Uiso   1.00
C600   C     0.49820   0.16689   0.61638   0.00000  Uiso   1.00
C601   C     0.46560   0.17756   0.90494   0.00000  Uiso   1.00
C602   C     0.53440   0.15577   0.59506   0.00000  Uiso   1.00
C603   C     0.46413   0.17798   0.95144   0.00000  Uiso   1.00
C604   C     0.53587   0.15536   0.54856   0.00000  Uiso   1.00
C605   C     0.50041   0.16660   0.97646   0.00000  Uiso   1.00
C606   C     0.49959   0.16673   0.52354   0.00000  Uiso   1.00
C607   C     0.53750   0.15508   0.95444   0.00000  Uiso   1.00
C608   C     0.46250   0.17825   0.54556   0.00000  Uiso   1.00
C609   C     0.42760   0.18945   0.97369   0.00000  Uiso   1.00
C610   C     0.57240   0.14388   0.52631   0.00000  Uiso   1.00
Cu611  Cu    0.50000   0.21355   0.75000   0.00000  Uiso   1.00
Cu612  Cu    0.50000   0.11978   0.75000   0.00000  Uiso   1.00
N613   N     0.50000   0.28402   0.75000   0.00000  Uiso   1.00
N614   N     0.50000   0.04931   0.75000   0.00000  Uiso   1.00
O615   O     0.43988   0.20625   0.74999   0.00000  Uiso   1.00
O616   O     0.56012   0.12709   0.75000   0.00000  Uiso   1.00
O617   O     0.56012   0.20625   0.75000   0.00000  Uiso   1.00
O618   O     0.43988   0.12709   0.74999   0.00000  Uiso   1.00
O619   O     0.49999   0.20627   0.68513   0.00000  Uiso   1.00
O620   O     0.50001   0.12707   0.81487   0.00000  Uiso   1.00
O621   O     0.50001   0.20627   0.81487   0.00000  Uiso   1.00
O622   O     0.49999   0.12707   0.68513   0.00000  Uiso   1.00
I623   I     0.59229   0.14311   0.86906   0.00000  Uiso   1.00
I624   I     0.40771   0.19022   0.63094   0.00000  Uiso   1.00
F625   F     0.43214   0.18756   0.87899   0.00000  Uiso   1.00
F626   F     0.56786   0.14577   0.62101   0.00000  Uiso   1.00
I627   I     0.36986   0.20721   0.94203   0.00000  Uiso   1.00
I628   I     0.63014   0.12612   0.55797   0.00000  Uiso   1.00
F629   F     0.39152   0.20254   0.53882   0.00000  Uiso   1.00
F630   F     0.60848   0.13080   0.96118   0.00000  Uiso   1.00
F631   F     0.37378   0.09279   0.71187   0.00000  Uiso   1.00
F632   F     0.62622   0.24054   0.78813   0.00000  Uiso   1.00
F633   F     0.62423   0.09326   0.71104   0.00000  Uiso   1.00
F634   F     0.37577   0.24008   0.78896   0.00000  Uiso   1.00
F635   F     0.44985   0.04787   0.69241   0.00000  Uiso   1.00
F636   F     0.55015   0.28546   0.80759   0.00000  Uiso   1.00
F637   F     0.55050   0.04801   0.80724   0.00000  Uiso   1.00
F638   F     0.44950   0.28533   0.69276   0.00000  Uiso   1.00
C639   C     0.75408   0.16657   0.75039   0.00000  Uiso   1.00
C640   C     0.91258   0.16676   0.74961   0.00000  Uiso   1.00
C641   C     0.76054   0.18984   0.51987   0.00000  Uiso   1.00
C642   C     0.90613   0.14349   0.98013   0.00000  Uiso   1.00
C643   C     0.68749   0.12899   0.73132   0.00000  Uiso   1.00
C644   C     0.97918   0.20435   0.76868   0.00000  Uiso   1.00
C645   C     0.97820   0.12925   0.73081   0.00000  Uiso   1.00
C646   C     0.68847   0.20408   0.76919   0.00000  Uiso   1.00
C647   C     0.95720   0.16690   0.74954   0.00000  Uiso   1.00
C648   C     0.70947   0.16643   0.75046   0.00000  Uiso   1.00
C649   C     0.80826   0.02473   0.72137   0.00000  Uiso   1.00
C650   C     0.85841   0.30860   0.77863   0.00000  Uiso   1.00
C651   C     0.85846   0.02480   0.77858   0.00000  Uiso   1.00
C652   C     0.80821   0.30853   0.72142   0.00000  Uiso   1.00
C653   C     0.83240   0.16673   0.66455   0.00000  Uiso   1.00
C654   C     0.83427   0.16660   0.83545   0.00000  Uiso   1.00
C655   C     0.87137   0.15557   0.90740   0.00000  Uiso   1.00
C656   C     0.79530   0.17777   0.59260   0.00000  Uiso   1.00
C657   C     0.83514   0.16645   0.88362   0.00000  Uiso   1.00
C658   C     0.83153   0.16689   0.61638   0.00000  Uiso   1.00
C659   C     0.79893   0.17756   0.90494   0.00000  Uiso   1.00
C660   C     0.86774   0.15577   0.59506   0.00000  Uiso   1.00
C661   C     0.79746   0.17798   0.95144   0.00000  Uiso   1.00
C662   C     0.86921   0.15536   0.54856   0.00000  Uiso   1.00
C663   C     0.83374   0.16660   0.97646   0.00000  Uiso   1.00
C664   C     0.83293   0.16673   0.52354   0.00000  Uiso   1.00
C665   C     0.87083   0.15508   0.95444   0.00000  Uiso   1.00
C666   C     0.79583   0.17825   0.54556   0.00000  Uiso   1.00
C667   C     0.76093   0.18945   0.97369   0.00000  Uiso   1.00
C668   C     0.90574   0.14388   0.52631   0.00000  Uiso   1.00
Cu669  Cu    0.83333   0.21355   0.75000   0.00000  Uiso   1.00
Cu670  Cu    0.83333   0.11978   0.75000   0.00000  Uiso   1.00
N671   N     0.83333   0.28402   0.75000   0.00000  Uiso   1.00
N672   N     0.83333   0.04931   0.75000   0.00000  Uiso   1.00
O673   O     0.77321   0.20625   0.74999   0.00000  Uiso   1.00
O674   O     0.89345   0.12709   0.75000   0.00000  Uiso   1.00
O675   O     0.89345   0.20625   0.75000   0.00000  Uiso   1.00
O676   O     0.77321   0.12709   0.74999   0.00000  Uiso   1.00
O677   O     0.83332   0.20627   0.68513   0.00000  Uiso   1.00
O678   O     0.83334   0.12707   0.81487   0.00000  Uiso   1.00
O679   O     0.83334   0.20627   0.81487   0.00000  Uiso   1.00
O680   O     0.83332   0.12707   0.68513   0.00000  Uiso   1.00
I681   I     0.92562   0.14311   0.86906   0.00000  Uiso   1.00
I682   I     0.74105   0.19022   0.63094   0.00000  Uiso   1.00
F683   F     0.76548   0.18756   0.87899   0.00000  Uiso   1.00
F684   F     0.90119   0.14577   0.62101   0.00000  Uiso   1.00
I685   I     0.70319   0.20721   0.94203   0.00000  Uiso   1.00
I686   I     0.96347   0.12612   0.55797   0.00000  Uiso   1.00
F687   F     0.72485   0.20254   0.53882   0.00000  Uiso   1.00
F688   F     0.94181   0.13080   0.96118   0.00000  Uiso   1.00
F689   F     0.70711   0.09279   0.71187   0.00000  Uiso   1.00
F690   F     0.95956   0.24054   0.78813   0.00000  Uiso   1.00
F691   F     0.95756   0.09326   0.71104   0.00000  Uiso   1.00
F692   F     0.70910   0.24008   0.78896   0.00000  Uiso   1.00
F693   F     0.78319   0.04787   0.69241   0.00000  Uiso   1.00
F694   F     0.88348   0.28546   0.80759   0.00000  Uiso   1.00
F695   F     0.88383   0.04801   0.80724   0.00000  Uiso   1.00
F696   F     0.78284   0.28533   0.69276   0.00000  Uiso   1.00
C697   C     0.08742   0.49990   0.75039   0.00000  Uiso   1.00
C698   C     0.24592   0.50010   0.74961   0.00000  Uiso   1.00
C699   C     0.09387   0.52318   0.51987   0.00000  Uiso   1.00
C700   C     0.23946   0.47682   0.98013   0.00000  Uiso   1.00
C701   C     0.02082   0.46232   0.73132   0.00000  Uiso   1.00
C702   C     0.31251   0.53768   0.76868   0.00000  Uiso   1.00
C703   C     0.31153   0.46259   0.73081   0.00000  Uiso   1.00
C704   C     0.02180   0.53741   0.76919   0.00000  Uiso   1.00
C705   C     0.29053   0.50024   0.74954   0.00000  Uiso   1.00
C706   C     0.04280   0.49976   0.75046   0.00000  Uiso   1.00
C707   C     0.14160   0.35807   0.72137   0.00000  Uiso   1.00
C708   C     0.19174   0.64193   0.77863   0.00000  Uiso   1.00
C709   C     0.19179   0.35813   0.77858   0.00000  Uiso   1.00
C710   C     0.14154   0.64187   0.72142   0.00000  Uiso   1.00
C711   C     0.16573   0.50006   0.66455   0.00000  Uiso   1.00
C712   C     0.16760   0.49994   0.83545   0.00000  Uiso   1.00
C713   C     0.20470   0.48890   0.90740   0.00000  Uiso   1.00
C714   C     0.12863   0.51110   0.59260   0.00000  Uiso   1.00
C715   C     0.16847   0.49978   0.88362   0.00000  Uiso   1.00
C716   C     0.16486   0.50022   0.61638   0.00000  Uiso   1.00
C717   C     0.13226   0.51089   0.90494   0.00000  Uiso   1.00
C718   C     0.20107   0.48911   0.59506   0.00000  Uiso   1.00
C719   C     0.13079   0.51131   0.95144   0.00000  Uiso   1.00
C720   C     0.20254   0.48869   0.54856   0.00000  Uiso   1.00
C721   C     0.16707   0.49994   0.97646   0.00000  Uiso   1.00
C722   C     0.16626   0.50006   0.52354   0.00000  Uiso   1.00
C723   C     0.20417   0.48841   0.95444   0.00000  Uiso   1.00
C724   C     0.12917   0.51159   0.54556   0.00000  Uiso   1.00
C725   C     0.09426   0.52279   0.97369   0.00000  Uiso   1.00
C726   C     0.23907   0.47722   0.52631   0.00000  Uiso   1.00
Cu727  Cu    0.16667   0.54689   0.75000   0.00000  Uiso   1.00
Cu728  Cu    0.16667   0.45311   0.75000   0.00000  Uiso   1.00
N729   N     0.16667   0.61736   0.75000   0.00000  Uiso   1.00
N730   N     0.16667   0.38264   0.75000   0.00000  Uiso   1.00
O731   O     0.10655   0.53958   0.74999   0.00000  Uiso   1.00
O732   O     0.22679   0.46042   0.75000   0.00000  Uiso   1.00
O733   O     0.22679   0.53958   0.75000   0.00000  Uiso   1.00
O734   O     0.10655   0.46042   0.74999   0.00000  Uiso   1.00
O735   O     0.16666   0.53960   0.68513   0.00000  Uiso   1.00
O736   O     0.16668   0.46040   0.81487   0.00000  Uiso   1.00
O737   O     0.16668   0.53960   0.81487   0.00000  Uiso   1.00
O738   O     0.16666   0.46040   0.68513   0.00000  Uiso   1.00
I739   I     0.25895   0.47644   0.86906   0.00000  Uiso   1.00
I740   I     0.07438   0.52356   0.63094   0.00000  Uiso   1.00
F741   F     0.09881   0.52089   0.87899   0.00000  Uiso   1.00
F742   F     0.23452   0.47911   0.62101   0.00000  Uiso   1.00
I743   I     0.03652   0.54055   0.94203   0.00000  Uiso   1.00
I744   I     0.29681   0.45945   0.55797   0.00000  Uiso   1.00
F745   F     0.05819   0.53587   0.53882   0.00000  Uiso   1.00
F746   F     0.27514   0.46413   0.96118   0.00000  Uiso   1.00
F747   F     0.04045   0.42613   0.71187   0.00000  Uiso   1.00
F748   F     0.29289   0.57387   0.78813   0.00000  Uiso   1.00
F749   F     0.29090   0.42659   0.71104   0.00000  Uiso   1.00
F750   F     0.04244   0.57341   0.78896   0.00000  Uiso   1.00
F751   F     0.11652   0.38121   0.69241   0.00000  Uiso   1.00
F752   F     0.21681   0.61879   0.80759   0.00000  Uiso   1.00
F753   F     0.21716   0.38134   0.80724   0.00000  Uiso   1.00
F754   F     0.11617   0.61866   0.69276   0.00000  Uiso   1.00
C755   C     0.42075   0.49990   0.75039   0.00000  Uiso   1.00
C756   C     0.57925   0.50010   0.74961   0.00000  Uiso   1.00
C757   C     0.42720   0.52318   0.51987   0.00000  Uiso   1.00
C758   C     0.57279   0.47682   0.98013   0.00000  Uiso   1.00
C759   C     0.35416   0.46232   0.73132   0.00000  Uiso   1.00
C760   C     0.64585   0.53768   0.76868   0.00000  Uiso   1.00
C761   C     0.64487   0.46259   0.73081   0.00000  Uiso   1.00
C762   C     0.35514   0.53741   0.76919   0.00000  Uiso   1.00
C763   C     0.62386   0.50024   0.74954   0.00000  Uiso   1.00
C764   C     0.37614   0.49976   0.75046   0.00000  Uiso   1.00
C765   C     0.47493   0.35807   0.72137   0.00000  Uiso   1.00
C766   C     0.52507   0.64193   0.77863   0.00000  Uiso   1.00
C767   C     0.52512   0.35813   0.77858   0.00000  Uiso   1.00
C768   C     0.47488   0.64187   0.72142   0.00000  Uiso   1.00
C769   C     0.49907   0.50006   0.66455   0.00000  Uiso   1.00
C770   C     0.50093   0.49994   0.83545   0.00000  Uiso   1.00
C771   C     0.53803   0.48890   0.90740   0.00000  Uiso   1.00
C772   C     0.46197   0.51110   0.59260   0.00000  Uiso   1.00
C773   C     0.50180   0.49978   0.88362   0.00000  Uiso   1.00
C774   C     0.49820   0.50022   0.61638   0.00000  Uiso   1.00
C775   C     0.46560   0.51089   0.90494   0.00000  Uiso   1.00
C776   C     0.53440   0.48911   0.59506   0.00000  Uiso   1.00
C777   C     0.46413   0.51131   0.95144   0.00000  Uiso   1.00
C778   C     0.53587   0.48869   0.54856   0.00000  Uiso   1.00
C779   C     0.50041   0.49994   0.97646   0.00000  Uiso   1.00
C780   C     0.49959   0.50006   0.52354   0.00000  Uiso   1.00
C781   C     0.53750   0.48841   0.95444   0.00000  Uiso   1.00
C782   C     0.46250   0.51159   0.54556   0.00000  Uiso   1.00
C783   C     0.42760   0.52279   0.97369   0.00000  Uiso   1.00
C784   C     0.57240   0.47722   0.52631   0.00000  Uiso   1.00
Cu785  Cu    0.50000   0.54689   0.75000   0.00000  Uiso   1.00
Cu786  Cu    0.50000   0.45311   0.75000   0.00000  Uiso   1.00
N787   N     0.50000   0.61736   0.75000   0.00000  Uiso   1.00
N788   N     0.50000   0.38264   0.75000   0.00000  Uiso   1.00
O789   O     0.43988   0.53958   0.74999   0.00000  Uiso   1.00
O790   O     0.56012   0.46042   0.75000   0.00000  Uiso   1.00
O791   O     0.56012   0.53958   0.75000   0.00000  Uiso   1.00
O792   O     0.43988   0.46042   0.74999   0.00000  Uiso   1.00
O793   O     0.49999   0.53960   0.68513   0.00000  Uiso   1.00
O794   O     0.50001   0.46040   0.81487   0.00000  Uiso   1.00
O795   O     0.50001   0.53960   0.81487   0.00000  Uiso   1.00
O796   O     0.49999   0.46040   0.68513   0.00000  Uiso   1.00
I797   I     0.59229   0.47644   0.86906   0.00000  Uiso   1.00
I798   I     0.40771   0.52356   0.63094   0.00000  Uiso   1.00
F799   F     0.43214   0.52089   0.87899   0.00000  Uiso   1.00
F800   F     0.56786   0.47911   0.62101   0.00000  Uiso   1.00
I801   I     0.36986   0.54055   0.94203   0.00000  Uiso   1.00
I802   I     0.63014   0.45945   0.55797   0.00000  Uiso   1.00
F803   F     0.39152   0.53587   0.53882   0.00000  Uiso   1.00
F804   F     0.60848   0.46413   0.96118   0.00000  Uiso   1.00
F805   F     0.37378   0.42613   0.71187   0.00000  Uiso   1.00
F806   F     0.62622   0.57387   0.78813   0.00000  Uiso   1.00
F807   F     0.62423   0.42659   0.71104   0.00000  Uiso   1.00
F808   F     0.37577   0.57341   0.78896   0.00000  Uiso   1.00
F809   F     0.44985   0.38121   0.69241   0.00000  Uiso   1.00
F810   F     0.55015   0.61879   0.80759   0.00000  Uiso   1.00
F811   F     0.55050   0.38134   0.80724   0.00000  Uiso   1.00
F812   F     0.44950   0.61866   0.69276   0.00000  Uiso   1.00
C813   C     0.75408   0.49990   0.75039   0.00000  Uiso   1.00
C814   C     0.91258   0.50010   0.74961   0.00000  Uiso   1.00
C815   C     0.76054   0.52318   0.51987   0.00000  Uiso   1.00
C816   C     0.90613   0.47682   0.98013   0.00000  Uiso   1.00
C817   C     0.68749   0.46232   0.73132   0.00000  Uiso   1.00
C818   C     0.97918   0.53768   0.76868   0.00000  Uiso   1.00
C819   C     0.97820   0.46259   0.73081   0.00000  Uiso   1.00
C820   C     0.68847   0.53741   0.76919   0.00000  Uiso   1.00
C821   C     0.95720   0.50024   0.74954   0.00000  Uiso   1.00
C822   C     0.70947   0.49976   0.75046   0.00000  Uiso   1.00
C823   C     0.80826   0.35807   0.72137   0.00000  Uiso   1.00
C824   C     0.85841   0.64193   0.77863   0.00000  Uiso   1.00
C825   C     0.85846   0.35813   0.77858   0.00000  Uiso   1.00
C826   C     0.80821   0.64187   0.72142   0.00000  Uiso   1.00
C827   C     0.83240   0.50006   0.66455   0.00000  Uiso   1.00
C828   C     0.83427   0.49994   0.83545   0.00000  Uiso   1.00
C829   C     0.87137   0.48890   0.90740   0.00000  Uiso   1.00
C830   C     0.79530   0.51110   0.59260   0.00000  Uiso   1.00
C831   C     0.83514   0.49978   0.88362   0.00000  Uiso   1.00
C832   C     0.83153   0.50022   0.61638   0.00000  Uiso   1.00
C833   C     0.79893   0.51089   0.90494   0.00000  Uiso   1.00
C834   C     0.86774   0.48911   0.59506   0.00000  Uiso   1.00
C835   C     0.79746   0.51131   0.95144   0.00000  Uiso   1.00
C836   C     0.86921   0.48869   0.54856   0.00000  Uiso   1.00
C837   C     0.83374   0.49994   0.97646   0.00000  Uiso   1.00
C838   C     0.83293   0.50006   0.52354   0.00000  Uiso   1.00
C839   C     0.87083   0.48841   0.95444   0.00000  Uiso   1.00
C840   C     0.79583   0.51159   0.54556   0.00000  Uiso   1.00
C841   C     0.76093   0.52279   0.97369   0.00000  Uiso   1.00
C842   C     0.90574   0.47722   0.52631   0.00000  Uiso   1.00
Cu843  Cu    0.83333   0.54689   0.75000   0.00000  Uiso   1.00
Cu844  Cu    0.83333   0.45311   0.75000   0.00000  Uiso   1.00
N845   N     0.83333   0.61736   0.75000   0.00000  Uiso   1.00
N846   N     0.83333   0.38264   0.75000   0.00000  Uiso   1.00
O847   O     0.77321   0.53958   0.74999   0.00000  Uiso   1.00
O848   O     0.89345   0.46042   0.75000   0.00000  Uiso   1.00
O849   O     0.89345   0.53958   0.75000   0.00000  Uiso   1.00
O850   O     0.77321   0.46042   0.74999   0.00000  Uiso   1.00
O851   O     0.83332   0.53960   0.68513   0.00000  Uiso   1.00
O852   O     0.83334   0.46040   0.81487   0.00000  Uiso   1.00
O853   O     0.83334   0.53960   0.81487   0.00000  Uiso   1.00
O854   O     0.83332   0.46040   0.68513   0.00000  Uiso   1.00
I855   I     0.92562   0.47644   0.86906   0.00000  Uiso   1.00
I856   I     0.74105   0.52356   0.63094   0.00000  Uiso   1.00
F857   F     0.76548   0.52089   0.87899   0.00000  Uiso   1.00
F858   F     0.90119   0.47911   0.62101   0.00000  Uiso   1.00
I859   I     0.70319   0.54055   0.94203   0.00000  Uiso   1.00
I860   I     0.96347   0.45945   0.55797   0.00000  Uiso   1.00
F861   F     0.72485   0.53587   0.53882   0.00000  Uiso   1.00
F862   F     0.94181   0.46413   0.96118   0.00000  Uiso   1.00
F863   F     0.70711   0.42613   0.71187   0.00000  Uiso   1.00
F864   F     0.95956   0.57387   0.78813   0.00000  Uiso   1.00
F865   F     0.95756   0.42659   0.71104   0.00000  Uiso   1.00
F866   F     0.70910   0.57341   0.78896   0.00000  Uiso   1.00
F867   F     0.78319   0.38121   0.69241   0.00000  Uiso   1.00
F868   F     0.88348   0.61879   0.80759   0.00000  Uiso   1.00
F869   F     0.88383   0.38134   0.80724   0.00000  Uiso   1.00
F870   F     0.78284   0.61866   0.69276   0.00000  Uiso   1.00
C871   C     0.08742   0.83324   0.75039   0.00000  Uiso   1.00
C872   C     0.24592   0.83343   0.74961   0.00000  Uiso   1.00
C873   C     0.09387   0.85651   0.51987   0.00000  Uiso   1.00
C874   C     0.23946   0.81016   0.98013   0.00000  Uiso   1.00
C875   C     0.02082   0.79565   0.73132   0.00000  Uiso   1.00
C876   C     0.31251   0.87101   0.76868   0.00000  Uiso   1.00
C877   C     0.31153   0.79592   0.73081   0.00000  Uiso   1.00
C878   C     0.02180   0.87075   0.76919   0.00000  Uiso   1.00
C879   C     0.29053   0.83357   0.74954   0.00000  Uiso   1.00
C880   C     0.04280   0.83310   0.75046   0.00000  Uiso   1.00
C881   C     0.14160   0.69140   0.72137   0.00000  Uiso   1.00
C882   C     0.19174   0.97527   0.77863   0.00000  Uiso   1.00
C883   C     0.19179   0.69147   0.77858   0.00000  Uiso   1.00
C884   C     0.14154   0.97520   0.72142   0.00000  Uiso   1.00
C885   C     0.16573   0.83340   0.66455   0.00000  Uiso   1.00
C886   C     0.16760   0.83327   0.83545   0.00000  Uiso   1.00
C887   C     0.20470   0.82223   0.90740   0.00000  Uiso   1.00
C888   C     0.12863   0.84443   0.59260   0.00000  Uiso   1.00
C889   C     0.16847   0.83311   0.88362   0.00000  Uiso   1.00
C890   C     0.16486   0.83355   0.61638   0.00000  Uiso   1.00
C891   C     0.13226   0.84423   0.90494   0.00000  Uiso   1.00
C892   C     0.20107   0.82244   0.59506   0.00000  Uiso   1.00
C893   C     0.13079   0.84464   0.95144   0.00000  Uiso   1.00
C894   C     0.20254   0.82202   0.54856   0.00000  Uiso   1.00
C895   C     0.16707   0.83327   0.97646   0.00000  Uiso   1.00
C896   C     0.16626   0.83340   0.52354   0.00000  Uiso   1.00
C897   C     0.20417   0.82175   0.95444   0.00000  Uiso   1.00
C898   C     0.12917   0.84492   0.54556   0.00000  Uiso   1.00
C899   C     0.09426   0.85612   0.97369   0.00000  Uiso   1.00
C900   C     0.23907   0.81055   0.52631   0.00000  Uiso   1.00
Cu901  Cu    0.16667   0.88022   0.75000   0.00000  Uiso   1.00
Cu902  Cu    0.16667   0.78645   0.75000   0.00000  Uiso   1.00
N903   N     0.16667   0.95069   0.75000   0.00000  Uiso   1.00
N904   N     0.16667   0.71598   0.75000   0.00000  Uiso   1.00
O905   O     0.10655   0.87291   0.74999   0.00000  Uiso   1.00
O906   O     0.22679   0.79375   0.75000   0.00000  Uiso   1.00
O907   O     0.22679   0.87291   0.75000   0.00000  Uiso   1.00
O908   O     0.10655   0.79375   0.74999   0.00000  Uiso   1.00
O909   O     0.16666   0.87293   0.68513   0.00000  Uiso   1.00
O910   O     0.16668   0.79373   0.81487   0.00000  Uiso   1.00
O911   O     0.16668   0.87293   0.81487   0.00000  Uiso   1.00
O912   O     0.16666   0.79373   0.68513   0.00000  Uiso   1.00
I913   I     0.25895   0.80978   0.86906   0.00000  Uiso   1.00
I914   I     0.07438   0.85689   0.63094   0.00000  Uiso   1.00
F915   F     0.09881   0.85422   0.87899   0.00000  Uiso   1.00
F916   F     0.23452   0.81244   0.62101   0.00000  Uiso   1.00
I917   I     0.03652   0.87388   0.94203   0.00000  Uiso   1.00
I918   I     0.29681   0.79279   0.55797   0.00000  Uiso   1.00
F919   F     0.05819   0.86920   0.53882   0.00000  Uiso   1.00
F920   F     0.27514   0.79746   0.96118   0.00000  Uiso   1.00
F921   F     0.04045   0.75946   0.71187   0.00000  Uiso   1.00
F922   F     0.29289   0.90720   0.78813   0.00000  Uiso   1.00
F923   F     0.29090   0.75992   0.71104   0.00000  Uiso   1.00
F924   F     0.04244   0.90674   0.78896   0.00000  Uiso   1.00
F925   F     0.11652   0.71454   0.69241   0.00000  Uiso   1.00
F926   F     0.21681   0.95213   0.80759   0.00000  Uiso   1.00
F927   F     0.21716   0.71467   0.80724   0.00000  Uiso   1.00
F928   F     0.11617   0.95199   0.69276   0.00000  Uiso   1.00
C929   C     0.42075   0.83324   0.75039   0.00000  Uiso   1.00
C930   C     0.57925   0.83343   0.74961   0.00000  Uiso   1.00
C931   C     0.42720   0.85651   0.51987   0.00000  Uiso   1.00
C932   C     0.57279   0.81016   0.98013   0.00000  Uiso   1.00
C933   C     0.35416   0.79565   0.73132   0.00000  Uiso   1.00
C934   C     0.64585   0.87101   0.76868   0.00000  Uiso   1.00
C935   C     0.64487   0.79592   0.73081   0.00000  Uiso   1.00
C936   C     0.35514   0.87075   0.76919   0.00000  Uiso   1.00
C937   C     0.62386   0.83357   0.74954   0.00000  Uiso   1.00
C938   C     0.37614   0.83310   0.75046   0.00000  Uiso   1.00
C939   C     0.47493   0.69140   0.72137   0.00000  Uiso   1.00
C940   C     0.52507   0.97527   0.77863   0.00000  Uiso   1.00
C941   C     0.52512   0.69147   0.77858   0.00000  Uiso   1.00
C942   C     0.47488   0.97520   0.72142   0.00000  Uiso   1.00
C943   C     0.49907   0.83340   0.66455   0.00000  Uiso   1.00
C944   C     0.50093   0.83327   0.83545   0.00000  Uiso   1.00
C945   C     0.53803   0.82223   0.90740   0.00000  Uiso   1.00
C946   C     0.46197   0.84443   0.59260   0.00000  Uiso   1.00
C947   C     0.50180   0.83311   0.88362   0.00000  Uiso   1.00
C948   C     0.49820   0.83355   0.61638   0.00000  Uiso   1.00
C949   C     0.46560   0.84423   0.90494   0.00000  Uiso   1.00
C950   C     0.53440   0.82244   0.59506   0.00000  Uiso   1.00
C951   C     0.46413   0.84464   0.95144   0.00000  Uiso   1.00
C952   C     0.53587   0.82202   0.54856   0.00000  Uiso   1.00
C953   C     0.50041   0.83327   0.97646   0.00000  Uiso   1.00
C954   C     0.49959   0.83340   0.52354   0.00000  Uiso   1.00
C955   C     0.53750   0.82175   0.95444   0.00000  Uiso   1.00
C956   C     0.46250   0.84492   0.54556   0.00000  Uiso   1.00
C957   C     0.42760   0.85612   0.97369   0.00000  Uiso   1.00
C958   C     0.57240   0.81055   0.52631   0.00000  Uiso   1.00
Cu959  Cu    0.50000   0.88022   0.75000   0.00000  Uiso   1.00
Cu960  Cu    0.50000   0.78645   0.75000   0.00000  Uiso   1.00
N961   N     0.50000   0.95069   0.75000   0.00000  Uiso   1.00
N962   N     0.50000   0.71598   0.75000   0.00000  Uiso   1.00
O963   O     0.43988   0.87291   0.74999   0.00000  Uiso   1.00
O964   O     0.56012   0.79375   0.75000   0.00000  Uiso   1.00
O965   O     0.56012   0.87291   0.75000   0.00000  Uiso   1.00
O966   O     0.43988   0.79375   0.74999   0.00000  Uiso   1.00
O967   O     0.49999   0.87293   0.68513   0.00000  Uiso   1.00
O968   O     0.50001   0.79373   0.81487   0.00000  Uiso   1.00
O969   O     0.50001   0.87293   0.81487   0.00000  Uiso   1.00
O970   O     0.49999   0.79373   0.68513   0.00000  Uiso   1.00
I971   I     0.59229   0.80978   0.86906   0.00000  Uiso   1.00
I972   I     0.40771   0.85689   0.63094   0.00000  Uiso   1.00
F973   F     0.43214   0.85422   0.87899   0.00000  Uiso   1.00
F974   F     0.56786   0.81244   0.62101   0.00000  Uiso   1.00
I975   I     0.36986   0.87388   0.94203   0.00000  Uiso   1.00
I976   I     0.63014   0.79279   0.55797   0.00000  Uiso   1.00
F977   F     0.39152   0.86920   0.53882   0.00000  Uiso   1.00
F978   F     0.60848   0.79746   0.96118   0.00000  Uiso   1.00
F979   F     0.37378   0.75946   0.71187   0.00000  Uiso   1.00
F980   F     0.62622   0.90720   0.78813   0.00000  Uiso   1.00
F981   F     0.62423   0.75992   0.71104   0.00000  Uiso   1.00
F982   F     0.37577   0.90674   0.78896   0.00000  Uiso   1.00
F983   F     0.44985   0.71454   0.69241   0.00000  Uiso   1.00
F984   F     0.55015   0.95213   0.80759   0.00000  Uiso   1.00
F985   F     0.55050   0.71467   0.80724   0.00000  Uiso   1.00
F986   F     0.44950   0.95199   0.69276   0.00000  Uiso   1.00
C987   C     0.75408   0.83324   0.75039   0.00000  Uiso   1.00
C988   C     0.91258   0.83343   0.74961   0.00000  Uiso   1.00
C989   C     0.76054   0.85651   0.51987   0.00000  Uiso   1.00
C990   C     0.90613   0.81016   0.98013   0.00000  Uiso   1.00
C991   C     0.68749   0.79565   0.73132   0.00000  Uiso   1.00
C992   C     0.97918   0.87101   0.76868   0.00000  Uiso   1.00
C993   C     0.97820   0.79592   0.73081   0.00000  Uiso   1.00
C994   C     0.68847   0.87075   0.76919   0.00000  Uiso   1.00
C995   C     0.95720   0.83357   0.74954   0.00000  Uiso   1.00
C996   C     0.70947   0.83310   0.75046   0.00000  Uiso   1.00
C997   C     0.80826   0.69140   0.72137   0.00000  Uiso   1.00
C998   C     0.85841   0.97527   0.77863   0.00000  Uiso   1.00
C999   C     0.85846   0.69147   0.77858   0.00000  Uiso   1.00
C1000  C     0.80821   0.97520   0.72142   0.00000  Uiso   1.00
C1001  C     0.83240   0.83340   0.66455   0.00000  Uiso   1.00
C1002  C     0.83427   0.83327   0.83545   0.00000  Uiso   1.00
C1003  C     0.87137   0.82223   0.90740   0.00000  Uiso   1.00
C1004  C     0.79530   0.84443   0.59260   0.00000  Uiso   1.00
C1005  C     0.83514   0.83311   0.88362   0.00000  Uiso   1.00
C1006  C     0.83153   0.83355   0.61638   0.00000  Uiso   1.00
C1007  C     0.79893   0.84423   0.90494   0.00000  Uiso   1.00
C1008  C     0.86774   0.82244   0.59506   0.00000  Uiso   1.00
C1009  C     0.79746   0.84464   0.95144   0.00000  Uiso   1.00
C1010  C     0.86921   0.82202   0.54856   0.00000  Uiso   1.00
C1011  C     0.83374   0.83327   0.97646   0.00000  Uiso   1.00
C1012  C     0.83293   0.83340   0.52354   0.00000  Uiso   1.00
C1013  C     0.87083   0.82175   0.95444   0.00000  Uiso   1.00
C1014  C     0.79583   0.84492   0.54556   0.00000  Uiso   1.00
C1015  C     0.76093   0.85612   0.97369   0.00000  Uiso   1.00
C1016  C     0.90574   0.81055   0.52631   0.00000  Uiso   1.00
Cu1017 Cu    0.83333   0.88022   0.75000   0.00000  Uiso   1.00
Cu1018 Cu    0.83333   0.78645   0.75000   0.00000  Uiso   1.00
N1019  N     0.83333   0.95069   0.75000   0.00000  Uiso   1.00
N1020  N     0.83333   0.71598   0.75000   0.00000  Uiso   1.00
O1021  O     0.77321   0.87291   0.74999   0.00000  Uiso   1.00
O1022  O     0.89345   0.79375   0.75000   0.00000  Uiso   1.00
O1023  O     0.89345   0.87291   0.75000   0.00000  Uiso   1.00
O1024  O     0.77321   0.79375   0.74999   0.00000  Uiso   1.00
O1025  O     0.83332   0.87293   0.68513   0.00000  Uiso   1.00
O1026  O     0.83334   0.79373   0.81487   0.00000  Uiso   1.00
O1027  O     0.83334   0.87293   0.81487   0.00000  Uiso   1.00
O1028  O     0.83332   0.79373   0.68513   0.00000  Uiso   1.00
I1029  I     0.92562   0.80978   0.86906   0.00000  Uiso   1.00
I1030  I     0.74105   0.85689   0.63094   0.00000  Uiso   1.00
F1031  F     0.76548   0.85422   0.87899   0.00000  Uiso   1.00
F1032  F     0.90119   0.81244   0.62101   0.00000  Uiso   1.00
I1033  I     0.70319   0.87388   0.94203   0.00000  Uiso   1.00
I1034  I     0.96347   0.79279   0.55797   0.00000  Uiso   1.00
F1035  F     0.72485   0.86920   0.53882   0.00000  Uiso   1.00
F1036  F     0.94181   0.79746   0.96118   0.00000  Uiso   1.00
F1037  F     0.70711   0.75946   0.71187   0.00000  Uiso   1.00
F1038  F     0.95956   0.90720   0.78813   0.00000  Uiso   1.00
F1039  F     0.95756   0.75992   0.71104   0.00000  Uiso   1.00
F1040  F     0.70910   0.90674   0.78896   0.00000  Uiso   1.00
F1041  F     0.78319   0.71454   0.69241   0.00000  Uiso   1.00
F1042  F     0.88348   0.95213   0.80759   0.00000  Uiso   1.00
F1043  F     0.88383   0.71467   0.80724   0.00000  Uiso   1.00
F1044  F     0.78284   0.95199   0.69276   0.00000  Uiso   1.00
loop_
_geom_bond_atom_site_label_1
_geom_bond_atom_site_label_2
_geom_bond_distance
_geom_bond_site_symmetry_2
_ccdc_geom_bond_type
C1     O38     1.292   .     A
C1     O35     1.292   .     A
C1     C10     1.449   .     S
C2     O37     1.292   .     A
C2     O36     1.292   .     A
C2     C9      1.449   .     S
C3     F49     1.353   .     S
C3     C28     1.410   .     A
C3     C551    1.391   1_554 S
C4     F50     1.353   .     S
C4     C27     1.410   .     A
C4     C552    1.391   .     S
C5     C10     1.404   .     A
C5     F51     1.358   .     S
C5     C123    1.384   1_455 S
C6     C9      1.404   .     A
C6     F52     1.358   .     S
C6     C66     1.384   .     S
C7     C9      1.403   .     A
C7     F53     1.359   .     S
C7     C63     1.384   .     S
C8     F54     1.359   .     S
C8     C10     1.403   .     A
C8     C122    1.384   1_455 S
C11    F55     1.355   .     S
C11    N34     1.368   .     A
C11    C362    1.417   1_545 S
C12    F56     1.355   .     S
C12    N33     1.368   .     A
C12    C187    1.417   .     S
C13    N34     1.368   .     A
C13    F57     1.355   .     S
C13    C360    1.417   1_545 S
C14    N33     1.368   .     A
C14    F58     1.355   .     S
C14    C185    1.417   .     S
C15    O39     1.291   .     A
C15    C20     1.451   .     S
C15    O42     1.292   .     A
C16    O40     1.291   .     A
C16    C19     1.451   .     S
C16    O41     1.292   .     A
C17    C27     1.417   .     A
C17    C19     1.401   .     A
C17    I43     2.157   .     S
C18    C20     1.401   .     A
C18    I44     2.157   .     S
C18    C28     1.417   .     A
C19    C21     1.389   .     A
C20    C22     1.389   .     A
C21    F45     1.356   .     S
C21    C23     1.403   .     A
C22    F46     1.356   .     S
C22    C24     1.403   .     A
C23    C25     1.424   .     A
C23    C29     1.414   .     A
C24    C30     1.414   .     A
C24    C26     1.424   .     A
C25    C27     1.427   .     A
C25    C548    1.418   .     S
C26    C28     1.427   .     A
C26    C547    1.418   1_554 S
C29    I47     2.149   .     S
C29    C525    1.391   .     S
C30    I48     2.149   .     S
C30    C526    1.391   1_554 S
Cu31   N33     2.016   .     S
Cu31   Cu32    2.683   .     S
Cu31   O41     1.964   .     S
Cu31   O35     1.962   .     S
Cu31   O37     1.964   .     S
Cu31   O39     1.965   .     S
Cu32   O38     1.964   .     S
Cu32   O36     1.962   .     S
Cu32   O40     1.965   .     S
Cu32   O42     1.964   .     S
Cu32   N34     2.016   .     S
C59    O96     1.292   .     A
C59    O93     1.292   .     A
C59    C68     1.449   .     S
C60    O95     1.292   .     A
C60    O94     1.292   .     A
C60    C67     1.449   .     S
C61    F107    1.353   .     S
C61    C86     1.410   .     A
C61    C609    1.391   1_554 S
C62    F108    1.353   .     S
C62    C85     1.410   .     A
C62    C610    1.391   .     S
C63    C68     1.404   .     A
C63    F109    1.358   .     S
C64    C67     1.404   .     A
C64    F110    1.358   .     S
C64    C124    1.384   .     S
C65    C67     1.403   .     A
C65    F111    1.359   .     S
C65    C121    1.384   .     S
C66    F112    1.359   .     S
C66    C68     1.403   .     A
C69    F113    1.355   .     S
C69    N92     1.368   .     A
C69    C420    1.417   1_545 S
C70    F114    1.355   .     S
C70    N91     1.368   .     A
C70    C245    1.417   .     S
C71    N92     1.368   .     A
C71    F115    1.355   .     S
C71    C418    1.417   1_545 S
C72    N91     1.368   .     A
C72    F116    1.355   .     S
C72    C243    1.417   .     S
C73    O97     1.291   .     A
C73    C78     1.451   .     S
C73    O100    1.292   .     A
C74    O98     1.291   .     A
C74    C77     1.451   .     S
C74    O99     1.292   .     A
C75    C85     1.417   .     A
C75    C77     1.401   .     A
C75    I101    2.157   .     S
C76    C78     1.401   .     A
C76    I102    2.157   .     S
C76    C86     1.417   .     A
C77    C79     1.389   .     A
C78    C80     1.389   .     A
C79    F103    1.356   .     S
C79    C81     1.403   .     A
C80    F104    1.356   .     S
C80    C82     1.403   .     A
C81    C83     1.424   .     A
C81    C87     1.414   .     A
C82    C88     1.414   .     A
C82    C84     1.424   .     A
C83    C85     1.427   .     A
C83    C606    1.418   .     S
C84    C86     1.427   .     A
C84    C605    1.418   1_554 S
C87    I105    2.149   .     S
C87    C583    1.391   .     S
C88    I106    2.149   .     S
C88    C584    1.391   1_554 S
Cu89   N91     2.016   .     S
Cu89   Cu90    2.683   .     S
Cu89   O99     1.964   .     S
Cu89   O93     1.962   .     S
Cu89   O95     1.964   .     S
Cu89   O97     1.965   .     S
Cu90   O96     1.964   .     S
Cu90   O94     1.962   .     S
Cu90   O98     1.965   .     S
Cu90   O100    1.964   .     S
Cu90   N92     2.016   .     S
C117   O154    1.292   .     A
C117   O151    1.292   .     A
C117   C126    1.449   .     S
C118   O153    1.292   .     A
C118   O152    1.292   .     A
C118   C125    1.449   .     S
C119   F165    1.353   .     S
C119   C144    1.410   .     A
C119   C667    1.391   1_554 S
C120   F166    1.353   .     S
C120   C143    1.410   .     A
C120   C668    1.391   .     S
C121   C126    1.404   .     A
C121   F167    1.358   .     S
C122   C125    1.404   .     A
C122   F168    1.358   .     S
C122   C8      1.384   1_655 S
C123   C125    1.403   .     A
C123   F169    1.359   .     S
C123   C5      1.384   1_655 S
C124   F170    1.359   .     S
C124   C126    1.403   .     A
C127   F171    1.355   .     S
C127   N150    1.368   .     A
C127   C478    1.417   1_545 S
C128   F172    1.355   .     S
C128   N149    1.368   .     A
C128   C303    1.417   .     S
C129   N150    1.368   .     A
C129   F173    1.355   .     S
C129   C476    1.417   1_545 S
C130   N149    1.368   .     A
C130   F174    1.355   .     S
C130   C301    1.417   .     S
C131   O155    1.291   .     A
C131   C136    1.451   .     S
C131   O158    1.292   .     A
C132   O156    1.291   .     A
C132   C135    1.451   .     S
C132   O157    1.292   .     A
C133   C143    1.417   .     A
C133   C135    1.401   .     A
C133   I159    2.157   .     S
C134   C136    1.401   .     A
C134   I160    2.157   .     S
C134   C144    1.417   .     A
C135   C137    1.389   .     A
C136   C138    1.389   .     A
C137   F161    1.356   .     S
C137   C139    1.403   .     A
C138   F162    1.356   .     S
C138   C140    1.403   .     A
C139   C141    1.424   .     A
C139   C145    1.414   .     A
C140   C146    1.414   .     A
C140   C142    1.424   .     A
C141   C143    1.427   .     A
C141   C664    1.418   .     S
C142   C144    1.427   .     A
C142   C663    1.418   1_554 S
C145   I163    2.149   .     S
C145   C641    1.391   .     S
C146   I164    2.149   .     S
C146   C642    1.391   1_554 S
Cu147  N149    2.016   .     S
Cu147  Cu148   2.683   .     S
Cu147  O157    1.964   .     S
Cu147  O151    1.962   .     S
Cu147  O153    1.964   .     S
Cu147  O155    1.965   .     S
Cu148  O154    1.964   .     S
Cu148  O152    1.962   .     S
Cu148  O156    1.965   .     S
Cu148  O158    1.964   .     S
Cu148  N150    2.016   .     S
C175   O212    1.292   .     A
C175   O209    1.292   .     A
C175   C184    1.449   .     S
C176   O211    1.292   .     A
C176   O210    1.292   .     A
C176   C183    1.449   .     S
C177   F223    1.353   .     S
C177   C202    1.410   .     A
C177   C725    1.391   1_554 S
C178   F224    1.353   .     S
C178   C201    1.410   .     A
C178   C726    1.391   .     S
C179   C184    1.404   .     A
C179   F225    1.358   .     S
C179   C297    1.384   1_455 S
C180   C183    1.404   .     A
C180   F226    1.358   .     S
C180   C240    1.384   .     S
C181   C183    1.403   .     A
C181   F227    1.359   .     S
C181   C237    1.384   .     S
C182   F228    1.359   .     S
C182   C184    1.403   .     A
C182   C296    1.384   1_455 S
C185   F229    1.355   .     S
C185   N208    1.368   .     A
C186   F230    1.355   .     S
C186   N207    1.368   .     A
C186   C361    1.417   .     S
C187   N208    1.368   .     A
C187   F231    1.355   .     S
C188   N207    1.368   .     A
C188   F232    1.355   .     S
C188   C359    1.417   .     S
C189   O213    1.291   .     A
C189   C194    1.451   .     S
C189   O216    1.292   .     A
C190   O214    1.291   .     A
C190   C193    1.451   .     S
C190   O215    1.292   .     A
C191   C201    1.417   .     A
C191   C193    1.401   .     A
C191   I217    2.157   .     S
C192   C194    1.401   .     A
C192   I218    2.157   .     S
C192   C202    1.417   .     A
C193   C195    1.389   .     A
C194   C196    1.389   .     A
C195   F219    1.356   .     S
C195   C197    1.403   .     A
C196   F220    1.356   .     S
C196   C198    1.403   .     A
C197   C199    1.424   .     A
C197   C203    1.414   .     A
C198   C204    1.414   .     A
C198   C200    1.424   .     A
C199   C201    1.427   .     A
C199   C722    1.418   .     S
C200   C202    1.427   .     A
C200   C721    1.418   1_554 S
C203   I221    2.149   .     S
C203   C699    1.391   .     S
C204   I222    2.149   .     S
C204   C700    1.391   1_554 S
Cu205  N207    2.016   .     S
Cu205  Cu206   2.683   .     S
Cu205  O215    1.964   .     S
Cu205  O209    1.962   .     S
Cu205  O211    1.964   .     S
Cu205  O213    1.965   .     S
Cu206  O212    1.964   .     S
Cu206  O210    1.962   .     S
Cu206  O214    1.965   .     S
Cu206  O216    1.964   .     S
Cu206  N208    2.016   .     S
C233   O270    1.292   .     A
C233   O267    1.292   .     A
C233   C242    1.449   .     S
C234   O269    1.292   .     A
C234   O268    1.292   .     A
C234   C241    1.449   .     S
C235   F281    1.353   .     S
C235   C260    1.410   .     A
C235   C783    1.391   1_554 S
C236   F282    1.353   .     S
C236   C259    1.410   .     A
C236   C784    1.391   .     S
C237   C242    1.404   .     A
C237   F283    1.358   .     S
C238   C241    1.404   .     A
C238   F284    1.358   .     S
C238   C298    1.384   .     S
C239   C241    1.403   .     A
C239   F285    1.359   .     S
C239   C295    1.384   .     S
C240   F286    1.359   .     S
C240   C242    1.403   .     A
C243   F287    1.355   .     S
C243   N266    1.368   .     A
C244   F288    1.355   .     S
C244   N265    1.368   .     A
C244   C419    1.417   .     S
C245   N266    1.368   .     A
C245   F289    1.355   .     S
C246   N265    1.368   .     A
C246   F290    1.355   .     S
C246   C417    1.417   .     S
C247   O271    1.291   .     A
C247   C252    1.451   .     S
C247   O274    1.292   .     A
C248   O272    1.291   .     A
C248   C251    1.451   .     S
C248   O273    1.292   .     A
C249   C259    1.417   .     A
C249   C251    1.401   .     A
C249   I275    2.157   .     S
C250   C252    1.401   .     A
C250   I276    2.157   .     S
C250   C260    1.417   .     A
C251   C253    1.389   .     A
C252   C254    1.389   .     A
C253   F277    1.356   .     S
C253   C255    1.403   .     A
C254   F278    1.356   .     S
C254   C256    1.403   .     A
C255   C257    1.424   .     A
C255   C261    1.414   .     A
C256   C262    1.414   .     A
C256   C258    1.424   .     A
C257   C259    1.427   .     A
C257   C780    1.418   .     S
C258   C260    1.427   .     A
C258   C779    1.418   1_554 S
C261   I279    2.149   .     S
C261   C757    1.391   .     S
C262   I280    2.149   .     S
C262   C758    1.391   1_554 S
Cu263  N265    2.016   .     S
Cu263  Cu264   2.683   .     S
Cu263  O273    1.964   .     S
Cu263  O267    1.962   .     S
Cu263  O269    1.964   .     S
Cu263  O271    1.965   .     S
Cu264  O270    1.964   .     S
Cu264  O268    1.962   .     S
Cu264  O272    1.965   .     S
Cu264  O274    1.964   .     S
Cu264  N266    2.016   .     S
C291   O328    1.292   .     A
C291   O325    1.292   .     A
C291   C300    1.449   .     S
C292   O327    1.292   .     A
C292   O326    1.292   .     A
C292   C299    1.449   .     S
C293   F339    1.353   .     S
C293   C318    1.410   .     A
C293   C841    1.391   1_554 S
C294   F340    1.353   .     S
C294   C317    1.410   .     A
C294   C842    1.391   .     S
C295   C300    1.404   .     A
C295   F341    1.358   .     S
C296   C299    1.404   .     A
C296   F342    1.358   .     S
C296   C182    1.384   1_655 S
C297   C299    1.403   .     A
C297   F343    1.359   .     S
C297   C179    1.384   1_655 S
C298   F344    1.359   .     S
C298   C300    1.403   .     A
C301   F345    1.355   .     S
C301   N324    1.368   .     A
C302   F346    1.355   .     S
C302   N323    1.368   .     A
C302   C477    1.417   .     S
C303   N324    1.368   .     A
C303   F347    1.355   .     S
C304   N323    1.368   .     A
C304   F348    1.355   .     S
C304   C475    1.417   .     S
C305   O329    1.291   .     A
C305   C310    1.451   .     S
C305   O332    1.292   .     A
C306   O330    1.291   .     A
C306   C309    1.451   .     S
C306   O331    1.292   .     A
C307   C317    1.417   .     A
C307   C309    1.401   .     A
C307   I333    2.157   .     S
C308   C310    1.401   .     A
C308   I334    2.157   .     S
C308   C318    1.417   .     A
C309   C311    1.389   .     A
C310   C312    1.389   .     A
C311   F335    1.356   .     S
C311   C313    1.403   .     A
C312   F336    1.356   .     S
C312   C314    1.403   .     A
C313   C315    1.424   .     A
C313   C319    1.414   .     A
C314   C320    1.414   .     A
C314   C316    1.424   .     A
C315   C317    1.427   .     A
C315   C838    1.418   .     S
C316   C318    1.427   .     A
C316   C837    1.418   1_554 S
C319   I337    2.149   .     S
C319   C815    1.391   .     S
C320   I338    2.149   .     S
C320   C816    1.391   1_554 S
Cu321  N323    2.016   .     S
Cu321  Cu322   2.683   .     S
Cu321  O331    1.964   .     S
Cu321  O325    1.962   .     S
Cu321  O327    1.964   .     S
Cu321  O329    1.965   .     S
Cu322  O328    1.964   .     S
Cu322  O326    1.962   .     S
Cu322  O330    1.965   .     S
Cu322  O332    1.964   .     S
Cu322  N324    2.016   .     S
C349   O386    1.292   .     A
C349   O383    1.292   .     A
C349   C358    1.449   .     S
C350   O385    1.292   .     A
C350   O384    1.292   .     A
C350   C357    1.449   .     S
C351   F397    1.353   .     S
C351   C376    1.410   .     A
C351   C899    1.391   1_554 S
C352   F398    1.353   .     S
C352   C375    1.410   .     A
C352   C900    1.391   .     S
C353   C358    1.404   .     A
C353   F399    1.358   .     S
C353   C471    1.384   1_455 S
C354   C357    1.404   .     A
C354   F400    1.358   .     S
C354   C414    1.384   .     S
C355   C357    1.403   .     A
C355   F401    1.359   .     S
C355   C411    1.384   .     S
C356   F402    1.359   .     S
C356   C358    1.403   .     A
C356   C470    1.384   1_455 S
C359   F403    1.355   .     S
C359   N382    1.368   .     A
C360   F404    1.355   .     S
C360   N381    1.368   .     A
C360   C13     1.417   1_565 S
C361   N382    1.368   .     A
C361   F405    1.355   .     S
C362   N381    1.368   .     A
C362   F406    1.355   .     S
C362   C11     1.417   1_565 S
C363   O387    1.291   .     A
C363   C368    1.451   .     S
C363   O390    1.292   .     A
C364   O388    1.291   .     A
C364   C367    1.451   .     S
C364   O389    1.292   .     A
C365   C375    1.417   .     A
C365   C367    1.401   .     A
C365   I391    2.157   .     S
C366   C368    1.401   .     A
C366   I392    2.157   .     S
C366   C376    1.417   .     A
C367   C369    1.389   .     A
C368   C370    1.389   .     A
C369   F393    1.356   .     S
C369   C371    1.403   .     A
C370   F394    1.356   .     S
C370   C372    1.403   .     A
C371   C373    1.424   .     A
C371   C377    1.414   .     A
C372   C378    1.414   .     A
C372   C374    1.424   .     A
C373   C375    1.427   .     A
C373   C896    1.418   .     S
C374   C376    1.427   .     A
C374   C895    1.418   1_554 S
C377   I395    2.149   .     S
C377   C873    1.391   .     S
C378   I396    2.149   .     S
C378   C874    1.391   1_554 S
Cu379  N381    2.016   .     S
Cu379  Cu380   2.683   .     S
Cu379  O389    1.964   .     S
Cu379  O383    1.962   .     S
Cu379  O385    1.964   .     S
Cu379  O387    1.965   .     S
Cu380  O386    1.964   .     S
Cu380  O384    1.962   .     S
Cu380  O388    1.965   .     S
Cu380  O390    1.964   .     S
Cu380  N382    2.016   .     S
C407   O444    1.292   .     A
C407   O441    1.292   .     A
C407   C416    1.449   .     S
C408   O443    1.292   .     A
C408   O442    1.292   .     A
C408   C415    1.449   .     S
C409   F455    1.353   .     S
C409   C434    1.410   .     A
C409   C957    1.391   1_554 S
C410   F456    1.353   .     S
C410   C433    1.410   .     A
C410   C958    1.391   .     S
C411   C416    1.404   .     A
C411   F457    1.358   .     S
C412   C415    1.404   .     A
C412   F458    1.358   .     S
C412   C472    1.384   .     S
C413   C415    1.403   .     A
C413   F459    1.359   .     S
C413   C469    1.384   .     S
C414   F460    1.359   .     S
C414   C416    1.403   .     A
C417   F461    1.355   .     S
C417   N440    1.368   .     A
C418   F462    1.355   .     S
C418   N439    1.368   .     A
C418   C71     1.417   1_565 S
C419   N440    1.368   .     A
C419   F463    1.355   .     S
C420   N439    1.368   .     A
C420   F464    1.355   .     S
C420   C69     1.417   1_565 S
C421   O445    1.291   .     A
C421   C426    1.451   .     S
C421   O448    1.292   .     A
C422   O446    1.291   .     A
C422   C425    1.451   .     S
C422   O447    1.292   .     A
C423   C433    1.417   .     A
C423   C425    1.401   .     A
C423   I449    2.157   .     S
C424   C426    1.401   .     A
C424   I450    2.157   .     S
C424   C434    1.417   .     A
C425   C427    1.389   .     A
C426   C428    1.389   .     A
C427   F451    1.356   .     S
C427   C429    1.403   .     A
C428   F452    1.356   .     S
C428   C430    1.403   .     A
C429   C431    1.424   .     A
C429   C435    1.414   .     A
C430   C436    1.414   .     A
C430   C432    1.424   .     A
C431   C433    1.427   .     A
C431   C954    1.418   .     S
C432   C434    1.427   .     A
C432   C953    1.418   1_554 S
C435   I453    2.149   .     S
C435   C931    1.391   .     S
C436   I454    2.149   .     S
C436   C932    1.391   1_554 S
Cu437  N439    2.016   .     S
Cu437  Cu438   2.683   .     S
Cu437  O447    1.964   .     S
Cu437  O441    1.962   .     S
Cu437  O443    1.964   .     S
Cu437  O445    1.965   .     S
Cu438  O444    1.964   .     S
Cu438  O442    1.962   .     S
Cu438  O446    1.965   .     S
Cu438  O448    1.964   .     S
Cu438  N440    2.016   .     S
C465   O502    1.292   .     A
C465   O499    1.292   .     A
C465   C474    1.449   .     S
C466   O501    1.292   .     A
C466   O500    1.292   .     A
C466   C473    1.449   .     S
C467   F513    1.353   .     S
C467   C492    1.410   .     A
C467   C1015   1.391   1_554 S
C468   F514    1.353   .     S
C468   C491    1.410   .     A
C468   C1016   1.391   .     S
C469   C474    1.404   .     A
C469   F515    1.358   .     S
C470   C473    1.404   .     A
C470   F516    1.358   .     S
C470   C356    1.384   1_655 S
C471   C473    1.403   .     A
C471   F517    1.359   .     S
C471   C353    1.384   1_655 S
C472   F518    1.359   .     S
C472   C474    1.403   .     A
C475   F519    1.355   .     S
C475   N498    1.368   .     A
C476   F520    1.355   .     S
C476   N497    1.368   .     A
C476   C129    1.417   1_565 S
C477   N498    1.368   .     A
C477   F521    1.355   .     S
C478   N497    1.368   .     A
C478   F522    1.355   .     S
C478   C127    1.417   1_565 S
C479   O503    1.291   .     A
C479   C484    1.451   .     S
C479   O506    1.292   .     A
C480   O504    1.291   .     A
C480   C483    1.451   .     S
C480   O505    1.292   .     A
C481   C491    1.417   .     A
C481   C483    1.401   .     A
C481   I507    2.157   .     S
C482   C484    1.401   .     A
C482   I508    2.157   .     S
C482   C492    1.417   .     A
C483   C485    1.389   .     A
C484   C486    1.389   .     A
C485   F509    1.356   .     S
C485   C487    1.403   .     A
C486   F510    1.356   .     S
C486   C488    1.403   .     A
C487   C489    1.424   .     A
C487   C493    1.414   .     A
C488   C494    1.414   .     A
C488   C490    1.424   .     A
C489   C491    1.427   .     A
C489   C1012   1.418   .     S
C490   C492    1.427   .     A
C490   C1011   1.418   1_554 S
C493   I511    2.149   .     S
C493   C989    1.391   .     S
C494   I512    2.149   .     S
C494   C990    1.391   1_554 S
Cu495  N497    2.016   .     S
Cu495  Cu496   2.683   .     S
Cu495  O505    1.964   .     S
Cu495  O499    1.962   .     S
Cu495  O501    1.964   .     S
Cu495  O503    1.965   .     S
Cu496  O502    1.964   .     S
Cu496  O500    1.962   .     S
Cu496  O504    1.965   .     S
Cu496  O506    1.964   .     S
Cu496  N498    2.016   .     S
C523   O560    1.292   .     A
C523   O557    1.292   .     A
C523   C532    1.449   .     S
C524   O559    1.292   .     A
C524   O558    1.292   .     A
C524   C531    1.449   .     S
C525   F571    1.353   .     S
C525   C550    1.410   .     A
C526   F572    1.353   .     S
C526   C549    1.410   .     A
C526   C30     1.391   1_556 S
C527   C532    1.404   .     A
C527   F573    1.358   .     S
C527   C645    1.384   1_455 S
C528   C531    1.404   .     A
C528   F574    1.358   .     S
C528   C588    1.384   .     S
C529   C531    1.403   .     A
C529   F575    1.359   .     S
C529   C585    1.384   .     S
C530   F576    1.359   .     S
C530   C532    1.403   .     A
C530   C644    1.384   1_455 S
C533   F577    1.355   .     S
C533   N556    1.368   .     A
C533   C884    1.417   1_545 S
C534   F578    1.355   .     S
C534   N555    1.368   .     A
C534   C709    1.417   .     S
C535   N556    1.368   .     A
C535   F579    1.355   .     S
C535   C882    1.417   1_545 S
C536   N555    1.368   .     A
C536   F580    1.355   .     S
C536   C707    1.417   .     S
C537   O561    1.291   .     A
C537   C542    1.451   .     S
C537   O564    1.292   .     A
C538   O562    1.291   .     A
C538   C541    1.451   .     S
C538   O563    1.292   .     A
C539   C549    1.417   .     A
C539   C541    1.401   .     A
C539   I565    2.157   .     S
C540   C542    1.401   .     A
C540   I566    2.157   .     S
C540   C550    1.417   .     A
C541   C543    1.389   .     A
C542   C544    1.389   .     A
C543   F567    1.356   .     S
C543   C545    1.403   .     A
C544   F568    1.356   .     S
C544   C546    1.403   .     A
C545   C547    1.424   .     A
C545   C551    1.414   .     A
C546   C552    1.414   .     A
C546   C548    1.424   .     A
C547   C549    1.427   .     A
C547   C26     1.418   1_556 S
C548   C550    1.427   .     A
C551   I569    2.149   .     S
C551   C3      1.391   1_556 S
C552   I570    2.149   .     S
Cu553  N555    2.016   .     S
Cu553  Cu554   2.683   .     S
Cu553  O563    1.964   .     S
Cu553  O557    1.962   .     S
Cu553  O559    1.964   .     S
Cu553  O561    1.965   .     S
Cu554  O560    1.964   .     S
Cu554  O558    1.962   .     S
Cu554  O562    1.965   .     S
Cu554  O564    1.964   .     S
Cu554  N556    2.016   .     S
C581   O618    1.292   .     A
C581   O615    1.292   .     A
C581   C590    1.449   .     S
C582   O617    1.292   .     A
C582   O616    1.292   .     A
C582   C589    1.449   .     S
C583   F629    1.353   .     S
C583   C608    1.410   .     A
C584   F630    1.353   .     S
C584   C607    1.410   .     A
C584   C88     1.391   1_556 S
C585   C590    1.404   .     A
C585   F631    1.358   .     S
C586   C589    1.404   .     A
C586   F632    1.358   .     S
C586   C646    1.384   .     S
C587   C589    1.403   .     A
C587   F633    1.359   .     S
C587   C643    1.384   .     S
C588   F634    1.359   .     S
C588   C590    1.403   .     A
C591   F635    1.355   .     S
C591   N614    1.368   .     A
C591   C942    1.417   1_545 S
C592   F636    1.355   .     S
C592   N613    1.368   .     A
C592   C767    1.417   .     S
C593   N614    1.368   .     A
C593   F637    1.355   .     S
C593   C940    1.417   1_545 S
C594   N613    1.368   .     A
C594   F638    1.355   .     S
C594   C765    1.417   .     S
C595   O619    1.291   .     A
C595   C600    1.451   .     S
C595   O622    1.292   .     A
C596   O620    1.291   .     A
C596   C599    1.451   .     S
C596   O621    1.292   .     A
C597   C607    1.417   .     A
C597   C599    1.401   .     A
C597   I623    2.157   .     S
C598   C600    1.401   .     A
C598   I624    2.157   .     S
C598   C608    1.417   .     A
C599   C601    1.389   .     A
C600   C602    1.389   .     A
C601   F625    1.356   .     S
C601   C603    1.403   .     A
C602   F626    1.356   .     S
C602   C604    1.403   .     A
C603   C605    1.424   .     A
C603   C609    1.414   .     A
C604   C610    1.414   .     A
C604   C606    1.424   .     A
C605   C607    1.427   .     A
C605   C84     1.418   1_556 S
C606   C608    1.427   .     A
C609   I627    2.149   .     S
C609   C61     1.391   1_556 S
C610   I628    2.149   .     S
Cu611  N613    2.016   .     S
Cu611  Cu612   2.683   .     S
Cu611  O621    1.964   .     S
Cu611  O615    1.962   .     S
Cu611  O617    1.964   .     S
Cu611  O619    1.965   .     S
Cu612  O618    1.964   .     S
Cu612  O616    1.962   .     S
Cu612  O620    1.965   .     S
Cu612  O622    1.964   .     S
Cu612  N614    2.016   .     S
C639   O676    1.292   .     A
C639   O673    1.292   .     A
C639   C648    1.449   .     S
C640   O675    1.292   .     A
C640   O674    1.292   .     A
C640   C647    1.449   .     S
C641   F687    1.353   .     S
C641   C666    1.410   .     A
C642   F688    1.353   .     S
C642   C665    1.410   .     A
C642   C146    1.391   1_556 S
C643   C648    1.404   .     A
C643   F689    1.358   .     S
C644   C647    1.404   .     A
C644   F690    1.358   .     S
C644   C530    1.384   1_655 S
C645   C647    1.403   .     A
C645   F691    1.359   .     S
C645   C527    1.384   1_655 S
C646   F692    1.359   .     S
C646   C648    1.403   .     A
C649   F693    1.355   .     S
C649   N672    1.368   .     A
C649   C1000   1.417   1_545 S
C650   F694    1.355   .     S
C650   N671    1.368   .     A
C650   C825    1.417   .     S
C651   N672    1.368   .     A
C651   F695    1.355   .     S
C651   C998    1.417   1_545 S
C652   N671    1.368   .     A
C652   F696    1.355   .     S
C652   C823    1.417   .     S
C653   O677    1.291   .     A
C653   C658    1.451   .     S
C653   O680    1.292   .     A
C654   O678    1.291   .     A
C654   C657    1.451   .     S
C654   O679    1.292   .     A
C655   C665    1.417   .     A
C655   C657    1.401   .     A
C655   I681    2.157   .     S
C656   C658    1.401   .     A
C656   I682    2.157   .     S
C656   C666    1.417   .     A
C657   C659    1.389   .     A
C658   C660    1.389   .     A
C659   F683    1.356   .     S
C659   C661    1.403   .     A
C660   F684    1.356   .     S
C660   C662    1.403   .     A
C661   C663    1.424   .     A
C661   C667    1.414   .     A
C662   C668    1.414   .     A
C662   C664    1.424   .     A
C663   C665    1.427   .     A
C663   C142    1.418   1_556 S
C664   C666    1.427   .     A
C667   I685    2.149   .     S
C667   C119    1.391   1_556 S
C668   I686    2.149   .     S
Cu669  N671    2.016   .     S
Cu669  Cu670   2.683   .     S
Cu669  O679    1.964   .     S
Cu669  O673    1.962   .     S
Cu669  O675    1.964   .     S
Cu669  O677    1.965   .     S
Cu670  O676    1.964   .     S
Cu670  O674    1.962   .     S
Cu670  O678    1.965   .     S
Cu670  O680    1.964   .     S
Cu670  N672    2.016   .     S
C697   O734    1.292   .     A
C697   O731    1.292   .     A
C697   C706    1.449   .     S
C698   O733    1.292   .     A
C698   O732    1.292   .     A
C698   C705    1.449   .     S
C699   F745    1.353   .     S
C699   C724    1.410   .     A
C700   F746    1.353   .     S
C700   C723    1.410   .     A
C700   C204    1.391   1_556 S
C701   C706    1.404   .     A
C701   F747    1.358   .     S
C701   C819    1.384   1_455 S
C702   C705    1.404   .     A
C702   F748    1.358   .     S
C702   C762    1.384   .     S
C703   C705    1.403   .     A
C703   F749    1.359   .     S
C703   C759    1.384   .     S
C704   F750    1.359   .     S
C704   C706    1.403   .     A
C704   C818    1.384   1_455 S
C707   F751    1.355   .     S
C707   N730    1.368   .     A
C708   F752    1.355   .     S
C708   N729    1.368   .     A
C708   C883    1.417   .     S
C709   N730    1.368   .     A
C709   F753    1.355   .     S
C710   N729    1.368   .     A
C710   F754    1.355   .     S
C710   C881    1.417   .     S
C711   O735    1.291   .     A
C711   C716    1.451   .     S
C711   O738    1.292   .     A
C712   O736    1.291   .     A
C712   C715    1.451   .     S
C712   O737    1.292   .     A
C713   C723    1.417   .     A
C713   C715    1.401   .     A
C713   I739    2.157   .     S
C714   C716    1.401   .     A
C714   I740    2.157   .     S
C714   C724    1.417   .     A
C715   C717    1.389   .     A
C716   C718    1.389   .     A
C717   F741    1.356   .     S
C717   C719    1.403   .     A
C718   F742    1.356   .     S
C718   C720    1.403   .     A
C719   C721    1.424   .     A
C719   C725    1.414   .     A
C720   C726    1.414   .     A
C720   C722    1.424   .     A
C721   C723    1.427   .     A
C721   C200    1.418   1_556 S
C722   C724    1.427   .     A
C725   I743    2.149   .     S
C725   C177    1.391   1_556 S
C726   I744    2.149   .     S
Cu727  N729    2.016   .     S
Cu727  Cu728   2.683   .     S
Cu727  O737    1.964   .     S
Cu727  O731    1.962   .     S
Cu727  O733    1.964   .     S
Cu727  O735    1.965   .     S
Cu728  O734    1.964   .     S
Cu728  O732    1.962   .     S
Cu728  O736    1.965   .     S
Cu728  O738    1.964   .     S
Cu728  N730    2.016   .     S
C755   O792    1.292   .     A
C755   O789    1.292   .     A
C755   C764    1.449   .     S
C756   O791    1.292   .     A
C756   O790    1.292   .     A
C756   C763    1.449   .     S
C757   F803    1.353   .     S
C757   C782    1.410   .     A
C758   F804    1.353   .     S
C758   C781    1.410   .     A
C758   C262    1.391   1_556 S
C759   C764    1.404   .     A
C759   F805    1.358   .     S
C760   C763    1.404   .     A
C760   F806    1.358   .     S
C760   C820    1.384   .     S
C761   C763    1.403   .     A
C761   F807    1.359   .     S
C761   C817    1.384   .     S
C762   F808    1.359   .     S
C762   C764    1.403   .     A
C765   F809    1.355   .     S
C765   N788    1.368   .     A
C766   F810    1.355   .     S
C766   N787    1.368   .     A
C766   C941    1.417   .     S
C767   N788    1.368   .     A
C767   F811    1.355   .     S
C768   N787    1.368   .     A
C768   F812    1.355   .     S
C768   C939    1.417   .     S
C769   O793    1.291   .     A
C769   C774    1.451   .     S
C769   O796    1.292   .     A
C770   O794    1.291   .     A
C770   C773    1.451   .     S
C770   O795    1.292   .     A
C771   C781    1.417   .     A
C771   C773    1.401   .     A
C771   I797    2.157   .     S
C772   C774    1.401   .     A
C772   I798    2.157   .     S
C772   C782    1.417   .     A
C773   C775    1.389   .     A
C774   C776    1.389   .     A
C775   F799    1.356   .     S
C775   C777    1.403   .     A
C776   F800    1.356   .     S
C776   C778    1.403   .     A
C777   C779    1.424   .     A
C777   C783    1.414   .     A
C778   C784    1.414   .     A
C778   C780    1.424   .     A
C779   C781    1.427   .     A
C779   C258    1.418   1_556 S
C780   C782    1.427   .     A
C783   I801    2.149   .     S
C783   C235    1.391   1_556 S
C784   I802    2.149   .     S
Cu785  N787    2.016   .     S
Cu785  Cu786   2.683   .     S
Cu785  O795    1.964   .     S
Cu785  O789    1.962   .     S
Cu785  O791    1.964   .     S
Cu785  O793    1.965   .     S
Cu786  O792    1.964   .     S
Cu786  O790    1.962   .     S
Cu786  O794    1.965   .     S
Cu786  O796    1.964   .     S
Cu786  N788    2.016   .     S
C813   O850    1.292   .     A
C813   O847    1.292   .     A
C813   C822    1.449   .     S
C814   O849    1.292   .     A
C814   O848    1.292   .     A
C814   C821    1.449   .     S
C815   F861    1.353   .     S
C815   C840    1.410   .     A
C816   F862    1.353   .     S
C816   C839    1.410   .     A
C816   C320    1.391   1_556 S
C817   C822    1.404   .     A
C817   F863    1.358   .     S
C818   C821    1.404   .     A
C818   F864    1.358   .     S
C818   C704    1.384   1_655 S
C819   C821    1.403   .     A
C819   F865    1.359   .     S
C819   C701    1.384   1_655 S
C820   F866    1.359   .     S
C820   C822    1.403   .     A
C823   F867    1.355   .     S
C823   N846    1.368   .     A
C824   F868    1.355   .     S
C824   N845    1.368   .     A
C824   C999    1.417   .     S
C825   N846    1.368   .     A
C825   F869    1.355   .     S
C826   N845    1.368   .     A
C826   F870    1.355   .     S
C826   C997    1.417   .     S
C827   O851    1.291   .     A
C827   C832    1.451   .     S
C827   O854    1.292   .     A
C828   O852    1.291   .     A
C828   C831    1.451   .     S
C828   O853    1.292   .     A
C829   C839    1.417   .     A
C829   C831    1.401   .     A
C829   I855    2.157   .     S
C830   C832    1.401   .     A
C830   I856    2.157   .     S
C830   C840    1.417   .     A
C831   C833    1.389   .     A
C832   C834    1.389   .     A
C833   F857    1.356   .     S
C833   C835    1.403   .     A
C834   F858    1.356   .     S
C834   C836    1.403   .     A
C835   C837    1.424   .     A
C835   C841    1.414   .     A
C836   C842    1.414   .     A
C836   C838    1.424   .     A
C837   C839    1.427   .     A
C837   C316    1.418   1_556 S
C838   C840    1.427   .     A
C841   I859    2.149   .     S
C841   C293    1.391   1_556 S
C842   I860    2.149   .     S
Cu843  N845    2.016   .     S
Cu843  Cu844   2.683   .     S
Cu843  O853    1.964   .     S
Cu843  O847    1.962   .     S
Cu843  O849    1.964   .     S
Cu843  O851    1.965   .     S
Cu844  O850    1.964   .     S
Cu844  O848    1.962   .     S
Cu844  O852    1.965   .     S
Cu844  O854    1.964   .     S
Cu844  N846    2.016   .     S
C871   O908    1.292   .     A
C871   O905    1.292   .     A
C871   C880    1.449   .     S
C872   O907    1.292   .     A
C872   O906    1.292   .     A
C872   C879    1.449   .     S
C873   F919    1.353   .     S
C873   C898    1.410   .     A
C874   F920    1.353   .     S
C874   C897    1.410   .     A
C874   C378    1.391   1_556 S
C875   C880    1.404   .     A
C875   F921    1.358   .     S
C875   C993    1.384   1_455 S
C876   C879    1.404   .     A
C876   F922    1.358   .     S
C876   C936    1.384   .     S
C877   C879    1.403   .     A
C877   F923    1.359   .     S
C877   C933    1.384   .     S
C878   F924    1.359   .     S
C878   C880    1.403   .     A
C878   C992    1.384   1_455 S
C881   F925    1.355   .     S
C881   N904    1.368   .     A
C882   F926    1.355   .     S
C882   N903    1.368   .     A
C882   C535    1.417   1_565 S
C883   N904    1.368   .     A
C883   F927    1.355   .     S
C884   N903    1.368   .     A
C884   F928    1.355   .     S
C884   C533    1.417   1_565 S
C885   O909    1.291   .     A
C885   C890    1.451   .     S
C885   O912    1.292   .     A
C886   O910    1.291   .     A
C886   C889    1.451   .     S
C886   O911    1.292   .     A
C887   C897    1.417   .     A
C887   C889    1.401   .     A
C887   I913    2.157   .     S
C888   C890    1.401   .     A
C888   I914    2.157   .     S
C888   C898    1.417   .     A
C889   C891    1.389   .     A
C890   C892    1.389   .     A
C891   F915    1.356   .     S
C891   C893    1.403   .     A
C892   F916    1.356   .     S
C892   C894    1.403   .     A
C893   C895    1.424   .     A
C893   C899    1.414   .     A
C894   C900    1.414   .     A
C894   C896    1.424   .     A
C895   C897    1.427   .     A
C895   C374    1.418   1_556 S
C896   C898    1.427   .     A
C899   I917    2.149   .     S
C899   C351    1.391   1_556 S
C900   I918    2.149   .     S
Cu901  N903    2.016   .     S
Cu901  Cu902   2.683   .     S
Cu901  O911    1.964   .     S
Cu901  O905    1.962   .     S
Cu901  O907    1.964   .     S
Cu901  O909    1.965   .     S
Cu902  O908    1.964   .     S
Cu902  O906    1.962   .     S
Cu902  O910    1.965   .     S
Cu902  O912    1.964   .     S
Cu902  N904    2.016   .     S
C929   O966    1.292   .     A
C929   O963    1.292   .     A
C929   C938    1.449   .     S
C930   O965    1.292   .     A
C930   O964    1.292   .     A
C930   C937    1.449   .     S
C931   F977    1.353   .     S
C931   C956    1.410   .     A
C932   F978    1.353   .     S
C932   C955    1.410   .     A
C932   C436    1.391   1_556 S
C933   C938    1.404   .     A
C933   F979    1.358   .     S
C934   C937    1.404   .     A
C934   F980    1.358   .     S
C934   C994    1.384   .     S
C935   C937    1.403   .     A
C935   F981    1.359   .     S
C935   C991    1.384   .     S
C936   F982    1.359   .     S
C936   C938    1.403   .     A
C939   F983    1.355   .     S
C939   N962    1.368   .     A
C940   F984    1.355   .     S
C940   N961    1.368   .     A
C940   C593    1.417   1_565 S
C941   N962    1.368   .     A
C941   F985    1.355   .     S
C942   N961    1.368   .     A
C942   F986    1.355   .     S
C942   C591    1.417   1_565 S
C943   O967    1.291   .     A
C943   C948    1.451   .     S
C943   O970    1.292   .     A
C944   O968    1.291   .     A
C944   C947    1.451   .     S
C944   O969    1.292   .     A
C945   C955    1.417   .     A
C945   C947    1.401   .     A
C945   I971    2.157   .     S
C946   C948    1.401   .     A
C946   I972    2.157   .     S
C946   C956    1.417   .     A
C947   C949    1.389   .     A
C948   C950    1.389   .     A
C949   F973    1.356   .     S
C949   C951    1.403   .     A
C950   F974    1.356   .     S
C950   C952    1.403   .     A
C951   C953    1.424   .     A
C951   C957    1.414   .     A
C952   C958    1.414   .     A
C952   C954    1.424   .     A
C953   C955    1.427   .     A
C953   C432    1.418   1_556 S
C954   C956    1.427   .     A
C957   I975    2.149   .     S
C957   C409    1.391   1_556 S
C958   I976    2.149   .     S
Cu959  N961    2.016   .     S
Cu959  Cu960   2.683   .     S
Cu959  O969    1.964   .     S
Cu959  O963    1.962   .     S
Cu959  O965    1.964   .     S
Cu959  O967    1.965   .     S
Cu960  O966    1.964   .     S
Cu960  O964    1.962   .     S
Cu960  O968    1.965   .     S
Cu960  O970    1.964   .     S
Cu960  N962    2.016   .     S
C987   O1024   1.292   .     A
C987   O1021   1.292   .     A
C987   C996    1.449   .     S
C988   O1023   1.292   .     A
C988   O1022   1.292   .     A
C988   C995    1.449   .     S
C989   F1035   1.353   .     S
C989   C1014   1.410   .     A
C990   F1036   1.353   .     S
C990   C1013   1.410   .     A
C990   C494    1.391   1_556 S
C991   C996    1.404   .     A
C991   F1037   1.358   .     S
C992   C995    1.404   .     A
C992   F1038   1.358   .     S
C992   C878    1.384   1_655 S
C993   C995    1.403   .     A
C993   F1039   1.359   .     S
C993   C875    1.384   1_655 S
C994   F1040   1.359   .     S
C994   C996    1.403   .     A
C997   F1041   1.355   .     S
C997   N1020   1.368   .     A
C998   F1042   1.355   .     S
C998   N1019   1.368   .     A
C998   C651    1.417   1_565 S
C999   N1020   1.368   .     A
C999   F1043   1.355   .     S
C1000  N1019   1.368   .     A
C1000  F1044   1.355   .     S
C1000  C649    1.417   1_565 S
C1001  O1025   1.291   .     A
C1001  C1006   1.451   .     S
C1001  O1028   1.292   .     A
C1002  O1026   1.291   .     A
C1002  C1005   1.451   .     S
C1002  O1027   1.292   .     A
C1003  C1013   1.417   .     A
C1003  C1005   1.401   .     A
C1003  I1029   2.157   .     S
C1004  C1006   1.401   .     A
C1004  I1030   2.157   .     S
C1004  C1014   1.417   .     A
C1005  C1007   1.389   .     A
C1006  C1008   1.389   .     A
C1007  F1031   1.356   .     S
C1007  C1009   1.403   .     A
C1008  F1032   1.356   .     S
C1008  C1010   1.403   .     A
C1009  C1011   1.424   .     A
C1009  C1015   1.414   .     A
C1010  C1016   1.414   .     A
C1010  C1012   1.424   .     A
C1011  C1013   1.427   .     A
C1011  C490    1.418   1_556 S
C1012  C1014   1.427   .     A
C1015  I1033   2.149   .     S
C1015  C467    1.391   1_556 S
C1016  I1034   2.149   .     S
Cu1017 N1019   2.016   .     S
Cu1017 Cu1018  2.683   .     S
Cu1017 O1027   1.964   .     S
Cu1017 O1021   1.962   .     S
Cu1017 O1023   1.964   .     S
Cu1017 O1025   1.965   .     S
Cu1018 O1024   1.964   .     S
Cu1018 O1022   1.962   .     S
Cu1018 O1026   1.965   .     S
Cu1018 O1028   1.964   .     S
Cu1018 N1020   2.016   .     S
