data_str_m2_o1_o16_pcu_sym.75
_audit_creation_date              2020-01-03
_audit_creation_method            'Materials Studio'
_symmetry_space_group_name_H-M    'P1'
_symmetry_Int_Tables_number       1
_symmetry_cell_setting            triclinic
loop_
_symmetry_equiv_pos_as_xyz
  x,y,z
_cell_length_a                    29.0885
_cell_length_b                    32.7819
_cell_length_c                    26.7614
_cell_angle_alpha                 91.1052
_cell_angle_beta                  72.8243
_cell_angle_gamma                 89.0059
loop_
_atom_site_label
_atom_site_type_symbol
_atom_site_fract_x
_atom_site_fract_y
_atom_site_fract_z
_atom_site_U_iso_or_equiv
_atom_site_adp_type
_atom_site_occupancy
Br1    Br    0.28091   0.22550   0.09212   0.00000  Uiso   1.00
Br2    Br    0.27226   0.04074   0.24503   0.00000  Uiso   1.00
Br3    Br    0.25408   0.22754   0.33355   0.00000  Uiso   1.00
Br4    Br    0.03300   0.23045   0.32905   0.00000  Uiso   1.00
Br5    Br    0.30824   0.11381   0.15687   0.00000  Uiso   1.00
Br6    Br    0.30723   0.12674   0.39813   0.00000  Uiso   1.00
Br7    Br    0.07369   0.18627   0.08818   0.00000  Uiso   1.00
Br8    Br    0.21653   0.08886   0.36186   0.00000  Uiso   1.00
C9     C     0.16670   0.24570   0.24890   0.00000  Uiso   1.00
C10    C     0.12563   0.15737   0.40791   0.00000  Uiso   1.00
C11    C     0.20979   0.31050   0.24492   0.00000  Uiso   1.00
C12    C     0.14084   0.16373   0.35008   0.00000  Uiso   1.00
C13    C     0.21076   0.01936   0.24595   0.00000  Uiso   1.00
C14    C     0.16853   0.04251   0.24776   0.00000  Uiso   1.00
C15    C     0.12646   0.02174   0.24743   0.00000  Uiso   1.00
C16    C     0.12595   0.31284   0.24681   0.00000  Uiso   1.00
C17    C     0.16725   0.29020   0.24685   0.00000  Uiso   1.00
C18    C     0.29892   0.19127   0.28436   0.00000  Uiso   1.00
C19    C     0.01498   0.19182   0.28358   0.00000  Uiso   1.00
C20    C     0.14515   0.15281   0.49121   0.00000  Uiso   1.00
C21    C     0.03478   0.14273   0.21561   0.00000  Uiso   1.00
C22    C     0.31956   0.14356   0.21425   0.00000  Uiso   1.00
C23    C     0.16732   0.08742   0.24928   0.00000  Uiso   1.00
C24    C     0.19250   0.16716   0.15012   0.00000  Uiso   1.00
C25    C     0.25933   0.18241   0.00669   0.00000  Uiso   1.00
C26    C     0.20646   0.16671   0.09272   0.00000  Uiso   1.00
C27    C     0.07747   0.16446   0.43698   0.00000  Uiso   1.00
C28    C     0.06295   0.16266   0.49120   0.00000  Uiso   1.00
C29    C     0.09645   0.16203   0.01858   0.00000  Uiso   1.00
C30    C     0.15878   0.14741   0.43584   0.00000  Uiso   1.00
C31    C     0.18220   0.15367   0.01524   0.00000  Uiso   1.00
C32    C     0.22907   0.16085   0.48403   0.00000  Uiso   1.00
C33    C     0.24263   0.14519   0.43232   0.00000  Uiso   1.00
C34    C     0.20622   0.13404   0.41069   0.00000  Uiso   1.00
C35    C     0.17519   0.14844   0.06840   0.00000  Uiso   1.00
C36    C     0.24653   0.18757   0.06159   0.00000  Uiso   1.00
Cu37   Cu    0.11978   0.16666   0.25000   0.00000  Uiso   1.00
Cu38   Cu    0.21355   0.16667   0.25000   0.00000  Uiso   1.00
F39    F     0.08518   0.04196   0.24780   0.00000  Uiso   1.00
F40    F     0.08482   0.29444   0.24565   0.00000  Uiso   1.00
F41    F     0.29608   0.20351   0.47562   0.00000  Uiso   1.00
F42    F     0.13986   0.12366   0.09541   0.00000  Uiso   1.00
F43    F     0.04520   0.17773   0.41361   0.00000  Uiso   1.00
F44    F     0.01601   0.16579   0.01807   0.00000  Uiso   1.00
F45    F     0.25135   0.28947   0.24157   0.00000  Uiso   1.00
H46    H     0.06128   0.12367   0.18760   0.00000  Uiso   1.00
N47    N     0.04931   0.16666   0.24998   0.00000  Uiso   1.00
N48    N     0.28402   0.16669   0.24999   0.00000  Uiso   1.00
O49    O     0.12708   0.22678   0.25000   0.00000  Uiso   1.00
O50    O     0.20627   0.22679   0.25000   0.00000  Uiso   1.00
O51    O     0.10775   0.16665   0.32549   0.00000  Uiso   1.00
O52    O     0.18694   0.16666   0.32549   0.00000  Uiso   1.00
O53    O     0.12706   0.10654   0.24999   0.00000  Uiso   1.00
O54    O     0.20625   0.10655   0.24999   0.00000  Uiso   1.00
O55    O     0.14640   0.16667   0.17451   0.00000  Uiso   1.00
O56    O     0.22559   0.16668   0.17451   0.00000  Uiso   1.00
Br57   Br    0.61425   0.22550   0.09212   0.00000  Uiso   1.00
Br58   Br    0.60559   0.04074   0.24503   0.00000  Uiso   1.00
Br59   Br    0.58741   0.22754   0.33355   0.00000  Uiso   1.00
Br60   Br    0.36633   0.23045   0.32905   0.00000  Uiso   1.00
Br61   Br    0.64158   0.11381   0.15687   0.00000  Uiso   1.00
Br62   Br    0.64056   0.12674   0.39813   0.00000  Uiso   1.00
Br63   Br    0.40703   0.18627   0.08818   0.00000  Uiso   1.00
Br64   Br    0.54986   0.08886   0.36186   0.00000  Uiso   1.00
C65    C     0.50004   0.24570   0.24890   0.00000  Uiso   1.00
C66    C     0.45896   0.15737   0.40791   0.00000  Uiso   1.00
C67    C     0.54312   0.31050   0.24492   0.00000  Uiso   1.00
C68    C     0.47417   0.16373   0.35008   0.00000  Uiso   1.00
C69    C     0.54409   0.01936   0.24595   0.00000  Uiso   1.00
C70    C     0.50186   0.04251   0.24776   0.00000  Uiso   1.00
C71    C     0.45980   0.02174   0.24743   0.00000  Uiso   1.00
C72    C     0.45928   0.31284   0.24681   0.00000  Uiso   1.00
C73    C     0.50058   0.29020   0.24685   0.00000  Uiso   1.00
C74    C     0.63225   0.19127   0.28436   0.00000  Uiso   1.00
C75    C     0.34831   0.19182   0.28358   0.00000  Uiso   1.00
C76    C     0.47848   0.15281   0.49121   0.00000  Uiso   1.00
C77    C     0.36811   0.14273   0.21561   0.00000  Uiso   1.00
C78    C     0.65289   0.14356   0.21425   0.00000  Uiso   1.00
C79    C     0.50065   0.08742   0.24928   0.00000  Uiso   1.00
C80    C     0.52584   0.16716   0.15012   0.00000  Uiso   1.00
C81    C     0.59266   0.18241   0.00669   0.00000  Uiso   1.00
C82    C     0.53980   0.16671   0.09272   0.00000  Uiso   1.00
C83    C     0.41081   0.16446   0.43698   0.00000  Uiso   1.00
C84    C     0.39629   0.16266   0.49120   0.00000  Uiso   1.00
C85    C     0.42978   0.16203   0.01858   0.00000  Uiso   1.00
C86    C     0.49211   0.14741   0.43584   0.00000  Uiso   1.00
C87    C     0.51553   0.15367   0.01524   0.00000  Uiso   1.00
C88    C     0.56240   0.16085   0.48403   0.00000  Uiso   1.00
C89    C     0.57596   0.14519   0.43232   0.00000  Uiso   1.00
C90    C     0.53955   0.13404   0.41069   0.00000  Uiso   1.00
C91    C     0.50852   0.14844   0.06840   0.00000  Uiso   1.00
C92    C     0.57986   0.18757   0.06159   0.00000  Uiso   1.00
Cu93   Cu    0.45311   0.16666   0.25000   0.00000  Uiso   1.00
Cu94   Cu    0.54689   0.16667   0.25000   0.00000  Uiso   1.00
F95    F     0.41852   0.04196   0.24780   0.00000  Uiso   1.00
F96    F     0.41816   0.29444   0.24565   0.00000  Uiso   1.00
F97    F     0.62941   0.20351   0.47562   0.00000  Uiso   1.00
F98    F     0.47319   0.12366   0.09541   0.00000  Uiso   1.00
F99    F     0.37853   0.17773   0.41361   0.00000  Uiso   1.00
F100   F     0.34935   0.16579   0.01807   0.00000  Uiso   1.00
F101   F     0.58468   0.28947   0.24157   0.00000  Uiso   1.00
H102   H     0.39461   0.12367   0.18760   0.00000  Uiso   1.00
N103   N     0.38265   0.16666   0.24998   0.00000  Uiso   1.00
N104   N     0.61735   0.16669   0.24999   0.00000  Uiso   1.00
O105   O     0.46042   0.22678   0.25000   0.00000  Uiso   1.00
O106   O     0.53961   0.22679   0.25000   0.00000  Uiso   1.00
O107   O     0.44108   0.16665   0.32549   0.00000  Uiso   1.00
O108   O     0.52027   0.16666   0.32549   0.00000  Uiso   1.00
O109   O     0.46039   0.10654   0.24999   0.00000  Uiso   1.00
O110   O     0.53958   0.10655   0.24999   0.00000  Uiso   1.00
O111   O     0.47973   0.16667   0.17451   0.00000  Uiso   1.00
O112   O     0.55892   0.16668   0.17451   0.00000  Uiso   1.00
Br113  Br    0.94758   0.22550   0.09212   0.00000  Uiso   1.00
Br114  Br    0.93892   0.04074   0.24503   0.00000  Uiso   1.00
Br115  Br    0.92075   0.22754   0.33355   0.00000  Uiso   1.00
Br116  Br    0.69967   0.23045   0.32905   0.00000  Uiso   1.00
Br117  Br    0.97491   0.11381   0.15687   0.00000  Uiso   1.00
Br118  Br    0.97389   0.12674   0.39813   0.00000  Uiso   1.00
Br119  Br    0.74036   0.18627   0.08818   0.00000  Uiso   1.00
Br120  Br    0.88320   0.08886   0.36186   0.00000  Uiso   1.00
C121   C     0.83337   0.24570   0.24890   0.00000  Uiso   1.00
C122   C     0.79229   0.15737   0.40791   0.00000  Uiso   1.00
C123   C     0.87646   0.31050   0.24492   0.00000  Uiso   1.00
C124   C     0.80751   0.16373   0.35008   0.00000  Uiso   1.00
C125   C     0.87742   0.01936   0.24595   0.00000  Uiso   1.00
C126   C     0.83519   0.04251   0.24776   0.00000  Uiso   1.00
C127   C     0.79313   0.02174   0.24743   0.00000  Uiso   1.00
C128   C     0.79261   0.31284   0.24681   0.00000  Uiso   1.00
C129   C     0.83391   0.29020   0.24685   0.00000  Uiso   1.00
C130   C     0.96559   0.19127   0.28436   0.00000  Uiso   1.00
C131   C     0.68165   0.19182   0.28358   0.00000  Uiso   1.00
C132   C     0.81182   0.15281   0.49121   0.00000  Uiso   1.00
C133   C     0.70145   0.14273   0.21561   0.00000  Uiso   1.00
C134   C     0.98623   0.14356   0.21425   0.00000  Uiso   1.00
C135   C     0.83398   0.08742   0.24928   0.00000  Uiso   1.00
C136   C     0.85917   0.16716   0.15012   0.00000  Uiso   1.00
C137   C     0.92599   0.18241   0.00669   0.00000  Uiso   1.00
C138   C     0.87313   0.16671   0.09272   0.00000  Uiso   1.00
C139   C     0.74414   0.16446   0.43698   0.00000  Uiso   1.00
C140   C     0.72962   0.16266   0.49120   0.00000  Uiso   1.00
C141   C     0.76312   0.16203   0.01858   0.00000  Uiso   1.00
C142   C     0.82545   0.14741   0.43584   0.00000  Uiso   1.00
C143   C     0.84887   0.15367   0.01524   0.00000  Uiso   1.00
C144   C     0.89573   0.16085   0.48403   0.00000  Uiso   1.00
C145   C     0.90929   0.14519   0.43232   0.00000  Uiso   1.00
C146   C     0.87288   0.13404   0.41069   0.00000  Uiso   1.00
C147   C     0.84185   0.14844   0.06840   0.00000  Uiso   1.00
C148   C     0.91319   0.18757   0.06159   0.00000  Uiso   1.00
Cu149  Cu    0.78645   0.16666   0.25000   0.00000  Uiso   1.00
Cu150  Cu    0.88022   0.16667   0.25000   0.00000  Uiso   1.00
F151   F     0.75185   0.04196   0.24780   0.00000  Uiso   1.00
F152   F     0.75149   0.29444   0.24565   0.00000  Uiso   1.00
F153   F     0.96275   0.20351   0.47562   0.00000  Uiso   1.00
F154   F     0.80652   0.12366   0.09541   0.00000  Uiso   1.00
F155   F     0.71187   0.17773   0.41361   0.00000  Uiso   1.00
F156   F     0.68268   0.16579   0.01807   0.00000  Uiso   1.00
F157   F     0.91801   0.28947   0.24157   0.00000  Uiso   1.00
H158   H     0.72794   0.12367   0.18760   0.00000  Uiso   1.00
N159   N     0.71598   0.16666   0.24998   0.00000  Uiso   1.00
N160   N     0.95069   0.16669   0.24999   0.00000  Uiso   1.00
O161   O     0.79375   0.22678   0.25000   0.00000  Uiso   1.00
O162   O     0.87294   0.22679   0.25000   0.00000  Uiso   1.00
O163   O     0.77441   0.16665   0.32549   0.00000  Uiso   1.00
O164   O     0.85360   0.16666   0.32549   0.00000  Uiso   1.00
O165   O     0.79373   0.10654   0.24999   0.00000  Uiso   1.00
O166   O     0.87292   0.10655   0.24999   0.00000  Uiso   1.00
O167   O     0.81306   0.16667   0.17451   0.00000  Uiso   1.00
O168   O     0.89225   0.16668   0.17451   0.00000  Uiso   1.00
Br169  Br    0.28091   0.55883   0.09212   0.00000  Uiso   1.00
Br170  Br    0.27226   0.37407   0.24503   0.00000  Uiso   1.00
Br171  Br    0.25408   0.56087   0.33355   0.00000  Uiso   1.00
Br172  Br    0.03300   0.56378   0.32905   0.00000  Uiso   1.00
Br173  Br    0.30824   0.44714   0.15687   0.00000  Uiso   1.00
Br174  Br    0.30723   0.46007   0.39813   0.00000  Uiso   1.00
Br175  Br    0.07369   0.51960   0.08818   0.00000  Uiso   1.00
Br176  Br    0.21653   0.42220   0.36186   0.00000  Uiso   1.00
C177   C     0.16670   0.57903   0.24890   0.00000  Uiso   1.00
C178   C     0.12563   0.49070   0.40791   0.00000  Uiso   1.00
C179   C     0.20979   0.64383   0.24492   0.00000  Uiso   1.00
C180   C     0.14084   0.49706   0.35008   0.00000  Uiso   1.00
C181   C     0.21076   0.35270   0.24595   0.00000  Uiso   1.00
C182   C     0.16853   0.37584   0.24776   0.00000  Uiso   1.00
C183   C     0.12646   0.35507   0.24743   0.00000  Uiso   1.00
C184   C     0.12595   0.64617   0.24681   0.00000  Uiso   1.00
C185   C     0.16725   0.62354   0.24685   0.00000  Uiso   1.00
C186   C     0.29892   0.52461   0.28436   0.00000  Uiso   1.00
C187   C     0.01498   0.52515   0.28358   0.00000  Uiso   1.00
C188   C     0.14515   0.48614   0.49121   0.00000  Uiso   1.00
C189   C     0.03478   0.47606   0.21561   0.00000  Uiso   1.00
C190   C     0.31956   0.47690   0.21425   0.00000  Uiso   1.00
C191   C     0.16732   0.42075   0.24928   0.00000  Uiso   1.00
C192   C     0.19250   0.50049   0.15012   0.00000  Uiso   1.00
C193   C     0.25933   0.51574   0.00669   0.00000  Uiso   1.00
C194   C     0.20646   0.50004   0.09272   0.00000  Uiso   1.00
C195   C     0.07747   0.49780   0.43698   0.00000  Uiso   1.00
C196   C     0.06295   0.49600   0.49120   0.00000  Uiso   1.00
C197   C     0.09645   0.49537   0.01858   0.00000  Uiso   1.00
C198   C     0.15878   0.48075   0.43584   0.00000  Uiso   1.00
C199   C     0.18220   0.48701   0.01524   0.00000  Uiso   1.00
C200   C     0.22907   0.49418   0.48403   0.00000  Uiso   1.00
C201   C     0.24263   0.47852   0.43232   0.00000  Uiso   1.00
C202   C     0.20622   0.46737   0.41069   0.00000  Uiso   1.00
C203   C     0.17519   0.48178   0.06840   0.00000  Uiso   1.00
C204   C     0.24653   0.52090   0.06159   0.00000  Uiso   1.00
Cu205  Cu    0.11978   0.49999   0.25000   0.00000  Uiso   1.00
Cu206  Cu    0.21355   0.50001   0.25000   0.00000  Uiso   1.00
F207   F     0.08518   0.37529   0.24780   0.00000  Uiso   1.00
F208   F     0.08482   0.62777   0.24565   0.00000  Uiso   1.00
F209   F     0.29608   0.53684   0.47562   0.00000  Uiso   1.00
F210   F     0.13986   0.45700   0.09541   0.00000  Uiso   1.00
F211   F     0.04520   0.51106   0.41361   0.00000  Uiso   1.00
F212   F     0.01601   0.49913   0.01807   0.00000  Uiso   1.00
F213   F     0.25135   0.62280   0.24157   0.00000  Uiso   1.00
H214   H     0.06128   0.45700   0.18760   0.00000  Uiso   1.00
N215   N     0.04931   0.49999   0.24998   0.00000  Uiso   1.00
N216   N     0.28402   0.50002   0.24999   0.00000  Uiso   1.00
O217   O     0.12708   0.56011   0.25000   0.00000  Uiso   1.00
O218   O     0.20627   0.56012   0.25000   0.00000  Uiso   1.00
O219   O     0.10775   0.49998   0.32549   0.00000  Uiso   1.00
O220   O     0.18694   0.49999   0.32549   0.00000  Uiso   1.00
O221   O     0.12706   0.43988   0.24999   0.00000  Uiso   1.00
O222   O     0.20625   0.43989   0.24999   0.00000  Uiso   1.00
O223   O     0.14640   0.50001   0.17451   0.00000  Uiso   1.00
O224   O     0.22559   0.50002   0.17451   0.00000  Uiso   1.00
Br225  Br    0.61425   0.55883   0.09212   0.00000  Uiso   1.00
Br226  Br    0.60559   0.37407   0.24503   0.00000  Uiso   1.00
Br227  Br    0.58741   0.56087   0.33355   0.00000  Uiso   1.00
Br228  Br    0.36633   0.56378   0.32905   0.00000  Uiso   1.00
Br229  Br    0.64158   0.44714   0.15687   0.00000  Uiso   1.00
Br230  Br    0.64056   0.46007   0.39813   0.00000  Uiso   1.00
Br231  Br    0.40703   0.51960   0.08818   0.00000  Uiso   1.00
Br232  Br    0.54986   0.42220   0.36186   0.00000  Uiso   1.00
C233   C     0.50004   0.57903   0.24890   0.00000  Uiso   1.00
C234   C     0.45896   0.49070   0.40791   0.00000  Uiso   1.00
C235   C     0.54312   0.64383   0.24492   0.00000  Uiso   1.00
C236   C     0.47417   0.49706   0.35008   0.00000  Uiso   1.00
C237   C     0.54409   0.35270   0.24595   0.00000  Uiso   1.00
C238   C     0.50186   0.37584   0.24776   0.00000  Uiso   1.00
C239   C     0.45980   0.35507   0.24743   0.00000  Uiso   1.00
C240   C     0.45928   0.64617   0.24681   0.00000  Uiso   1.00
C241   C     0.50058   0.62354   0.24685   0.00000  Uiso   1.00
C242   C     0.63225   0.52461   0.28436   0.00000  Uiso   1.00
C243   C     0.34831   0.52515   0.28358   0.00000  Uiso   1.00
C244   C     0.47848   0.48614   0.49121   0.00000  Uiso   1.00
C245   C     0.36811   0.47606   0.21561   0.00000  Uiso   1.00
C246   C     0.65289   0.47690   0.21425   0.00000  Uiso   1.00
C247   C     0.50065   0.42075   0.24928   0.00000  Uiso   1.00
C248   C     0.52584   0.50049   0.15012   0.00000  Uiso   1.00
C249   C     0.59266   0.51574   0.00669   0.00000  Uiso   1.00
C250   C     0.53980   0.50004   0.09272   0.00000  Uiso   1.00
C251   C     0.41081   0.49780   0.43698   0.00000  Uiso   1.00
C252   C     0.39629   0.49600   0.49120   0.00000  Uiso   1.00
C253   C     0.42978   0.49537   0.01858   0.00000  Uiso   1.00
C254   C     0.49211   0.48075   0.43584   0.00000  Uiso   1.00
C255   C     0.51553   0.48701   0.01524   0.00000  Uiso   1.00
C256   C     0.56240   0.49418   0.48403   0.00000  Uiso   1.00
C257   C     0.57596   0.47852   0.43232   0.00000  Uiso   1.00
C258   C     0.53955   0.46737   0.41069   0.00000  Uiso   1.00
C259   C     0.50852   0.48178   0.06840   0.00000  Uiso   1.00
C260   C     0.57986   0.52090   0.06159   0.00000  Uiso   1.00
Cu261  Cu    0.45311   0.49999   0.25000   0.00000  Uiso   1.00
Cu262  Cu    0.54689   0.50001   0.25000   0.00000  Uiso   1.00
F263   F     0.41852   0.37529   0.24780   0.00000  Uiso   1.00
F264   F     0.41816   0.62777   0.24565   0.00000  Uiso   1.00
F265   F     0.62941   0.53684   0.47562   0.00000  Uiso   1.00
F266   F     0.47319   0.45700   0.09541   0.00000  Uiso   1.00
F267   F     0.37853   0.51106   0.41361   0.00000  Uiso   1.00
F268   F     0.34935   0.49913   0.01807   0.00000  Uiso   1.00
F269   F     0.58468   0.62280   0.24157   0.00000  Uiso   1.00
H270   H     0.39461   0.45700   0.18760   0.00000  Uiso   1.00
N271   N     0.38265   0.49999   0.24998   0.00000  Uiso   1.00
N272   N     0.61735   0.50002   0.24999   0.00000  Uiso   1.00
O273   O     0.46042   0.56011   0.25000   0.00000  Uiso   1.00
O274   O     0.53961   0.56012   0.25000   0.00000  Uiso   1.00
O275   O     0.44108   0.49998   0.32549   0.00000  Uiso   1.00
O276   O     0.52027   0.49999   0.32549   0.00000  Uiso   1.00
O277   O     0.46039   0.43988   0.24999   0.00000  Uiso   1.00
O278   O     0.53958   0.43989   0.24999   0.00000  Uiso   1.00
O279   O     0.47973   0.50001   0.17451   0.00000  Uiso   1.00
O280   O     0.55892   0.50002   0.17451   0.00000  Uiso   1.00
Br281  Br    0.94758   0.55883   0.09212   0.00000  Uiso   1.00
Br282  Br    0.93892   0.37407   0.24503   0.00000  Uiso   1.00
Br283  Br    0.92075   0.56087   0.33355   0.00000  Uiso   1.00
Br284  Br    0.69967   0.56378   0.32905   0.00000  Uiso   1.00
Br285  Br    0.97491   0.44714   0.15687   0.00000  Uiso   1.00
Br286  Br    0.97389   0.46007   0.39813   0.00000  Uiso   1.00
Br287  Br    0.74036   0.51960   0.08818   0.00000  Uiso   1.00
Br288  Br    0.88320   0.42220   0.36186   0.00000  Uiso   1.00
C289   C     0.83337   0.57903   0.24890   0.00000  Uiso   1.00
C290   C     0.79229   0.49070   0.40791   0.00000  Uiso   1.00
C291   C     0.87646   0.64383   0.24492   0.00000  Uiso   1.00
C292   C     0.80751   0.49706   0.35008   0.00000  Uiso   1.00
C293   C     0.87742   0.35270   0.24595   0.00000  Uiso   1.00
C294   C     0.83519   0.37584   0.24776   0.00000  Uiso   1.00
C295   C     0.79313   0.35507   0.24743   0.00000  Uiso   1.00
C296   C     0.79261   0.64617   0.24681   0.00000  Uiso   1.00
C297   C     0.83391   0.62354   0.24685   0.00000  Uiso   1.00
C298   C     0.96559   0.52461   0.28436   0.00000  Uiso   1.00
C299   C     0.68165   0.52515   0.28358   0.00000  Uiso   1.00
C300   C     0.81182   0.48614   0.49121   0.00000  Uiso   1.00
C301   C     0.70145   0.47606   0.21561   0.00000  Uiso   1.00
C302   C     0.98623   0.47690   0.21425   0.00000  Uiso   1.00
C303   C     0.83398   0.42075   0.24928   0.00000  Uiso   1.00
C304   C     0.85917   0.50049   0.15012   0.00000  Uiso   1.00
C305   C     0.92599   0.51574   0.00669   0.00000  Uiso   1.00
C306   C     0.87313   0.50004   0.09272   0.00000  Uiso   1.00
C307   C     0.74414   0.49780   0.43698   0.00000  Uiso   1.00
C308   C     0.72962   0.49600   0.49120   0.00000  Uiso   1.00
C309   C     0.76312   0.49537   0.01858   0.00000  Uiso   1.00
C310   C     0.82545   0.48075   0.43584   0.00000  Uiso   1.00
C311   C     0.84887   0.48701   0.01524   0.00000  Uiso   1.00
C312   C     0.89573   0.49418   0.48403   0.00000  Uiso   1.00
C313   C     0.90929   0.47852   0.43232   0.00000  Uiso   1.00
C314   C     0.87288   0.46737   0.41069   0.00000  Uiso   1.00
C315   C     0.84185   0.48178   0.06840   0.00000  Uiso   1.00
C316   C     0.91319   0.52090   0.06159   0.00000  Uiso   1.00
Cu317  Cu    0.78645   0.49999   0.25000   0.00000  Uiso   1.00
Cu318  Cu    0.88022   0.50001   0.25000   0.00000  Uiso   1.00
F319   F     0.75185   0.37529   0.24780   0.00000  Uiso   1.00
F320   F     0.75149   0.62777   0.24565   0.00000  Uiso   1.00
F321   F     0.96275   0.53684   0.47562   0.00000  Uiso   1.00
F322   F     0.80652   0.45700   0.09541   0.00000  Uiso   1.00
F323   F     0.71187   0.51106   0.41361   0.00000  Uiso   1.00
F324   F     0.68268   0.49913   0.01807   0.00000  Uiso   1.00
F325   F     0.91801   0.62280   0.24157   0.00000  Uiso   1.00
H326   H     0.72794   0.45700   0.18760   0.00000  Uiso   1.00
N327   N     0.71598   0.49999   0.24998   0.00000  Uiso   1.00
N328   N     0.95069   0.50002   0.24999   0.00000  Uiso   1.00
O329   O     0.79375   0.56011   0.25000   0.00000  Uiso   1.00
O330   O     0.87294   0.56012   0.25000   0.00000  Uiso   1.00
O331   O     0.77441   0.49998   0.32549   0.00000  Uiso   1.00
O332   O     0.85360   0.49999   0.32549   0.00000  Uiso   1.00
O333   O     0.79373   0.43988   0.24999   0.00000  Uiso   1.00
O334   O     0.87292   0.43989   0.24999   0.00000  Uiso   1.00
O335   O     0.81306   0.50001   0.17451   0.00000  Uiso   1.00
O336   O     0.89225   0.50002   0.17451   0.00000  Uiso   1.00
Br337  Br    0.28091   0.89217   0.09212   0.00000  Uiso   1.00
Br338  Br    0.27226   0.70741   0.24503   0.00000  Uiso   1.00
Br339  Br    0.25408   0.89420   0.33355   0.00000  Uiso   1.00
Br340  Br    0.03300   0.89711   0.32905   0.00000  Uiso   1.00
Br341  Br    0.30824   0.78048   0.15687   0.00000  Uiso   1.00
Br342  Br    0.30723   0.79341   0.39813   0.00000  Uiso   1.00
Br343  Br    0.07369   0.85294   0.08818   0.00000  Uiso   1.00
Br344  Br    0.21653   0.75553   0.36186   0.00000  Uiso   1.00
C345   C     0.16670   0.91237   0.24890   0.00000  Uiso   1.00
C346   C     0.12563   0.82403   0.40791   0.00000  Uiso   1.00
C347   C     0.20979   0.97717   0.24492   0.00000  Uiso   1.00
C348   C     0.14084   0.83039   0.35008   0.00000  Uiso   1.00
C349   C     0.21076   0.68603   0.24595   0.00000  Uiso   1.00
C350   C     0.16853   0.70917   0.24776   0.00000  Uiso   1.00
C351   C     0.12646   0.68841   0.24743   0.00000  Uiso   1.00
C352   C     0.12595   0.97951   0.24681   0.00000  Uiso   1.00
C353   C     0.16725   0.95687   0.24685   0.00000  Uiso   1.00
C354   C     0.29892   0.85794   0.28436   0.00000  Uiso   1.00
C355   C     0.01498   0.85849   0.28358   0.00000  Uiso   1.00
C356   C     0.14515   0.81947   0.49121   0.00000  Uiso   1.00
C357   C     0.03478   0.80939   0.21561   0.00000  Uiso   1.00
C358   C     0.31956   0.81023   0.21425   0.00000  Uiso   1.00
C359   C     0.16732   0.75408   0.24928   0.00000  Uiso   1.00
C360   C     0.19250   0.83383   0.15012   0.00000  Uiso   1.00
C361   C     0.25933   0.84907   0.00669   0.00000  Uiso   1.00
C362   C     0.20646   0.83338   0.09272   0.00000  Uiso   1.00
C363   C     0.07747   0.83113   0.43698   0.00000  Uiso   1.00
C364   C     0.06295   0.82933   0.49120   0.00000  Uiso   1.00
C365   C     0.09645   0.82870   0.01858   0.00000  Uiso   1.00
C366   C     0.15878   0.81408   0.43584   0.00000  Uiso   1.00
C367   C     0.18220   0.82034   0.01524   0.00000  Uiso   1.00
C368   C     0.22907   0.82751   0.48403   0.00000  Uiso   1.00
C369   C     0.24263   0.81186   0.43232   0.00000  Uiso   1.00
C370   C     0.20622   0.80070   0.41069   0.00000  Uiso   1.00
C371   C     0.17519   0.81511   0.06840   0.00000  Uiso   1.00
C372   C     0.24653   0.85424   0.06159   0.00000  Uiso   1.00
Cu373  Cu    0.11978   0.83333   0.25000   0.00000  Uiso   1.00
Cu374  Cu    0.21355   0.83334   0.25000   0.00000  Uiso   1.00
F375   F     0.08518   0.70862   0.24780   0.00000  Uiso   1.00
F376   F     0.08482   0.96110   0.24565   0.00000  Uiso   1.00
F377   F     0.29608   0.87018   0.47562   0.00000  Uiso   1.00
F378   F     0.13986   0.79033   0.09541   0.00000  Uiso   1.00
F379   F     0.04520   0.84440   0.41361   0.00000  Uiso   1.00
F380   F     0.01601   0.83246   0.01807   0.00000  Uiso   1.00
F381   F     0.25135   0.95613   0.24157   0.00000  Uiso   1.00
H382   H     0.06128   0.79033   0.18760   0.00000  Uiso   1.00
N383   N     0.04931   0.83332   0.24998   0.00000  Uiso   1.00
N384   N     0.28402   0.83335   0.24999   0.00000  Uiso   1.00
O385   O     0.12708   0.89345   0.25000   0.00000  Uiso   1.00
O386   O     0.20627   0.89346   0.25000   0.00000  Uiso   1.00
O387   O     0.10775   0.83332   0.32549   0.00000  Uiso   1.00
O388   O     0.18694   0.83333   0.32549   0.00000  Uiso   1.00
O389   O     0.12706   0.77321   0.24999   0.00000  Uiso   1.00
O390   O     0.20625   0.77322   0.24999   0.00000  Uiso   1.00
O391   O     0.14640   0.83334   0.17451   0.00000  Uiso   1.00
O392   O     0.22559   0.83335   0.17451   0.00000  Uiso   1.00
Br393  Br    0.61425   0.89217   0.09212   0.00000  Uiso   1.00
Br394  Br    0.60559   0.70741   0.24503   0.00000  Uiso   1.00
Br395  Br    0.58741   0.89420   0.33355   0.00000  Uiso   1.00
Br396  Br    0.36633   0.89711   0.32905   0.00000  Uiso   1.00
Br397  Br    0.64158   0.78048   0.15687   0.00000  Uiso   1.00
Br398  Br    0.64056   0.79341   0.39813   0.00000  Uiso   1.00
Br399  Br    0.40703   0.85294   0.08818   0.00000  Uiso   1.00
Br400  Br    0.54986   0.75553   0.36186   0.00000  Uiso   1.00
C401   C     0.50004   0.91237   0.24890   0.00000  Uiso   1.00
C402   C     0.45896   0.82403   0.40791   0.00000  Uiso   1.00
C403   C     0.54312   0.97717   0.24492   0.00000  Uiso   1.00
C404   C     0.47417   0.83039   0.35008   0.00000  Uiso   1.00
C405   C     0.54409   0.68603   0.24595   0.00000  Uiso   1.00
C406   C     0.50186   0.70917   0.24776   0.00000  Uiso   1.00
C407   C     0.45980   0.68841   0.24743   0.00000  Uiso   1.00
C408   C     0.45928   0.97951   0.24681   0.00000  Uiso   1.00
C409   C     0.50058   0.95687   0.24685   0.00000  Uiso   1.00
C410   C     0.63225   0.85794   0.28436   0.00000  Uiso   1.00
C411   C     0.34831   0.85849   0.28358   0.00000  Uiso   1.00
C412   C     0.47848   0.81947   0.49121   0.00000  Uiso   1.00
C413   C     0.36811   0.80939   0.21561   0.00000  Uiso   1.00
C414   C     0.65289   0.81023   0.21425   0.00000  Uiso   1.00
C415   C     0.50065   0.75408   0.24928   0.00000  Uiso   1.00
C416   C     0.52584   0.83383   0.15012   0.00000  Uiso   1.00
C417   C     0.59266   0.84907   0.00669   0.00000  Uiso   1.00
C418   C     0.53980   0.83338   0.09272   0.00000  Uiso   1.00
C419   C     0.41081   0.83113   0.43698   0.00000  Uiso   1.00
C420   C     0.39629   0.82933   0.49120   0.00000  Uiso   1.00
C421   C     0.42978   0.82870   0.01858   0.00000  Uiso   1.00
C422   C     0.49211   0.81408   0.43584   0.00000  Uiso   1.00
C423   C     0.51553   0.82034   0.01524   0.00000  Uiso   1.00
C424   C     0.56240   0.82751   0.48403   0.00000  Uiso   1.00
C425   C     0.57596   0.81186   0.43232   0.00000  Uiso   1.00
C426   C     0.53955   0.80070   0.41069   0.00000  Uiso   1.00
C427   C     0.50852   0.81511   0.06840   0.00000  Uiso   1.00
C428   C     0.57986   0.85424   0.06159   0.00000  Uiso   1.00
Cu429  Cu    0.45311   0.83333   0.25000   0.00000  Uiso   1.00
Cu430  Cu    0.54689   0.83334   0.25000   0.00000  Uiso   1.00
F431   F     0.41852   0.70862   0.24780   0.00000  Uiso   1.00
F432   F     0.41816   0.96110   0.24565   0.00000  Uiso   1.00
F433   F     0.62941   0.87018   0.47562   0.00000  Uiso   1.00
F434   F     0.47319   0.79033   0.09541   0.00000  Uiso   1.00
F435   F     0.37853   0.84440   0.41361   0.00000  Uiso   1.00
F436   F     0.34935   0.83246   0.01807   0.00000  Uiso   1.00
F437   F     0.58468   0.95613   0.24157   0.00000  Uiso   1.00
H438   H     0.39461   0.79033   0.18760   0.00000  Uiso   1.00
N439   N     0.38265   0.83332   0.24998   0.00000  Uiso   1.00
N440   N     0.61735   0.83335   0.24999   0.00000  Uiso   1.00
O441   O     0.46042   0.89345   0.25000   0.00000  Uiso   1.00
O442   O     0.53961   0.89346   0.25000   0.00000  Uiso   1.00
O443   O     0.44108   0.83332   0.32549   0.00000  Uiso   1.00
O444   O     0.52027   0.83333   0.32549   0.00000  Uiso   1.00
O445   O     0.46039   0.77321   0.24999   0.00000  Uiso   1.00
O446   O     0.53958   0.77322   0.24999   0.00000  Uiso   1.00
O447   O     0.47973   0.83334   0.17451   0.00000  Uiso   1.00
O448   O     0.55892   0.83335   0.17451   0.00000  Uiso   1.00
Br449  Br    0.94758   0.89217   0.09212   0.00000  Uiso   1.00
Br450  Br    0.93892   0.70741   0.24503   0.00000  Uiso   1.00
Br451  Br    0.92075   0.89420   0.33355   0.00000  Uiso   1.00
Br452  Br    0.69967   0.89711   0.32905   0.00000  Uiso   1.00
Br453  Br    0.97491   0.78048   0.15687   0.00000  Uiso   1.00
Br454  Br    0.97389   0.79341   0.39813   0.00000  Uiso   1.00
Br455  Br    0.74036   0.85294   0.08818   0.00000  Uiso   1.00
Br456  Br    0.88320   0.75553   0.36186   0.00000  Uiso   1.00
C457   C     0.83337   0.91237   0.24890   0.00000  Uiso   1.00
C458   C     0.79229   0.82403   0.40791   0.00000  Uiso   1.00
C459   C     0.87646   0.97717   0.24492   0.00000  Uiso   1.00
C460   C     0.80751   0.83039   0.35008   0.00000  Uiso   1.00
C461   C     0.87742   0.68603   0.24595   0.00000  Uiso   1.00
C462   C     0.83519   0.70917   0.24776   0.00000  Uiso   1.00
C463   C     0.79313   0.68841   0.24743   0.00000  Uiso   1.00
C464   C     0.79261   0.97951   0.24681   0.00000  Uiso   1.00
C465   C     0.83391   0.95687   0.24685   0.00000  Uiso   1.00
C466   C     0.96559   0.85794   0.28436   0.00000  Uiso   1.00
C467   C     0.68165   0.85849   0.28358   0.00000  Uiso   1.00
C468   C     0.81182   0.81947   0.49121   0.00000  Uiso   1.00
C469   C     0.70145   0.80939   0.21561   0.00000  Uiso   1.00
C470   C     0.98623   0.81023   0.21425   0.00000  Uiso   1.00
C471   C     0.83398   0.75408   0.24928   0.00000  Uiso   1.00
C472   C     0.85917   0.83383   0.15012   0.00000  Uiso   1.00
C473   C     0.92599   0.84907   0.00669   0.00000  Uiso   1.00
C474   C     0.87313   0.83338   0.09272   0.00000  Uiso   1.00
C475   C     0.74414   0.83113   0.43698   0.00000  Uiso   1.00
C476   C     0.72962   0.82933   0.49120   0.00000  Uiso   1.00
C477   C     0.76312   0.82870   0.01858   0.00000  Uiso   1.00
C478   C     0.82545   0.81408   0.43584   0.00000  Uiso   1.00
C479   C     0.84887   0.82034   0.01524   0.00000  Uiso   1.00
C480   C     0.89573   0.82751   0.48403   0.00000  Uiso   1.00
C481   C     0.90929   0.81186   0.43232   0.00000  Uiso   1.00
C482   C     0.87288   0.80070   0.41069   0.00000  Uiso   1.00
C483   C     0.84185   0.81511   0.06840   0.00000  Uiso   1.00
C484   C     0.91319   0.85424   0.06159   0.00000  Uiso   1.00
Cu485  Cu    0.78645   0.83333   0.25000   0.00000  Uiso   1.00
Cu486  Cu    0.88022   0.83334   0.25000   0.00000  Uiso   1.00
F487   F     0.75185   0.70862   0.24780   0.00000  Uiso   1.00
F488   F     0.75149   0.96110   0.24565   0.00000  Uiso   1.00
F489   F     0.96275   0.87018   0.47562   0.00000  Uiso   1.00
F490   F     0.80652   0.79033   0.09541   0.00000  Uiso   1.00
F491   F     0.71187   0.84440   0.41361   0.00000  Uiso   1.00
F492   F     0.68268   0.83246   0.01807   0.00000  Uiso   1.00
F493   F     0.91801   0.95613   0.24157   0.00000  Uiso   1.00
H494   H     0.72794   0.79033   0.18760   0.00000  Uiso   1.00
N495   N     0.71598   0.83332   0.24998   0.00000  Uiso   1.00
N496   N     0.95069   0.83335   0.24999   0.00000  Uiso   1.00
O497   O     0.79375   0.89345   0.25000   0.00000  Uiso   1.00
O498   O     0.87294   0.89346   0.25000   0.00000  Uiso   1.00
O499   O     0.77441   0.83332   0.32549   0.00000  Uiso   1.00
O500   O     0.85360   0.83333   0.32549   0.00000  Uiso   1.00
O501   O     0.79373   0.77321   0.24999   0.00000  Uiso   1.00
O502   O     0.87292   0.77322   0.24999   0.00000  Uiso   1.00
O503   O     0.81306   0.83334   0.17451   0.00000  Uiso   1.00
O504   O     0.89225   0.83335   0.17451   0.00000  Uiso   1.00
Br505  Br    0.28091   0.22550   0.59212   0.00000  Uiso   1.00
Br506  Br    0.27226   0.04074   0.74503   0.00000  Uiso   1.00
Br507  Br    0.25408   0.22754   0.83355   0.00000  Uiso   1.00
Br508  Br    0.03300   0.23045   0.82905   0.00000  Uiso   1.00
Br509  Br    0.30824   0.11381   0.65687   0.00000  Uiso   1.00
Br510  Br    0.30723   0.12674   0.89813   0.00000  Uiso   1.00
Br511  Br    0.07369   0.18627   0.58818   0.00000  Uiso   1.00
Br512  Br    0.21653   0.08886   0.86186   0.00000  Uiso   1.00
C513   C     0.16670   0.24570   0.74890   0.00000  Uiso   1.00
C514   C     0.12563   0.15737   0.90791   0.00000  Uiso   1.00
C515   C     0.20979   0.31050   0.74492   0.00000  Uiso   1.00
C516   C     0.14084   0.16373   0.85008   0.00000  Uiso   1.00
C517   C     0.21076   0.01936   0.74595   0.00000  Uiso   1.00
C518   C     0.16853   0.04251   0.74776   0.00000  Uiso   1.00
C519   C     0.12646   0.02174   0.74743   0.00000  Uiso   1.00
C520   C     0.12595   0.31284   0.74681   0.00000  Uiso   1.00
C521   C     0.16725   0.29020   0.74685   0.00000  Uiso   1.00
C522   C     0.29892   0.19127   0.78436   0.00000  Uiso   1.00
C523   C     0.01498   0.19182   0.78358   0.00000  Uiso   1.00
C524   C     0.14515   0.15281   0.99121   0.00000  Uiso   1.00
C525   C     0.03478   0.14273   0.71561   0.00000  Uiso   1.00
C526   C     0.31956   0.14356   0.71425   0.00000  Uiso   1.00
C527   C     0.16732   0.08742   0.74928   0.00000  Uiso   1.00
C528   C     0.19250   0.16716   0.65012   0.00000  Uiso   1.00
C529   C     0.25933   0.18241   0.50669   0.00000  Uiso   1.00
C530   C     0.20646   0.16671   0.59272   0.00000  Uiso   1.00
C531   C     0.07747   0.16446   0.93698   0.00000  Uiso   1.00
C532   C     0.06295   0.16266   0.99120   0.00000  Uiso   1.00
C533   C     0.09645   0.16203   0.51858   0.00000  Uiso   1.00
C534   C     0.15878   0.14741   0.93584   0.00000  Uiso   1.00
C535   C     0.18220   0.15367   0.51524   0.00000  Uiso   1.00
C536   C     0.22907   0.16085   0.98403   0.00000  Uiso   1.00
C537   C     0.24263   0.14519   0.93232   0.00000  Uiso   1.00
C538   C     0.20622   0.13404   0.91069   0.00000  Uiso   1.00
C539   C     0.17519   0.14844   0.56840   0.00000  Uiso   1.00
C540   C     0.24653   0.18757   0.56159   0.00000  Uiso   1.00
Cu541  Cu    0.11978   0.16666   0.75000   0.00000  Uiso   1.00
Cu542  Cu    0.21355   0.16667   0.75000   0.00000  Uiso   1.00
F543   F     0.08518   0.04196   0.74780   0.00000  Uiso   1.00
F544   F     0.08482   0.29444   0.74565   0.00000  Uiso   1.00
F545   F     0.29608   0.20351   0.97562   0.00000  Uiso   1.00
F546   F     0.13986   0.12366   0.59541   0.00000  Uiso   1.00
F547   F     0.04520   0.17773   0.91361   0.00000  Uiso   1.00
F548   F     0.01601   0.16579   0.51807   0.00000  Uiso   1.00
F549   F     0.25135   0.28947   0.74157   0.00000  Uiso   1.00
H550   H     0.06128   0.12367   0.68760   0.00000  Uiso   1.00
N551   N     0.04931   0.16666   0.74998   0.00000  Uiso   1.00
N552   N     0.28402   0.16669   0.74999   0.00000  Uiso   1.00
O553   O     0.12708   0.22678   0.75000   0.00000  Uiso   1.00
O554   O     0.20627   0.22679   0.75000   0.00000  Uiso   1.00
O555   O     0.10775   0.16665   0.82549   0.00000  Uiso   1.00
O556   O     0.18694   0.16666   0.82549   0.00000  Uiso   1.00
O557   O     0.12706   0.10654   0.74999   0.00000  Uiso   1.00
O558   O     0.20625   0.10655   0.74999   0.00000  Uiso   1.00
O559   O     0.14640   0.16667   0.67451   0.00000  Uiso   1.00
O560   O     0.22559   0.16668   0.67451   0.00000  Uiso   1.00
Br561  Br    0.61425   0.22550   0.59212   0.00000  Uiso   1.00
Br562  Br    0.60559   0.04074   0.74503   0.00000  Uiso   1.00
Br563  Br    0.58741   0.22754   0.83355   0.00000  Uiso   1.00
Br564  Br    0.36633   0.23045   0.82905   0.00000  Uiso   1.00
Br565  Br    0.64158   0.11381   0.65687   0.00000  Uiso   1.00
Br566  Br    0.64056   0.12674   0.89813   0.00000  Uiso   1.00
Br567  Br    0.40703   0.18627   0.58818   0.00000  Uiso   1.00
Br568  Br    0.54986   0.08886   0.86186   0.00000  Uiso   1.00
C569   C     0.50004   0.24570   0.74890   0.00000  Uiso   1.00
C570   C     0.45896   0.15737   0.90791   0.00000  Uiso   1.00
C571   C     0.54312   0.31050   0.74492   0.00000  Uiso   1.00
C572   C     0.47417   0.16373   0.85008   0.00000  Uiso   1.00
C573   C     0.54409   0.01936   0.74595   0.00000  Uiso   1.00
C574   C     0.50186   0.04251   0.74776   0.00000  Uiso   1.00
C575   C     0.45980   0.02174   0.74743   0.00000  Uiso   1.00
C576   C     0.45928   0.31284   0.74681   0.00000  Uiso   1.00
C577   C     0.50058   0.29020   0.74685   0.00000  Uiso   1.00
C578   C     0.63225   0.19127   0.78436   0.00000  Uiso   1.00
C579   C     0.34831   0.19182   0.78358   0.00000  Uiso   1.00
C580   C     0.47848   0.15281   0.99121   0.00000  Uiso   1.00
C581   C     0.36811   0.14273   0.71561   0.00000  Uiso   1.00
C582   C     0.65289   0.14356   0.71425   0.00000  Uiso   1.00
C583   C     0.50065   0.08742   0.74928   0.00000  Uiso   1.00
C584   C     0.52584   0.16716   0.65012   0.00000  Uiso   1.00
C585   C     0.59266   0.18241   0.50669   0.00000  Uiso   1.00
C586   C     0.53980   0.16671   0.59272   0.00000  Uiso   1.00
C587   C     0.41081   0.16446   0.93698   0.00000  Uiso   1.00
C588   C     0.39629   0.16266   0.99120   0.00000  Uiso   1.00
C589   C     0.42978   0.16203   0.51858   0.00000  Uiso   1.00
C590   C     0.49211   0.14741   0.93584   0.00000  Uiso   1.00
C591   C     0.51553   0.15367   0.51524   0.00000  Uiso   1.00
C592   C     0.56240   0.16085   0.98403   0.00000  Uiso   1.00
C593   C     0.57596   0.14519   0.93232   0.00000  Uiso   1.00
C594   C     0.53955   0.13404   0.91069   0.00000  Uiso   1.00
C595   C     0.50852   0.14844   0.56840   0.00000  Uiso   1.00
C596   C     0.57986   0.18757   0.56159   0.00000  Uiso   1.00
Cu597  Cu    0.45311   0.16666   0.75000   0.00000  Uiso   1.00
Cu598  Cu    0.54689   0.16667   0.75000   0.00000  Uiso   1.00
F599   F     0.41852   0.04196   0.74780   0.00000  Uiso   1.00
F600   F     0.41816   0.29444   0.74565   0.00000  Uiso   1.00
F601   F     0.62941   0.20351   0.97562   0.00000  Uiso   1.00
F602   F     0.47319   0.12366   0.59541   0.00000  Uiso   1.00
F603   F     0.37853   0.17773   0.91361   0.00000  Uiso   1.00
F604   F     0.34935   0.16579   0.51807   0.00000  Uiso   1.00
F605   F     0.58468   0.28947   0.74157   0.00000  Uiso   1.00
H606   H     0.39461   0.12367   0.68760   0.00000  Uiso   1.00
N607   N     0.38265   0.16666   0.74998   0.00000  Uiso   1.00
N608   N     0.61735   0.16669   0.74999   0.00000  Uiso   1.00
O609   O     0.46042   0.22678   0.75000   0.00000  Uiso   1.00
O610   O     0.53961   0.22679   0.75000   0.00000  Uiso   1.00
O611   O     0.44108   0.16665   0.82549   0.00000  Uiso   1.00
O612   O     0.52027   0.16666   0.82549   0.00000  Uiso   1.00
O613   O     0.46039   0.10654   0.74999   0.00000  Uiso   1.00
O614   O     0.53958   0.10655   0.74999   0.00000  Uiso   1.00
O615   O     0.47973   0.16667   0.67451   0.00000  Uiso   1.00
O616   O     0.55892   0.16668   0.67451   0.00000  Uiso   1.00
Br617  Br    0.94758   0.22550   0.59212   0.00000  Uiso   1.00
Br618  Br    0.93892   0.04074   0.74503   0.00000  Uiso   1.00
Br619  Br    0.92075   0.22754   0.83355   0.00000  Uiso   1.00
Br620  Br    0.69967   0.23045   0.82905   0.00000  Uiso   1.00
Br621  Br    0.97491   0.11381   0.65687   0.00000  Uiso   1.00
Br622  Br    0.97389   0.12674   0.89813   0.00000  Uiso   1.00
Br623  Br    0.74036   0.18627   0.58818   0.00000  Uiso   1.00
Br624  Br    0.88320   0.08886   0.86186   0.00000  Uiso   1.00
C625   C     0.83337   0.24570   0.74890   0.00000  Uiso   1.00
C626   C     0.79229   0.15737   0.90791   0.00000  Uiso   1.00
C627   C     0.87646   0.31050   0.74492   0.00000  Uiso   1.00
C628   C     0.80751   0.16373   0.85008   0.00000  Uiso   1.00
C629   C     0.87742   0.01936   0.74595   0.00000  Uiso   1.00
C630   C     0.83519   0.04251   0.74776   0.00000  Uiso   1.00
C631   C     0.79313   0.02174   0.74743   0.00000  Uiso   1.00
C632   C     0.79261   0.31284   0.74681   0.00000  Uiso   1.00
C633   C     0.83391   0.29020   0.74685   0.00000  Uiso   1.00
C634   C     0.96559   0.19127   0.78436   0.00000  Uiso   1.00
C635   C     0.68165   0.19182   0.78358   0.00000  Uiso   1.00
C636   C     0.81182   0.15281   0.99121   0.00000  Uiso   1.00
C637   C     0.70145   0.14273   0.71561   0.00000  Uiso   1.00
C638   C     0.98623   0.14356   0.71425   0.00000  Uiso   1.00
C639   C     0.83398   0.08742   0.74928   0.00000  Uiso   1.00
C640   C     0.85917   0.16716   0.65012   0.00000  Uiso   1.00
C641   C     0.92599   0.18241   0.50669   0.00000  Uiso   1.00
C642   C     0.87313   0.16671   0.59272   0.00000  Uiso   1.00
C643   C     0.74414   0.16446   0.93698   0.00000  Uiso   1.00
C644   C     0.72962   0.16266   0.99120   0.00000  Uiso   1.00
C645   C     0.76312   0.16203   0.51858   0.00000  Uiso   1.00
C646   C     0.82545   0.14741   0.93584   0.00000  Uiso   1.00
C647   C     0.84887   0.15367   0.51524   0.00000  Uiso   1.00
C648   C     0.89573   0.16085   0.98403   0.00000  Uiso   1.00
C649   C     0.90929   0.14519   0.93232   0.00000  Uiso   1.00
C650   C     0.87288   0.13404   0.91069   0.00000  Uiso   1.00
C651   C     0.84185   0.14844   0.56840   0.00000  Uiso   1.00
C652   C     0.91319   0.18757   0.56159   0.00000  Uiso   1.00
Cu653  Cu    0.78645   0.16666   0.75000   0.00000  Uiso   1.00
Cu654  Cu    0.88022   0.16667   0.75000   0.00000  Uiso   1.00
F655   F     0.75185   0.04196   0.74780   0.00000  Uiso   1.00
F656   F     0.75149   0.29444   0.74565   0.00000  Uiso   1.00
F657   F     0.96275   0.20351   0.97562   0.00000  Uiso   1.00
F658   F     0.80652   0.12366   0.59541   0.00000  Uiso   1.00
F659   F     0.71187   0.17773   0.91361   0.00000  Uiso   1.00
F660   F     0.68268   0.16579   0.51807   0.00000  Uiso   1.00
F661   F     0.91801   0.28947   0.74157   0.00000  Uiso   1.00
H662   H     0.72794   0.12367   0.68760   0.00000  Uiso   1.00
N663   N     0.71598   0.16666   0.74998   0.00000  Uiso   1.00
N664   N     0.95069   0.16669   0.74999   0.00000  Uiso   1.00
O665   O     0.79375   0.22678   0.75000   0.00000  Uiso   1.00
O666   O     0.87294   0.22679   0.75000   0.00000  Uiso   1.00
O667   O     0.77441   0.16665   0.82549   0.00000  Uiso   1.00
O668   O     0.85360   0.16666   0.82549   0.00000  Uiso   1.00
O669   O     0.79373   0.10654   0.74999   0.00000  Uiso   1.00
O670   O     0.87292   0.10655   0.74999   0.00000  Uiso   1.00
O671   O     0.81306   0.16667   0.67451   0.00000  Uiso   1.00
O672   O     0.89225   0.16668   0.67451   0.00000  Uiso   1.00
Br673  Br    0.28091   0.55883   0.59212   0.00000  Uiso   1.00
Br674  Br    0.27226   0.37407   0.74503   0.00000  Uiso   1.00
Br675  Br    0.25408   0.56087   0.83355   0.00000  Uiso   1.00
Br676  Br    0.03300   0.56378   0.82905   0.00000  Uiso   1.00
Br677  Br    0.30824   0.44714   0.65687   0.00000  Uiso   1.00
Br678  Br    0.30723   0.46007   0.89813   0.00000  Uiso   1.00
Br679  Br    0.07369   0.51960   0.58818   0.00000  Uiso   1.00
Br680  Br    0.21653   0.42220   0.86186   0.00000  Uiso   1.00
C681   C     0.16670   0.57903   0.74890   0.00000  Uiso   1.00
C682   C     0.12563   0.49070   0.90791   0.00000  Uiso   1.00
C683   C     0.20979   0.64383   0.74492   0.00000  Uiso   1.00
C684   C     0.14084   0.49706   0.85008   0.00000  Uiso   1.00
C685   C     0.21076   0.35270   0.74595   0.00000  Uiso   1.00
C686   C     0.16853   0.37584   0.74776   0.00000  Uiso   1.00
C687   C     0.12646   0.35507   0.74743   0.00000  Uiso   1.00
C688   C     0.12595   0.64617   0.74681   0.00000  Uiso   1.00
C689   C     0.16725   0.62354   0.74685   0.00000  Uiso   1.00
C690   C     0.29892   0.52461   0.78436   0.00000  Uiso   1.00
C691   C     0.01498   0.52515   0.78358   0.00000  Uiso   1.00
C692   C     0.14515   0.48614   0.99121   0.00000  Uiso   1.00
C693   C     0.03478   0.47606   0.71561   0.00000  Uiso   1.00
C694   C     0.31956   0.47690   0.71425   0.00000  Uiso   1.00
C695   C     0.16732   0.42075   0.74928   0.00000  Uiso   1.00
C696   C     0.19250   0.50049   0.65012   0.00000  Uiso   1.00
C697   C     0.25933   0.51574   0.50669   0.00000  Uiso   1.00
C698   C     0.20646   0.50004   0.59272   0.00000  Uiso   1.00
C699   C     0.07747   0.49780   0.93698   0.00000  Uiso   1.00
C700   C     0.06295   0.49600   0.99120   0.00000  Uiso   1.00
C701   C     0.09645   0.49537   0.51858   0.00000  Uiso   1.00
C702   C     0.15878   0.48075   0.93584   0.00000  Uiso   1.00
C703   C     0.18220   0.48701   0.51524   0.00000  Uiso   1.00
C704   C     0.22907   0.49418   0.98403   0.00000  Uiso   1.00
C705   C     0.24263   0.47852   0.93232   0.00000  Uiso   1.00
C706   C     0.20622   0.46737   0.91069   0.00000  Uiso   1.00
C707   C     0.17519   0.48178   0.56840   0.00000  Uiso   1.00
C708   C     0.24653   0.52090   0.56159   0.00000  Uiso   1.00
Cu709  Cu    0.11978   0.49999   0.75000   0.00000  Uiso   1.00
Cu710  Cu    0.21355   0.50001   0.75000   0.00000  Uiso   1.00
F711   F     0.08518   0.37529   0.74780   0.00000  Uiso   1.00
F712   F     0.08482   0.62777   0.74565   0.00000  Uiso   1.00
F713   F     0.29608   0.53684   0.97562   0.00000  Uiso   1.00
F714   F     0.13986   0.45700   0.59541   0.00000  Uiso   1.00
F715   F     0.04520   0.51106   0.91361   0.00000  Uiso   1.00
F716   F     0.01601   0.49913   0.51807   0.00000  Uiso   1.00
F717   F     0.25135   0.62280   0.74157   0.00000  Uiso   1.00
H718   H     0.06128   0.45700   0.68760   0.00000  Uiso   1.00
N719   N     0.04931   0.49999   0.74998   0.00000  Uiso   1.00
N720   N     0.28402   0.50002   0.74999   0.00000  Uiso   1.00
O721   O     0.12708   0.56011   0.75000   0.00000  Uiso   1.00
O722   O     0.20627   0.56012   0.75000   0.00000  Uiso   1.00
O723   O     0.10775   0.49998   0.82549   0.00000  Uiso   1.00
O724   O     0.18694   0.49999   0.82549   0.00000  Uiso   1.00
O725   O     0.12706   0.43988   0.74999   0.00000  Uiso   1.00
O726   O     0.20625   0.43989   0.74999   0.00000  Uiso   1.00
O727   O     0.14640   0.50001   0.67451   0.00000  Uiso   1.00
O728   O     0.22559   0.50002   0.67451   0.00000  Uiso   1.00
Br729  Br    0.61425   0.55883   0.59212   0.00000  Uiso   1.00
Br730  Br    0.60559   0.37407   0.74503   0.00000  Uiso   1.00
Br731  Br    0.58741   0.56087   0.83355   0.00000  Uiso   1.00
Br732  Br    0.36633   0.56378   0.82905   0.00000  Uiso   1.00
Br733  Br    0.64158   0.44714   0.65687   0.00000  Uiso   1.00
Br734  Br    0.64056   0.46007   0.89813   0.00000  Uiso   1.00
Br735  Br    0.40703   0.51960   0.58818   0.00000  Uiso   1.00
Br736  Br    0.54986   0.42220   0.86186   0.00000  Uiso   1.00
C737   C     0.50004   0.57903   0.74890   0.00000  Uiso   1.00
C738   C     0.45896   0.49070   0.90791   0.00000  Uiso   1.00
C739   C     0.54312   0.64383   0.74492   0.00000  Uiso   1.00
C740   C     0.47417   0.49706   0.85008   0.00000  Uiso   1.00
C741   C     0.54409   0.35270   0.74595   0.00000  Uiso   1.00
C742   C     0.50186   0.37584   0.74776   0.00000  Uiso   1.00
C743   C     0.45980   0.35507   0.74743   0.00000  Uiso   1.00
C744   C     0.45928   0.64617   0.74681   0.00000  Uiso   1.00
C745   C     0.50058   0.62354   0.74685   0.00000  Uiso   1.00
C746   C     0.63225   0.52461   0.78436   0.00000  Uiso   1.00
C747   C     0.34831   0.52515   0.78358   0.00000  Uiso   1.00
C748   C     0.47848   0.48614   0.99121   0.00000  Uiso   1.00
C749   C     0.36811   0.47606   0.71561   0.00000  Uiso   1.00
C750   C     0.65289   0.47690   0.71425   0.00000  Uiso   1.00
C751   C     0.50065   0.42075   0.74928   0.00000  Uiso   1.00
C752   C     0.52584   0.50049   0.65012   0.00000  Uiso   1.00
C753   C     0.59266   0.51574   0.50669   0.00000  Uiso   1.00
C754   C     0.53980   0.50004   0.59272   0.00000  Uiso   1.00
C755   C     0.41081   0.49780   0.93698   0.00000  Uiso   1.00
C756   C     0.39629   0.49600   0.99120   0.00000  Uiso   1.00
C757   C     0.42978   0.49537   0.51858   0.00000  Uiso   1.00
C758   C     0.49211   0.48075   0.93584   0.00000  Uiso   1.00
C759   C     0.51553   0.48701   0.51524   0.00000  Uiso   1.00
C760   C     0.56240   0.49418   0.98403   0.00000  Uiso   1.00
C761   C     0.57596   0.47852   0.93232   0.00000  Uiso   1.00
C762   C     0.53955   0.46737   0.91069   0.00000  Uiso   1.00
C763   C     0.50852   0.48178   0.56840   0.00000  Uiso   1.00
C764   C     0.57986   0.52090   0.56159   0.00000  Uiso   1.00
Cu765  Cu    0.45311   0.49999   0.75000   0.00000  Uiso   1.00
Cu766  Cu    0.54689   0.50001   0.75000   0.00000  Uiso   1.00
F767   F     0.41852   0.37529   0.74780   0.00000  Uiso   1.00
F768   F     0.41816   0.62777   0.74565   0.00000  Uiso   1.00
F769   F     0.62941   0.53684   0.97562   0.00000  Uiso   1.00
F770   F     0.47319   0.45700   0.59541   0.00000  Uiso   1.00
F771   F     0.37853   0.51106   0.91361   0.00000  Uiso   1.00
F772   F     0.34935   0.49913   0.51807   0.00000  Uiso   1.00
F773   F     0.58468   0.62280   0.74157   0.00000  Uiso   1.00
H774   H     0.39461   0.45700   0.68760   0.00000  Uiso   1.00
N775   N     0.38265   0.49999   0.74998   0.00000  Uiso   1.00
N776   N     0.61735   0.50002   0.74999   0.00000  Uiso   1.00
O777   O     0.46042   0.56011   0.75000   0.00000  Uiso   1.00
O778   O     0.53961   0.56012   0.75000   0.00000  Uiso   1.00
O779   O     0.44108   0.49998   0.82549   0.00000  Uiso   1.00
O780   O     0.52027   0.49999   0.82549   0.00000  Uiso   1.00
O781   O     0.46039   0.43988   0.74999   0.00000  Uiso   1.00
O782   O     0.53958   0.43989   0.74999   0.00000  Uiso   1.00
O783   O     0.47973   0.50001   0.67451   0.00000  Uiso   1.00
O784   O     0.55892   0.50002   0.67451   0.00000  Uiso   1.00
Br785  Br    0.94758   0.55883   0.59212   0.00000  Uiso   1.00
Br786  Br    0.93892   0.37407   0.74503   0.00000  Uiso   1.00
Br787  Br    0.92075   0.56087   0.83355   0.00000  Uiso   1.00
Br788  Br    0.69967   0.56378   0.82905   0.00000  Uiso   1.00
Br789  Br    0.97491   0.44714   0.65687   0.00000  Uiso   1.00
Br790  Br    0.97389   0.46007   0.89813   0.00000  Uiso   1.00
Br791  Br    0.74036   0.51960   0.58818   0.00000  Uiso   1.00
Br792  Br    0.88320   0.42220   0.86186   0.00000  Uiso   1.00
C793   C     0.83337   0.57903   0.74890   0.00000  Uiso   1.00
C794   C     0.79229   0.49070   0.90791   0.00000  Uiso   1.00
C795   C     0.87646   0.64383   0.74492   0.00000  Uiso   1.00
C796   C     0.80751   0.49706   0.85008   0.00000  Uiso   1.00
C797   C     0.87742   0.35270   0.74595   0.00000  Uiso   1.00
C798   C     0.83519   0.37584   0.74776   0.00000  Uiso   1.00
C799   C     0.79313   0.35507   0.74743   0.00000  Uiso   1.00
C800   C     0.79261   0.64617   0.74681   0.00000  Uiso   1.00
C801   C     0.83391   0.62354   0.74685   0.00000  Uiso   1.00
C802   C     0.96559   0.52461   0.78436   0.00000  Uiso   1.00
C803   C     0.68165   0.52515   0.78358   0.00000  Uiso   1.00
C804   C     0.81182   0.48614   0.99121   0.00000  Uiso   1.00
C805   C     0.70145   0.47606   0.71561   0.00000  Uiso   1.00
C806   C     0.98623   0.47690   0.71425   0.00000  Uiso   1.00
C807   C     0.83398   0.42075   0.74928   0.00000  Uiso   1.00
C808   C     0.85917   0.50049   0.65012   0.00000  Uiso   1.00
C809   C     0.92599   0.51574   0.50669   0.00000  Uiso   1.00
C810   C     0.87313   0.50004   0.59272   0.00000  Uiso   1.00
C811   C     0.74414   0.49780   0.93698   0.00000  Uiso   1.00
C812   C     0.72962   0.49600   0.99120   0.00000  Uiso   1.00
C813   C     0.76312   0.49537   0.51858   0.00000  Uiso   1.00
C814   C     0.82545   0.48075   0.93584   0.00000  Uiso   1.00
C815   C     0.84887   0.48701   0.51524   0.00000  Uiso   1.00
C816   C     0.89573   0.49418   0.98403   0.00000  Uiso   1.00
C817   C     0.90929   0.47852   0.93232   0.00000  Uiso   1.00
C818   C     0.87288   0.46737   0.91069   0.00000  Uiso   1.00
C819   C     0.84185   0.48178   0.56840   0.00000  Uiso   1.00
C820   C     0.91319   0.52090   0.56159   0.00000  Uiso   1.00
Cu821  Cu    0.78645   0.49999   0.75000   0.00000  Uiso   1.00
Cu822  Cu    0.88022   0.50001   0.75000   0.00000  Uiso   1.00
F823   F     0.75185   0.37529   0.74780   0.00000  Uiso   1.00
F824   F     0.75149   0.62777   0.74565   0.00000  Uiso   1.00
F825   F     0.96275   0.53684   0.97562   0.00000  Uiso   1.00
F826   F     0.80652   0.45700   0.59541   0.00000  Uiso   1.00
F827   F     0.71187   0.51106   0.91361   0.00000  Uiso   1.00
F828   F     0.68268   0.49913   0.51807   0.00000  Uiso   1.00
F829   F     0.91801   0.62280   0.74157   0.00000  Uiso   1.00
H830   H     0.72794   0.45700   0.68760   0.00000  Uiso   1.00
N831   N     0.71598   0.49999   0.74998   0.00000  Uiso   1.00
N832   N     0.95069   0.50002   0.74999   0.00000  Uiso   1.00
O833   O     0.79375   0.56011   0.75000   0.00000  Uiso   1.00
O834   O     0.87294   0.56012   0.75000   0.00000  Uiso   1.00
O835   O     0.77441   0.49998   0.82549   0.00000  Uiso   1.00
O836   O     0.85360   0.49999   0.82549   0.00000  Uiso   1.00
O837   O     0.79373   0.43988   0.74999   0.00000  Uiso   1.00
O838   O     0.87292   0.43989   0.74999   0.00000  Uiso   1.00
O839   O     0.81306   0.50001   0.67451   0.00000  Uiso   1.00
O840   O     0.89225   0.50002   0.67451   0.00000  Uiso   1.00
Br841  Br    0.28091   0.89217   0.59212   0.00000  Uiso   1.00
Br842  Br    0.27226   0.70741   0.74503   0.00000  Uiso   1.00
Br843  Br    0.25408   0.89420   0.83355   0.00000  Uiso   1.00
Br844  Br    0.03300   0.89711   0.82905   0.00000  Uiso   1.00
Br845  Br    0.30824   0.78048   0.65687   0.00000  Uiso   1.00
Br846  Br    0.30723   0.79341   0.89813   0.00000  Uiso   1.00
Br847  Br    0.07369   0.85294   0.58818   0.00000  Uiso   1.00
Br848  Br    0.21653   0.75553   0.86186   0.00000  Uiso   1.00
C849   C     0.16670   0.91237   0.74890   0.00000  Uiso   1.00
C850   C     0.12563   0.82403   0.90791   0.00000  Uiso   1.00
C851   C     0.20979   0.97717   0.74492   0.00000  Uiso   1.00
C852   C     0.14084   0.83039   0.85008   0.00000  Uiso   1.00
C853   C     0.21076   0.68603   0.74595   0.00000  Uiso   1.00
C854   C     0.16853   0.70917   0.74776   0.00000  Uiso   1.00
C855   C     0.12646   0.68841   0.74743   0.00000  Uiso   1.00
C856   C     0.12595   0.97951   0.74681   0.00000  Uiso   1.00
C857   C     0.16725   0.95687   0.74685   0.00000  Uiso   1.00
C858   C     0.29892   0.85794   0.78436   0.00000  Uiso   1.00
C859   C     0.01498   0.85849   0.78358   0.00000  Uiso   1.00
C860   C     0.14515   0.81947   0.99121   0.00000  Uiso   1.00
C861   C     0.03478   0.80939   0.71561   0.00000  Uiso   1.00
C862   C     0.31956   0.81023   0.71425   0.00000  Uiso   1.00
C863   C     0.16732   0.75408   0.74928   0.00000  Uiso   1.00
C864   C     0.19250   0.83383   0.65012   0.00000  Uiso   1.00
C865   C     0.25933   0.84907   0.50669   0.00000  Uiso   1.00
C866   C     0.20646   0.83338   0.59272   0.00000  Uiso   1.00
C867   C     0.07747   0.83113   0.93698   0.00000  Uiso   1.00
C868   C     0.06295   0.82933   0.99120   0.00000  Uiso   1.00
C869   C     0.09645   0.82870   0.51858   0.00000  Uiso   1.00
C870   C     0.15878   0.81408   0.93584   0.00000  Uiso   1.00
C871   C     0.18220   0.82034   0.51524   0.00000  Uiso   1.00
C872   C     0.22907   0.82751   0.98403   0.00000  Uiso   1.00
C873   C     0.24263   0.81186   0.93232   0.00000  Uiso   1.00
C874   C     0.20622   0.80070   0.91069   0.00000  Uiso   1.00
C875   C     0.17519   0.81511   0.56840   0.00000  Uiso   1.00
C876   C     0.24653   0.85424   0.56159   0.00000  Uiso   1.00
Cu877  Cu    0.11978   0.83333   0.75000   0.00000  Uiso   1.00
Cu878  Cu    0.21355   0.83334   0.75000   0.00000  Uiso   1.00
F879   F     0.08518   0.70862   0.74780   0.00000  Uiso   1.00
F880   F     0.08482   0.96110   0.74565   0.00000  Uiso   1.00
F881   F     0.29608   0.87018   0.97562   0.00000  Uiso   1.00
F882   F     0.13986   0.79033   0.59541   0.00000  Uiso   1.00
F883   F     0.04520   0.84440   0.91361   0.00000  Uiso   1.00
F884   F     0.01601   0.83246   0.51807   0.00000  Uiso   1.00
F885   F     0.25135   0.95613   0.74157   0.00000  Uiso   1.00
H886   H     0.06128   0.79033   0.68760   0.00000  Uiso   1.00
N887   N     0.04931   0.83332   0.74998   0.00000  Uiso   1.00
N888   N     0.28402   0.83335   0.74999   0.00000  Uiso   1.00
O889   O     0.12708   0.89345   0.75000   0.00000  Uiso   1.00
O890   O     0.20627   0.89346   0.75000   0.00000  Uiso   1.00
O891   O     0.10775   0.83332   0.82549   0.00000  Uiso   1.00
O892   O     0.18694   0.83333   0.82549   0.00000  Uiso   1.00
O893   O     0.12706   0.77321   0.74999   0.00000  Uiso   1.00
O894   O     0.20625   0.77322   0.74999   0.00000  Uiso   1.00
O895   O     0.14640   0.83334   0.67451   0.00000  Uiso   1.00
O896   O     0.22559   0.83335   0.67451   0.00000  Uiso   1.00
Br897  Br    0.61425   0.89217   0.59212   0.00000  Uiso   1.00
Br898  Br    0.60559   0.70741   0.74503   0.00000  Uiso   1.00
Br899  Br    0.58741   0.89420   0.83355   0.00000  Uiso   1.00
Br900  Br    0.36633   0.89711   0.82905   0.00000  Uiso   1.00
Br901  Br    0.64158   0.78048   0.65687   0.00000  Uiso   1.00
Br902  Br    0.64056   0.79341   0.89813   0.00000  Uiso   1.00
Br903  Br    0.40703   0.85294   0.58818   0.00000  Uiso   1.00
Br904  Br    0.54986   0.75553   0.86186   0.00000  Uiso   1.00
C905   C     0.50004   0.91237   0.74890   0.00000  Uiso   1.00
C906   C     0.45896   0.82403   0.90791   0.00000  Uiso   1.00
C907   C     0.54312   0.97717   0.74492   0.00000  Uiso   1.00
C908   C     0.47417   0.83039   0.85008   0.00000  Uiso   1.00
C909   C     0.54409   0.68603   0.74595   0.00000  Uiso   1.00
C910   C     0.50186   0.70917   0.74776   0.00000  Uiso   1.00
C911   C     0.45980   0.68841   0.74743   0.00000  Uiso   1.00
C912   C     0.45928   0.97951   0.74681   0.00000  Uiso   1.00
C913   C     0.50058   0.95687   0.74685   0.00000  Uiso   1.00
C914   C     0.63225   0.85794   0.78436   0.00000  Uiso   1.00
C915   C     0.34831   0.85849   0.78358   0.00000  Uiso   1.00
C916   C     0.47848   0.81947   0.99121   0.00000  Uiso   1.00
C917   C     0.36811   0.80939   0.71561   0.00000  Uiso   1.00
C918   C     0.65289   0.81023   0.71425   0.00000  Uiso   1.00
C919   C     0.50065   0.75408   0.74928   0.00000  Uiso   1.00
C920   C     0.52584   0.83383   0.65012   0.00000  Uiso   1.00
C921   C     0.59266   0.84907   0.50669   0.00000  Uiso   1.00
C922   C     0.53980   0.83338   0.59272   0.00000  Uiso   1.00
C923   C     0.41081   0.83113   0.93698   0.00000  Uiso   1.00
C924   C     0.39629   0.82933   0.99120   0.00000  Uiso   1.00
C925   C     0.42978   0.82870   0.51858   0.00000  Uiso   1.00
C926   C     0.49211   0.81408   0.93584   0.00000  Uiso   1.00
C927   C     0.51553   0.82034   0.51524   0.00000  Uiso   1.00
C928   C     0.56240   0.82751   0.98403   0.00000  Uiso   1.00
C929   C     0.57596   0.81186   0.93232   0.00000  Uiso   1.00
C930   C     0.53955   0.80070   0.91069   0.00000  Uiso   1.00
C931   C     0.50852   0.81511   0.56840   0.00000  Uiso   1.00
C932   C     0.57986   0.85424   0.56159   0.00000  Uiso   1.00
Cu933  Cu    0.45311   0.83333   0.75000   0.00000  Uiso   1.00
Cu934  Cu    0.54689   0.83334   0.75000   0.00000  Uiso   1.00
F935   F     0.41852   0.70862   0.74780   0.00000  Uiso   1.00
F936   F     0.41816   0.96110   0.74565   0.00000  Uiso   1.00
F937   F     0.62941   0.87018   0.97562   0.00000  Uiso   1.00
F938   F     0.47319   0.79033   0.59541   0.00000  Uiso   1.00
F939   F     0.37853   0.84440   0.91361   0.00000  Uiso   1.00
F940   F     0.34935   0.83246   0.51807   0.00000  Uiso   1.00
F941   F     0.58468   0.95613   0.74157   0.00000  Uiso   1.00
H942   H     0.39461   0.79033   0.68760   0.00000  Uiso   1.00
N943   N     0.38265   0.83332   0.74998   0.00000  Uiso   1.00
N944   N     0.61735   0.83335   0.74999   0.00000  Uiso   1.00
O945   O     0.46042   0.89345   0.75000   0.00000  Uiso   1.00
O946   O     0.53961   0.89346   0.75000   0.00000  Uiso   1.00
O947   O     0.44108   0.83332   0.82549   0.00000  Uiso   1.00
O948   O     0.52027   0.83333   0.82549   0.00000  Uiso   1.00
O949   O     0.46039   0.77321   0.74999   0.00000  Uiso   1.00
O950   O     0.53958   0.77322   0.74999   0.00000  Uiso   1.00
O951   O     0.47973   0.83334   0.67451   0.00000  Uiso   1.00
O952   O     0.55892   0.83335   0.67451   0.00000  Uiso   1.00
Br953  Br    0.94758   0.89217   0.59212   0.00000  Uiso   1.00
Br954  Br    0.93892   0.70741   0.74503   0.00000  Uiso   1.00
Br955  Br    0.92075   0.89420   0.83355   0.00000  Uiso   1.00
Br956  Br    0.69967   0.89711   0.82905   0.00000  Uiso   1.00
Br957  Br    0.97491   0.78048   0.65687   0.00000  Uiso   1.00
Br958  Br    0.97389   0.79341   0.89813   0.00000  Uiso   1.00
Br959  Br    0.74036   0.85294   0.58818   0.00000  Uiso   1.00
Br960  Br    0.88320   0.75553   0.86186   0.00000  Uiso   1.00
C961   C     0.83337   0.91237   0.74890   0.00000  Uiso   1.00
C962   C     0.79229   0.82403   0.90791   0.00000  Uiso   1.00
C963   C     0.87646   0.97717   0.74492   0.00000  Uiso   1.00
C964   C     0.80751   0.83039   0.85008   0.00000  Uiso   1.00
C965   C     0.87742   0.68603   0.74595   0.00000  Uiso   1.00
C966   C     0.83519   0.70917   0.74776   0.00000  Uiso   1.00
C967   C     0.79313   0.68841   0.74743   0.00000  Uiso   1.00
C968   C     0.79261   0.97951   0.74681   0.00000  Uiso   1.00
C969   C     0.83391   0.95687   0.74685   0.00000  Uiso   1.00
C970   C     0.96559   0.85794   0.78436   0.00000  Uiso   1.00
C971   C     0.68165   0.85849   0.78358   0.00000  Uiso   1.00
C972   C     0.81182   0.81947   0.99121   0.00000  Uiso   1.00
C973   C     0.70145   0.80939   0.71561   0.00000  Uiso   1.00
C974   C     0.98623   0.81023   0.71425   0.00000  Uiso   1.00
C975   C     0.83398   0.75408   0.74928   0.00000  Uiso   1.00
C976   C     0.85917   0.83383   0.65012   0.00000  Uiso   1.00
C977   C     0.92599   0.84907   0.50669   0.00000  Uiso   1.00
C978   C     0.87313   0.83338   0.59272   0.00000  Uiso   1.00
C979   C     0.74414   0.83113   0.93698   0.00000  Uiso   1.00
C980   C     0.72962   0.82933   0.99120   0.00000  Uiso   1.00
C981   C     0.76312   0.82870   0.51858   0.00000  Uiso   1.00
C982   C     0.82545   0.81408   0.93584   0.00000  Uiso   1.00
C983   C     0.84887   0.82034   0.51524   0.00000  Uiso   1.00
C984   C     0.89573   0.82751   0.98403   0.00000  Uiso   1.00
C985   C     0.90929   0.81186   0.93232   0.00000  Uiso   1.00
C986   C     0.87288   0.80070   0.91069   0.00000  Uiso   1.00
C987   C     0.84185   0.81511   0.56840   0.00000  Uiso   1.00
C988   C     0.91319   0.85424   0.56159   0.00000  Uiso   1.00
Cu989  Cu    0.78645   0.83333   0.75000   0.00000  Uiso   1.00
Cu990  Cu    0.88022   0.83334   0.75000   0.00000  Uiso   1.00
F991   F     0.75185   0.70862   0.74780   0.00000  Uiso   1.00
F992   F     0.75149   0.96110   0.74565   0.00000  Uiso   1.00
F993   F     0.96275   0.87018   0.97562   0.00000  Uiso   1.00
F994   F     0.80652   0.79033   0.59541   0.00000  Uiso   1.00
F995   F     0.71187   0.84440   0.91361   0.00000  Uiso   1.00
F996   F     0.68268   0.83246   0.51807   0.00000  Uiso   1.00
F997   F     0.91801   0.95613   0.74157   0.00000  Uiso   1.00
H998   H     0.72794   0.79033   0.68760   0.00000  Uiso   1.00
N999   N     0.71598   0.83332   0.74998   0.00000  Uiso   1.00
N1000  N     0.95069   0.83335   0.74999   0.00000  Uiso   1.00
O1001  O     0.79375   0.89345   0.75000   0.00000  Uiso   1.00
O1002  O     0.87294   0.89346   0.75000   0.00000  Uiso   1.00
O1003  O     0.77441   0.83332   0.82549   0.00000  Uiso   1.00
O1004  O     0.85360   0.83333   0.82549   0.00000  Uiso   1.00
O1005  O     0.79373   0.77321   0.74999   0.00000  Uiso   1.00
O1006  O     0.87292   0.77322   0.74999   0.00000  Uiso   1.00
O1007  O     0.81306   0.83334   0.67451   0.00000  Uiso   1.00
O1008  O     0.89225   0.83335   0.67451   0.00000  Uiso   1.00
loop_
_geom_bond_atom_site_label_1
_geom_bond_atom_site_label_2
_geom_bond_distance
_geom_bond_site_symmetry_2
_ccdc_geom_bond_type
Br1    C36     1.924   .     S
Br2    C13     1.926   .     S
Br3    C18     1.929   .     S
Br4    C19     1.923   .     S
Br5    C22     1.916   .     S
Br6    C33     1.913   .     S
Br7    C29     1.933   .     S
Br8    C34     1.915   .     S
C9     O49     1.311   .     A
C9     C17     1.461   .     S
C9     O50     1.306   .     A
C10    C27     1.400   .     A
C10    C30     1.421   .     A
C10    C12     1.499   .     S
C11    F45     1.360   .     S
C11    C17     1.403   .     A
C11    C181    1.384   .     S
C12    O52     1.314   .     A
C12    O51     1.320   .     A
C13    C14     1.421   .     A
C13    C347    1.384   1_545 S
C14    C23     1.472   .     S
C14    C15     1.413   .     A
C15    F39     1.359   .     S
C15    C352    1.385   1_545 S
C16    F40     1.357   .     S
C16    C17     1.401   .     A
C16    C183    1.385   .     S
C18    N48     1.379   .     A
C18    C75     1.431   .     S
C19    N47     1.378   .     A
C19    C130    1.431   1_455 S
C20    C30     1.423   .     A
C20    C533    1.414   .     S
C20    C535    1.409   .     S
C21    H46     1.082   .     S
C21    N47     1.362   .     A
C21    C134    1.423   1_455 S
C22    N48     1.385   .     A
C22    C77     1.423   .     S
C23    O54     1.309   .     A
C23    O53     1.314   .     A
C24    O56     1.313   .     A
C24    O55     1.307   .     A
C24    C26     1.468   .     S
C25    C36     1.411   .     A
C25    C536    1.401   1_554 S
C25    F545    1.355   1_554 S
C26    C35     1.401   .     A
C26    C36     1.413   .     A
C27    F43     1.343   .     S
C27    C28     1.389   .     A
C28    C533    1.381   .     S
C28    F548    1.343   .     S
C29    C532    1.381   1_554 S
C29    C524    1.414   1_554 S
C30    C34     1.403   .     A
C31    C35     1.391   .     A
C31    C524    1.409   1_554 S
C31    C536    1.399   1_554 S
C32    C33     1.406   .     A
C32    C535    1.399   .     S
C32    C529    1.401   .     S
C33    C34     1.399   .     A
C35    F42     1.361   .     S
Cu37   Cu38    2.728   .     S
Cu37   O49     1.986   .     S
Cu37   O53     1.978   .     S
Cu37   O51     1.946   .     S
Cu37   N47     2.050   .     S
Cu37   O55     1.938   .     S
Cu38   N48     2.050   .     S
Cu38   O54     1.986   .     S
Cu38   O50     1.978   .     S
Cu38   O52     1.938   .     S
Cu38   O56     1.946   .     S
F41    C529    1.355   .     S
F44    C532    1.343   1_554 S
Br57   C92     1.924   .     S
Br58   C69     1.926   .     S
Br59   C74     1.929   .     S
Br60   C75     1.923   .     S
Br61   C78     1.916   .     S
Br62   C89     1.913   .     S
Br63   C85     1.933   .     S
Br64   C90     1.915   .     S
C65    O105    1.311   .     A
C65    C73     1.461   .     S
C65    O106    1.306   .     A
C66    C83     1.400   .     A
C66    C86     1.421   .     A
C66    C68     1.499   .     S
C67    F101    1.360   .     S
C67    C73     1.403   .     A
C67    C237    1.384   .     S
C68    O108    1.314   .     A
C68    O107    1.320   .     A
C69    C70     1.421   .     A
C69    C403    1.384   1_545 S
C70    C79     1.472   .     S
C70    C71     1.413   .     A
C71    F95     1.359   .     S
C71    C408    1.385   1_545 S
C72    F96     1.357   .     S
C72    C73     1.401   .     A
C72    C239    1.385   .     S
C74    N104    1.379   .     A
C74    C131    1.431   .     S
C75    N103    1.378   .     A
C76    C86     1.423   .     A
C76    C589    1.414   .     S
C76    C591    1.409   .     S
C77    H102    1.082   .     S
C77    N103    1.362   .     A
C78    N104    1.385   .     A
C78    C133    1.423   .     S
C79    O110    1.309   .     A
C79    O109    1.314   .     A
C80    O112    1.313   .     A
C80    O111    1.307   .     A
C80    C82     1.468   .     S
C81    C92     1.411   .     A
C81    C592    1.401   1_554 S
C81    F601    1.355   1_554 S
C82    C91     1.401   .     A
C82    C92     1.413   .     A
C83    F99     1.343   .     S
C83    C84     1.389   .     A
C84    C589    1.381   .     S
C84    F604    1.343   .     S
C85    C588    1.381   1_554 S
C85    C580    1.414   1_554 S
C86    C90     1.403   .     A
C87    C91     1.391   .     A
C87    C580    1.409   1_554 S
C87    C592    1.399   1_554 S
C88    C89     1.406   .     A
C88    C591    1.399   .     S
C88    C585    1.401   .     S
C89    C90     1.399   .     A
C91    F98     1.361   .     S
Cu93   Cu94    2.728   .     S
Cu93   O105    1.986   .     S
Cu93   O109    1.978   .     S
Cu93   O107    1.946   .     S
Cu93   N103    2.050   .     S
Cu93   O111    1.938   .     S
Cu94   N104    2.050   .     S
Cu94   O110    1.986   .     S
Cu94   O106    1.978   .     S
Cu94   O108    1.938   .     S
Cu94   O112    1.946   .     S
F97    C585    1.355   .     S
F100   C588    1.343   1_554 S
Br113  C148    1.924   .     S
Br114  C125    1.926   .     S
Br115  C130    1.929   .     S
Br116  C131    1.923   .     S
Br117  C134    1.916   .     S
Br118  C145    1.913   .     S
Br119  C141    1.933   .     S
Br120  C146    1.915   .     S
C121   O161    1.311   .     A
C121   C129    1.461   .     S
C121   O162    1.306   .     A
C122   C139    1.400   .     A
C122   C142    1.421   .     A
C122   C124    1.499   .     S
C123   F157    1.360   .     S
C123   C129    1.403   .     A
C123   C293    1.384   .     S
C124   O164    1.314   .     A
C124   O163    1.320   .     A
C125   C126    1.421   .     A
C125   C459    1.384   1_545 S
C126   C135    1.472   .     S
C126   C127    1.413   .     A
C127   F151    1.359   .     S
C127   C464    1.385   1_545 S
C128   F152    1.357   .     S
C128   C129    1.401   .     A
C128   C295    1.385   .     S
C130   N160    1.379   .     A
C130   C19     1.431   1_655 S
C131   N159    1.378   .     A
C132   C142    1.423   .     A
C132   C645    1.414   .     S
C132   C647    1.409   .     S
C133   H158    1.082   .     S
C133   N159    1.362   .     A
C134   N160    1.385   .     A
C134   C21     1.423   1_655 S
C135   O166    1.309   .     A
C135   O165    1.314   .     A
C136   O168    1.313   .     A
C136   O167    1.307   .     A
C136   C138    1.468   .     S
C137   C148    1.411   .     A
C137   C648    1.401   1_554 S
C137   F657    1.355   1_554 S
C138   C147    1.401   .     A
C138   C148    1.413   .     A
C139   F155    1.343   .     S
C139   C140    1.389   .     A
C140   C645    1.381   .     S
C140   F660    1.343   .     S
C141   C644    1.381   1_554 S
C141   C636    1.414   1_554 S
C142   C146    1.403   .     A
C143   C147    1.391   .     A
C143   C636    1.409   1_554 S
C143   C648    1.399   1_554 S
C144   C145    1.406   .     A
C144   C647    1.399   .     S
C144   C641    1.401   .     S
C145   C146    1.399   .     A
C147   F154    1.361   .     S
Cu149  Cu150   2.728   .     S
Cu149  O161    1.986   .     S
Cu149  O165    1.978   .     S
Cu149  O163    1.946   .     S
Cu149  N159    2.050   .     S
Cu149  O167    1.938   .     S
Cu150  N160    2.050   .     S
Cu150  O166    1.986   .     S
Cu150  O162    1.978   .     S
Cu150  O164    1.938   .     S
Cu150  O168    1.946   .     S
F153   C641    1.355   .     S
F156   C644    1.343   1_554 S
Br169  C204    1.924   .     S
Br170  C181    1.926   .     S
Br171  C186    1.929   .     S
Br172  C187    1.923   .     S
Br173  C190    1.916   .     S
Br174  C201    1.913   .     S
Br175  C197    1.933   .     S
Br176  C202    1.915   .     S
C177   O217    1.311   .     A
C177   C185    1.461   .     S
C177   O218    1.306   .     A
C178   C195    1.400   .     A
C178   C198    1.421   .     A
C178   C180    1.499   .     S
C179   F213    1.360   .     S
C179   C185    1.403   .     A
C179   C349    1.384   .     S
C180   O220    1.314   .     A
C180   O219    1.320   .     A
C181   C182    1.421   .     A
C182   C191    1.472   .     S
C182   C183    1.413   .     A
C183   F207    1.359   .     S
C184   F208    1.357   .     S
C184   C185    1.401   .     A
C184   C351    1.385   .     S
C186   N216    1.379   .     A
C186   C243    1.431   .     S
C187   N215    1.378   .     A
C187   C298    1.431   1_455 S
C188   C198    1.423   .     A
C188   C701    1.414   .     S
C188   C703    1.409   .     S
C189   H214    1.082   .     S
C189   N215    1.362   .     A
C189   C302    1.423   1_455 S
C190   N216    1.385   .     A
C190   C245    1.423   .     S
C191   O222    1.309   .     A
C191   O221    1.314   .     A
C192   O224    1.313   .     A
C192   O223    1.307   .     A
C192   C194    1.468   .     S
C193   C204    1.411   .     A
C193   C704    1.401   1_554 S
C193   F713    1.355   1_554 S
C194   C203    1.401   .     A
C194   C204    1.413   .     A
C195   F211    1.343   .     S
C195   C196    1.389   .     A
C196   C701    1.381   .     S
C196   F716    1.343   .     S
C197   C700    1.381   1_554 S
C197   C692    1.414   1_554 S
C198   C202    1.403   .     A
C199   C203    1.391   .     A
C199   C692    1.409   1_554 S
C199   C704    1.399   1_554 S
C200   C201    1.406   .     A
C200   C703    1.399   .     S
C200   C697    1.401   .     S
C201   C202    1.399   .     A
C203   F210    1.361   .     S
Cu205  Cu206   2.728   .     S
Cu205  O217    1.986   .     S
Cu205  O221    1.978   .     S
Cu205  O219    1.946   .     S
Cu205  N215    2.050   .     S
Cu205  O223    1.938   .     S
Cu206  N216    2.050   .     S
Cu206  O222    1.986   .     S
Cu206  O218    1.978   .     S
Cu206  O220    1.938   .     S
Cu206  O224    1.946   .     S
F209   C697    1.355   .     S
F212   C700    1.343   1_554 S
Br225  C260    1.924   .     S
Br226  C237    1.926   .     S
Br227  C242    1.929   .     S
Br228  C243    1.923   .     S
Br229  C246    1.916   .     S
Br230  C257    1.913   .     S
Br231  C253    1.933   .     S
Br232  C258    1.915   .     S
C233   O273    1.311   .     A
C233   C241    1.461   .     S
C233   O274    1.306   .     A
C234   C251    1.400   .     A
C234   C254    1.421   .     A
C234   C236    1.499   .     S
C235   F269    1.360   .     S
C235   C241    1.403   .     A
C235   C405    1.384   .     S
C236   O276    1.314   .     A
C236   O275    1.320   .     A
C237   C238    1.421   .     A
C238   C247    1.472   .     S
C238   C239    1.413   .     A
C239   F263    1.359   .     S
C240   F264    1.357   .     S
C240   C241    1.401   .     A
C240   C407    1.385   .     S
C242   N272    1.379   .     A
C242   C299    1.431   .     S
C243   N271    1.378   .     A
C244   C254    1.423   .     A
C244   C757    1.414   .     S
C244   C759    1.409   .     S
C245   H270    1.082   .     S
C245   N271    1.362   .     A
C246   N272    1.385   .     A
C246   C301    1.423   .     S
C247   O278    1.309   .     A
C247   O277    1.314   .     A
C248   O280    1.313   .     A
C248   O279    1.307   .     A
C248   C250    1.468   .     S
C249   C260    1.411   .     A
C249   C760    1.401   1_554 S
C249   F769    1.355   1_554 S
C250   C259    1.401   .     A
C250   C260    1.413   .     A
C251   F267    1.343   .     S
C251   C252    1.389   .     A
C252   C757    1.381   .     S
C252   F772    1.343   .     S
C253   C756    1.381   1_554 S
C253   C748    1.414   1_554 S
C254   C258    1.403   .     A
C255   C259    1.391   .     A
C255   C748    1.409   1_554 S
C255   C760    1.399   1_554 S
C256   C257    1.406   .     A
C256   C759    1.399   .     S
C256   C753    1.401   .     S
C257   C258    1.399   .     A
C259   F266    1.361   .     S
Cu261  Cu262   2.728   .     S
Cu261  O273    1.986   .     S
Cu261  O277    1.978   .     S
Cu261  O275    1.946   .     S
Cu261  N271    2.050   .     S
Cu261  O279    1.938   .     S
Cu262  N272    2.050   .     S
Cu262  O278    1.986   .     S
Cu262  O274    1.978   .     S
Cu262  O276    1.938   .     S
Cu262  O280    1.946   .     S
F265   C753    1.355   .     S
F268   C756    1.343   1_554 S
Br281  C316    1.924   .     S
Br282  C293    1.926   .     S
Br283  C298    1.929   .     S
Br284  C299    1.923   .     S
Br285  C302    1.916   .     S
Br286  C313    1.913   .     S
Br287  C309    1.933   .     S
Br288  C314    1.915   .     S
C289   O329    1.311   .     A
C289   C297    1.461   .     S
C289   O330    1.306   .     A
C290   C307    1.400   .     A
C290   C310    1.421   .     A
C290   C292    1.499   .     S
C291   F325    1.360   .     S
C291   C297    1.403   .     A
C291   C461    1.384   .     S
C292   O332    1.314   .     A
C292   O331    1.320   .     A
C293   C294    1.421   .     A
C294   C303    1.472   .     S
C294   C295    1.413   .     A
C295   F319    1.359   .     S
C296   F320    1.357   .     S
C296   C297    1.401   .     A
C296   C463    1.385   .     S
C298   N328    1.379   .     A
C298   C187    1.431   1_655 S
C299   N327    1.378   .     A
C300   C310    1.423   .     A
C300   C813    1.414   .     S
C300   C815    1.409   .     S
C301   H326    1.082   .     S
C301   N327    1.362   .     A
C302   N328    1.385   .     A
C302   C189    1.423   1_655 S
C303   O334    1.309   .     A
C303   O333    1.314   .     A
C304   O336    1.313   .     A
C304   O335    1.307   .     A
C304   C306    1.468   .     S
C305   C316    1.411   .     A
C305   C816    1.401   1_554 S
C305   F825    1.355   1_554 S
C306   C315    1.401   .     A
C306   C316    1.413   .     A
C307   F323    1.343   .     S
C307   C308    1.389   .     A
C308   C813    1.381   .     S
C308   F828    1.343   .     S
C309   C812    1.381   1_554 S
C309   C804    1.414   1_554 S
C310   C314    1.403   .     A
C311   C315    1.391   .     A
C311   C804    1.409   1_554 S
C311   C816    1.399   1_554 S
C312   C313    1.406   .     A
C312   C815    1.399   .     S
C312   C809    1.401   .     S
C313   C314    1.399   .     A
C315   F322    1.361   .     S
Cu317  Cu318   2.728   .     S
Cu317  O329    1.986   .     S
Cu317  O333    1.978   .     S
Cu317  O331    1.946   .     S
Cu317  N327    2.050   .     S
Cu317  O335    1.938   .     S
Cu318  N328    2.050   .     S
Cu318  O334    1.986   .     S
Cu318  O330    1.978   .     S
Cu318  O332    1.938   .     S
Cu318  O336    1.946   .     S
F321   C809    1.355   .     S
F324   C812    1.343   1_554 S
Br337  C372    1.924   .     S
Br338  C349    1.926   .     S
Br339  C354    1.929   .     S
Br340  C355    1.923   .     S
Br341  C358    1.916   .     S
Br342  C369    1.913   .     S
Br343  C365    1.933   .     S
Br344  C370    1.915   .     S
C345   O385    1.311   .     A
C345   C353    1.461   .     S
C345   O386    1.306   .     A
C346   C363    1.400   .     A
C346   C366    1.421   .     A
C346   C348    1.499   .     S
C347   F381    1.360   .     S
C347   C353    1.403   .     A
C347   C13     1.384   1_565 S
C348   O388    1.314   .     A
C348   O387    1.320   .     A
C349   C350    1.421   .     A
C350   C359    1.472   .     S
C350   C351    1.413   .     A
C351   F375    1.359   .     S
C352   F376    1.357   .     S
C352   C353    1.401   .     A
C352   C15     1.385   1_565 S
C354   N384    1.379   .     A
C354   C411    1.431   .     S
C355   N383    1.378   .     A
C355   C466    1.431   1_455 S
C356   C366    1.423   .     A
C356   C869    1.414   .     S
C356   C871    1.409   .     S
C357   H382    1.082   .     S
C357   N383    1.362   .     A
C357   C470    1.423   1_455 S
C358   N384    1.385   .     A
C358   C413    1.423   .     S
C359   O390    1.309   .     A
C359   O389    1.314   .     A
C360   O392    1.313   .     A
C360   O391    1.307   .     A
C360   C362    1.468   .     S
C361   C372    1.411   .     A
C361   C872    1.401   1_554 S
C361   F881    1.355   1_554 S
C362   C371    1.401   .     A
C362   C372    1.413   .     A
C363   F379    1.343   .     S
C363   C364    1.389   .     A
C364   C869    1.381   .     S
C364   F884    1.343   .     S
C365   C868    1.381   1_554 S
C365   C860    1.414   1_554 S
C366   C370    1.403   .     A
C367   C371    1.391   .     A
C367   C860    1.409   1_554 S
C367   C872    1.399   1_554 S
C368   C369    1.406   .     A
C368   C871    1.399   .     S
C368   C865    1.401   .     S
C369   C370    1.399   .     A
C371   F378    1.361   .     S
Cu373  Cu374   2.728   .     S
Cu373  O385    1.986   .     S
Cu373  O389    1.978   .     S
Cu373  O387    1.946   .     S
Cu373  N383    2.050   .     S
Cu373  O391    1.938   .     S
Cu374  N384    2.050   .     S
Cu374  O390    1.986   .     S
Cu374  O386    1.978   .     S
Cu374  O388    1.938   .     S
Cu374  O392    1.946   .     S
F377   C865    1.355   .     S
F380   C868    1.343   1_554 S
Br393  C428    1.924   .     S
Br394  C405    1.926   .     S
Br395  C410    1.929   .     S
Br396  C411    1.923   .     S
Br397  C414    1.916   .     S
Br398  C425    1.913   .     S
Br399  C421    1.933   .     S
Br400  C426    1.915   .     S
C401   O441    1.311   .     A
C401   C409    1.461   .     S
C401   O442    1.306   .     A
C402   C419    1.400   .     A
C402   C422    1.421   .     A
C402   C404    1.499   .     S
C403   F437    1.360   .     S
C403   C409    1.403   .     A
C403   C69     1.384   1_565 S
C404   O444    1.314   .     A
C404   O443    1.320   .     A
C405   C406    1.421   .     A
C406   C415    1.472   .     S
C406   C407    1.413   .     A
C407   F431    1.359   .     S
C408   F432    1.357   .     S
C408   C409    1.401   .     A
C408   C71     1.385   1_565 S
C410   N440    1.379   .     A
C410   C467    1.431   .     S
C411   N439    1.378   .     A
C412   C422    1.423   .     A
C412   C925    1.414   .     S
C412   C927    1.409   .     S
C413   H438    1.082   .     S
C413   N439    1.362   .     A
C414   N440    1.385   .     A
C414   C469    1.423   .     S
C415   O446    1.309   .     A
C415   O445    1.314   .     A
C416   O448    1.313   .     A
C416   O447    1.307   .     A
C416   C418    1.468   .     S
C417   C428    1.411   .     A
C417   C928    1.401   1_554 S
C417   F937    1.355   1_554 S
C418   C427    1.401   .     A
C418   C428    1.413   .     A
C419   F435    1.343   .     S
C419   C420    1.389   .     A
C420   C925    1.381   .     S
C420   F940    1.343   .     S
C421   C924    1.381   1_554 S
C421   C916    1.414   1_554 S
C422   C426    1.403   .     A
C423   C427    1.391   .     A
C423   C916    1.409   1_554 S
C423   C928    1.399   1_554 S
C424   C425    1.406   .     A
C424   C927    1.399   .     S
C424   C921    1.401   .     S
C425   C426    1.399   .     A
C427   F434    1.361   .     S
Cu429  Cu430   2.728   .     S
Cu429  O441    1.986   .     S
Cu429  O445    1.978   .     S
Cu429  O443    1.946   .     S
Cu429  N439    2.050   .     S
Cu429  O447    1.938   .     S
Cu430  N440    2.050   .     S
Cu430  O446    1.986   .     S
Cu430  O442    1.978   .     S
Cu430  O444    1.938   .     S
Cu430  O448    1.946   .     S
F433   C921    1.355   .     S
F436   C924    1.343   1_554 S
Br449  C484    1.924   .     S
Br450  C461    1.926   .     S
Br451  C466    1.929   .     S
Br452  C467    1.923   .     S
Br453  C470    1.916   .     S
Br454  C481    1.913   .     S
Br455  C477    1.933   .     S
Br456  C482    1.915   .     S
C457   O497    1.311   .     A
C457   C465    1.461   .     S
C457   O498    1.306   .     A
C458   C475    1.400   .     A
C458   C478    1.421   .     A
C458   C460    1.499   .     S
C459   F493    1.360   .     S
C459   C465    1.403   .     A
C459   C125    1.384   1_565 S
C460   O500    1.314   .     A
C460   O499    1.320   .     A
C461   C462    1.421   .     A
C462   C471    1.472   .     S
C462   C463    1.413   .     A
C463   F487    1.359   .     S
C464   F488    1.357   .     S
C464   C465    1.401   .     A
C464   C127    1.385   1_565 S
C466   N496    1.379   .     A
C466   C355    1.431   1_655 S
C467   N495    1.378   .     A
C468   C478    1.423   .     A
C468   C981    1.414   .     S
C468   C983    1.409   .     S
C469   H494    1.082   .     S
C469   N495    1.362   .     A
C470   N496    1.385   .     A
C470   C357    1.423   1_655 S
C471   O502    1.309   .     A
C471   O501    1.314   .     A
C472   O504    1.313   .     A
C472   O503    1.307   .     A
C472   C474    1.468   .     S
C473   C484    1.411   .     A
C473   C984    1.401   1_554 S
C473   F993    1.355   1_554 S
C474   C483    1.401   .     A
C474   C484    1.413   .     A
C475   F491    1.343   .     S
C475   C476    1.389   .     A
C476   C981    1.381   .     S
C476   F996    1.343   .     S
C477   C980    1.381   1_554 S
C477   C972    1.414   1_554 S
C478   C482    1.403   .     A
C479   C483    1.391   .     A
C479   C972    1.409   1_554 S
C479   C984    1.399   1_554 S
C480   C481    1.406   .     A
C480   C983    1.399   .     S
C480   C977    1.401   .     S
C481   C482    1.399   .     A
C483   F490    1.361   .     S
Cu485  Cu486   2.728   .     S
Cu485  O497    1.986   .     S
Cu485  O501    1.978   .     S
Cu485  O499    1.946   .     S
Cu485  N495    2.050   .     S
Cu485  O503    1.938   .     S
Cu486  N496    2.050   .     S
Cu486  O502    1.986   .     S
Cu486  O498    1.978   .     S
Cu486  O500    1.938   .     S
Cu486  O504    1.946   .     S
F489   C977    1.355   .     S
F492   C980    1.343   1_554 S
Br505  C540    1.924   .     S
Br506  C517    1.926   .     S
Br507  C522    1.929   .     S
Br508  C523    1.923   .     S
Br509  C526    1.916   .     S
Br510  C537    1.913   .     S
Br511  C533    1.933   .     S
Br512  C538    1.915   .     S
C513   O553    1.311   .     A
C513   C521    1.461   .     S
C513   O554    1.306   .     A
C514   C531    1.400   .     A
C514   C534    1.421   .     A
C514   C516    1.499   .     S
C515   F549    1.360   .     S
C515   C521    1.403   .     A
C515   C685    1.384   .     S
C516   O556    1.314   .     A
C516   O555    1.320   .     A
C517   C518    1.421   .     A
C517   C851    1.384   1_545 S
C518   C527    1.472   .     S
C518   C519    1.413   .     A
C519   F543    1.359   .     S
C519   C856    1.385   1_545 S
C520   F544    1.357   .     S
C520   C521    1.401   .     A
C520   C687    1.385   .     S
C522   N552    1.379   .     A
C522   C579    1.431   .     S
C523   N551    1.378   .     A
C523   C634    1.431   1_455 S
C524   C534    1.423   .     A
C524   C29     1.414   1_556 S
C524   C31     1.409   1_556 S
C525   H550    1.082   .     S
C525   N551    1.362   .     A
C525   C638    1.423   1_455 S
C526   N552    1.385   .     A
C526   C581    1.423   .     S
C527   O558    1.309   .     A
C527   O557    1.314   .     A
C528   O560    1.313   .     A
C528   O559    1.307   .     A
C528   C530    1.468   .     S
C529   C540    1.411   .     A
C530   C539    1.401   .     A
C530   C540    1.413   .     A
C531   F547    1.343   .     S
C531   C532    1.389   .     A
C532   C29     1.381   1_556 S
C532   F44     1.343   1_556 S
C534   C538    1.403   .     A
C535   C539    1.391   .     A
C536   C537    1.406   .     A
C536   C31     1.399   1_556 S
C536   C25     1.401   1_556 S
C537   C538    1.399   .     A
C539   F546    1.361   .     S
Cu541  Cu542   2.728   .     S
Cu541  O553    1.986   .     S
Cu541  O557    1.978   .     S
Cu541  O555    1.946   .     S
Cu541  N551    2.050   .     S
Cu541  O559    1.938   .     S
Cu542  N552    2.050   .     S
Cu542  O558    1.986   .     S
Cu542  O554    1.978   .     S
Cu542  O556    1.938   .     S
Cu542  O560    1.946   .     S
F545   C25     1.355   1_556 S
Br561  C596    1.924   .     S
Br562  C573    1.926   .     S
Br563  C578    1.929   .     S
Br564  C579    1.923   .     S
Br565  C582    1.916   .     S
Br566  C593    1.913   .     S
Br567  C589    1.933   .     S
Br568  C594    1.915   .     S
C569   O609    1.311   .     A
C569   C577    1.461   .     S
C569   O610    1.306   .     A
C570   C587    1.400   .     A
C570   C590    1.421   .     A
C570   C572    1.499   .     S
C571   F605    1.360   .     S
C571   C577    1.403   .     A
C571   C741    1.384   .     S
C572   O612    1.314   .     A
C572   O611    1.320   .     A
C573   C574    1.421   .     A
C573   C907    1.384   1_545 S
C574   C583    1.472   .     S
C574   C575    1.413   .     A
C575   F599    1.359   .     S
C575   C912    1.385   1_545 S
C576   F600    1.357   .     S
C576   C577    1.401   .     A
C576   C743    1.385   .     S
C578   N608    1.379   .     A
C578   C635    1.431   .     S
C579   N607    1.378   .     A
C580   C590    1.423   .     A
C580   C85     1.414   1_556 S
C580   C87     1.409   1_556 S
C581   H606    1.082   .     S
C581   N607    1.362   .     A
C582   N608    1.385   .     A
C582   C637    1.423   .     S
C583   O614    1.309   .     A
C583   O613    1.314   .     A
C584   O616    1.313   .     A
C584   O615    1.307   .     A
C584   C586    1.468   .     S
C585   C596    1.411   .     A
C586   C595    1.401   .     A
C586   C596    1.413   .     A
C587   F603    1.343   .     S
C587   C588    1.389   .     A
C588   C85     1.381   1_556 S
C588   F100    1.343   1_556 S
C590   C594    1.403   .     A
C591   C595    1.391   .     A
C592   C593    1.406   .     A
C592   C87     1.399   1_556 S
C592   C81     1.401   1_556 S
C593   C594    1.399   .     A
C595   F602    1.361   .     S
Cu597  Cu598   2.728   .     S
Cu597  O609    1.986   .     S
Cu597  O613    1.978   .     S
Cu597  O611    1.946   .     S
Cu597  N607    2.050   .     S
Cu597  O615    1.938   .     S
Cu598  N608    2.050   .     S
Cu598  O614    1.986   .     S
Cu598  O610    1.978   .     S
Cu598  O612    1.938   .     S
Cu598  O616    1.946   .     S
F601   C81     1.355   1_556 S
Br617  C652    1.924   .     S
Br618  C629    1.926   .     S
Br619  C634    1.929   .     S
Br620  C635    1.923   .     S
Br621  C638    1.916   .     S
Br622  C649    1.913   .     S
Br623  C645    1.933   .     S
Br624  C650    1.915   .     S
C625   O665    1.311   .     A
C625   C633    1.461   .     S
C625   O666    1.306   .     A
C626   C643    1.400   .     A
C626   C646    1.421   .     A
C626   C628    1.499   .     S
C627   F661    1.360   .     S
C627   C633    1.403   .     A
C627   C797    1.384   .     S
C628   O668    1.314   .     A
C628   O667    1.320   .     A
C629   C630    1.421   .     A
C629   C963    1.384   1_545 S
C630   C639    1.472   .     S
C630   C631    1.413   .     A
C631   F655    1.359   .     S
C631   C968    1.385   1_545 S
C632   F656    1.357   .     S
C632   C633    1.401   .     A
C632   C799    1.385   .     S
C634   N664    1.379   .     A
C634   C523    1.431   1_655 S
C635   N663    1.378   .     A
C636   C646    1.423   .     A
C636   C141    1.414   1_556 S
C636   C143    1.409   1_556 S
C637   H662    1.082   .     S
C637   N663    1.362   .     A
C638   N664    1.385   .     A
C638   C525    1.423   1_655 S
C639   O670    1.309   .     A
C639   O669    1.314   .     A
C640   O672    1.313   .     A
C640   O671    1.307   .     A
C640   C642    1.468   .     S
C641   C652    1.411   .     A
C642   C651    1.401   .     A
C642   C652    1.413   .     A
C643   F659    1.343   .     S
C643   C644    1.389   .     A
C644   C141    1.381   1_556 S
C644   F156    1.343   1_556 S
C646   C650    1.403   .     A
C647   C651    1.391   .     A
C648   C649    1.406   .     A
C648   C143    1.399   1_556 S
C648   C137    1.401   1_556 S
C649   C650    1.399   .     A
C651   F658    1.361   .     S
Cu653  Cu654   2.728   .     S
Cu653  O665    1.986   .     S
Cu653  O669    1.978   .     S
Cu653  O667    1.946   .     S
Cu653  N663    2.050   .     S
Cu653  O671    1.938   .     S
Cu654  N664    2.050   .     S
Cu654  O670    1.986   .     S
Cu654  O666    1.978   .     S
Cu654  O668    1.938   .     S
Cu654  O672    1.946   .     S
F657   C137    1.355   1_556 S
Br673  C708    1.924   .     S
Br674  C685    1.926   .     S
Br675  C690    1.929   .     S
Br676  C691    1.923   .     S
Br677  C694    1.916   .     S
Br678  C705    1.913   .     S
Br679  C701    1.933   .     S
Br680  C706    1.915   .     S
C681   O721    1.311   .     A
C681   C689    1.461   .     S
C681   O722    1.306   .     A
C682   C699    1.400   .     A
C682   C702    1.421   .     A
C682   C684    1.499   .     S
C683   F717    1.360   .     S
C683   C689    1.403   .     A
C683   C853    1.384   .     S
C684   O724    1.314   .     A
C684   O723    1.320   .     A
C685   C686    1.421   .     A
C686   C695    1.472   .     S
C686   C687    1.413   .     A
C687   F711    1.359   .     S
C688   F712    1.357   .     S
C688   C689    1.401   .     A
C688   C855    1.385   .     S
C690   N720    1.379   .     A
C690   C747    1.431   .     S
C691   N719    1.378   .     A
C691   C802    1.431   1_455 S
C692   C702    1.423   .     A
C692   C197    1.414   1_556 S
C692   C199    1.409   1_556 S
C693   H718    1.082   .     S
C693   N719    1.362   .     A
C693   C806    1.423   1_455 S
C694   N720    1.385   .     A
C694   C749    1.423   .     S
C695   O726    1.309   .     A
C695   O725    1.314   .     A
C696   O728    1.313   .     A
C696   O727    1.307   .     A
C696   C698    1.468   .     S
C697   C708    1.411   .     A
C698   C707    1.401   .     A
C698   C708    1.413   .     A
C699   F715    1.343   .     S
C699   C700    1.389   .     A
C700   C197    1.381   1_556 S
C700   F212    1.343   1_556 S
C702   C706    1.403   .     A
C703   C707    1.391   .     A
C704   C705    1.406   .     A
C704   C199    1.399   1_556 S
C704   C193    1.401   1_556 S
C705   C706    1.399   .     A
C707   F714    1.361   .     S
Cu709  Cu710   2.728   .     S
Cu709  O721    1.986   .     S
Cu709  O725    1.978   .     S
Cu709  O723    1.946   .     S
Cu709  N719    2.050   .     S
Cu709  O727    1.938   .     S
Cu710  N720    2.050   .     S
Cu710  O726    1.986   .     S
Cu710  O722    1.978   .     S
Cu710  O724    1.938   .     S
Cu710  O728    1.946   .     S
F713   C193    1.355   1_556 S
Br729  C764    1.924   .     S
Br730  C741    1.926   .     S
Br731  C746    1.929   .     S
Br732  C747    1.923   .     S
Br733  C750    1.916   .     S
Br734  C761    1.913   .     S
Br735  C757    1.933   .     S
Br736  C762    1.915   .     S
C737   O777    1.311   .     A
C737   C745    1.461   .     S
C737   O778    1.306   .     A
C738   C755    1.400   .     A
C738   C758    1.421   .     A
C738   C740    1.499   .     S
C739   F773    1.360   .     S
C739   C745    1.403   .     A
C739   C909    1.384   .     S
C740   O780    1.314   .     A
C740   O779    1.320   .     A
C741   C742    1.421   .     A
C742   C751    1.472   .     S
C742   C743    1.413   .     A
C743   F767    1.359   .     S
C744   F768    1.357   .     S
C744   C745    1.401   .     A
C744   C911    1.385   .     S
C746   N776    1.379   .     A
C746   C803    1.431   .     S
C747   N775    1.378   .     A
C748   C758    1.423   .     A
C748   C253    1.414   1_556 S
C748   C255    1.409   1_556 S
C749   H774    1.082   .     S
C749   N775    1.362   .     A
C750   N776    1.385   .     A
C750   C805    1.423   .     S
C751   O782    1.309   .     A
C751   O781    1.314   .     A
C752   O784    1.313   .     A
C752   O783    1.307   .     A
C752   C754    1.468   .     S
C753   C764    1.411   .     A
C754   C763    1.401   .     A
C754   C764    1.413   .     A
C755   F771    1.343   .     S
C755   C756    1.389   .     A
C756   C253    1.381   1_556 S
C756   F268    1.343   1_556 S
C758   C762    1.403   .     A
C759   C763    1.391   .     A
C760   C761    1.406   .     A
C760   C255    1.399   1_556 S
C760   C249    1.401   1_556 S
C761   C762    1.399   .     A
C763   F770    1.361   .     S
Cu765  Cu766   2.728   .     S
Cu765  O777    1.986   .     S
Cu765  O781    1.978   .     S
Cu765  O779    1.946   .     S
Cu765  N775    2.050   .     S
Cu765  O783    1.938   .     S
Cu766  N776    2.050   .     S
Cu766  O782    1.986   .     S
Cu766  O778    1.978   .     S
Cu766  O780    1.938   .     S
Cu766  O784    1.946   .     S
F769   C249    1.355   1_556 S
Br785  C820    1.924   .     S
Br786  C797    1.926   .     S
Br787  C802    1.929   .     S
Br788  C803    1.923   .     S
Br789  C806    1.916   .     S
Br790  C817    1.913   .     S
Br791  C813    1.933   .     S
Br792  C818    1.915   .     S
C793   O833    1.311   .     A
C793   C801    1.461   .     S
C793   O834    1.306   .     A
C794   C811    1.400   .     A
C794   C814    1.421   .     A
C794   C796    1.499   .     S
C795   F829    1.360   .     S
C795   C801    1.403   .     A
C795   C965    1.384   .     S
C796   O836    1.314   .     A
C796   O835    1.320   .     A
C797   C798    1.421   .     A
C798   C807    1.472   .     S
C798   C799    1.413   .     A
C799   F823    1.359   .     S
C800   F824    1.357   .     S
C800   C801    1.401   .     A
C800   C967    1.385   .     S
C802   N832    1.379   .     A
C802   C691    1.431   1_655 S
C803   N831    1.378   .     A
C804   C814    1.423   .     A
C804   C309    1.414   1_556 S
C804   C311    1.409   1_556 S
C805   H830    1.082   .     S
C805   N831    1.362   .     A
C806   N832    1.385   .     A
C806   C693    1.423   1_655 S
C807   O838    1.309   .     A
C807   O837    1.314   .     A
C808   O840    1.313   .     A
C808   O839    1.307   .     A
C808   C810    1.468   .     S
C809   C820    1.411   .     A
C810   C819    1.401   .     A
C810   C820    1.413   .     A
C811   F827    1.343   .     S
C811   C812    1.389   .     A
C812   C309    1.381   1_556 S
C812   F324    1.343   1_556 S
C814   C818    1.403   .     A
C815   C819    1.391   .     A
C816   C817    1.406   .     A
C816   C311    1.399   1_556 S
C816   C305    1.401   1_556 S
C817   C818    1.399   .     A
C819   F826    1.361   .     S
Cu821  Cu822   2.728   .     S
Cu821  O833    1.986   .     S
Cu821  O837    1.978   .     S
Cu821  O835    1.946   .     S
Cu821  N831    2.050   .     S
Cu821  O839    1.938   .     S
Cu822  N832    2.050   .     S
Cu822  O838    1.986   .     S
Cu822  O834    1.978   .     S
Cu822  O836    1.938   .     S
Cu822  O840    1.946   .     S
F825   C305    1.355   1_556 S
Br841  C876    1.924   .     S
Br842  C853    1.926   .     S
Br843  C858    1.929   .     S
Br844  C859    1.923   .     S
Br845  C862    1.916   .     S
Br846  C873    1.913   .     S
Br847  C869    1.933   .     S
Br848  C874    1.915   .     S
C849   O889    1.311   .     A
C849   C857    1.461   .     S
C849   O890    1.306   .     A
C850   C867    1.400   .     A
C850   C870    1.421   .     A
C850   C852    1.499   .     S
C851   F885    1.360   .     S
C851   C857    1.403   .     A
C851   C517    1.384   1_565 S
C852   O892    1.314   .     A
C852   O891    1.320   .     A
C853   C854    1.421   .     A
C854   C863    1.472   .     S
C854   C855    1.413   .     A
C855   F879    1.359   .     S
C856   F880    1.357   .     S
C856   C857    1.401   .     A
C856   C519    1.385   1_565 S
C858   N888    1.379   .     A
C858   C915    1.431   .     S
C859   N887    1.378   .     A
C859   C970    1.431   1_455 S
C860   C870    1.423   .     A
C860   C365    1.414   1_556 S
C860   C367    1.409   1_556 S
C861   H886    1.082   .     S
C861   N887    1.362   .     A
C861   C974    1.423   1_455 S
C862   N888    1.385   .     A
C862   C917    1.423   .     S
C863   O894    1.309   .     A
C863   O893    1.314   .     A
C864   O896    1.313   .     A
C864   O895    1.307   .     A
C864   C866    1.468   .     S
C865   C876    1.411   .     A
C866   C875    1.401   .     A
C866   C876    1.413   .     A
C867   F883    1.343   .     S
C867   C868    1.389   .     A
C868   C365    1.381   1_556 S
C868   F380    1.343   1_556 S
C870   C874    1.403   .     A
C871   C875    1.391   .     A
C872   C873    1.406   .     A
C872   C367    1.399   1_556 S
C872   C361    1.401   1_556 S
C873   C874    1.399   .     A
C875   F882    1.361   .     S
Cu877  Cu878   2.728   .     S
Cu877  O889    1.986   .     S
Cu877  O893    1.978   .     S
Cu877  O891    1.946   .     S
Cu877  N887    2.050   .     S
Cu877  O895    1.938   .     S
Cu878  N888    2.050   .     S
Cu878  O894    1.986   .     S
Cu878  O890    1.978   .     S
Cu878  O892    1.938   .     S
Cu878  O896    1.946   .     S
F881   C361    1.355   1_556 S
Br897  C932    1.924   .     S
Br898  C909    1.926   .     S
Br899  C914    1.929   .     S
Br900  C915    1.923   .     S
Br901  C918    1.916   .     S
Br902  C929    1.913   .     S
Br903  C925    1.933   .     S
Br904  C930    1.915   .     S
C905   O945    1.311   .     A
C905   C913    1.461   .     S
C905   O946    1.306   .     A
C906   C923    1.400   .     A
C906   C926    1.421   .     A
C906   C908    1.499   .     S
C907   F941    1.360   .     S
C907   C913    1.403   .     A
C907   C573    1.384   1_565 S
C908   O948    1.314   .     A
C908   O947    1.320   .     A
C909   C910    1.421   .     A
C910   C919    1.472   .     S
C910   C911    1.413   .     A
C911   F935    1.359   .     S
C912   F936    1.357   .     S
C912   C913    1.401   .     A
C912   C575    1.385   1_565 S
C914   N944    1.379   .     A
C914   C971    1.431   .     S
C915   N943    1.378   .     A
C916   C926    1.423   .     A
C916   C421    1.414   1_556 S
C916   C423    1.409   1_556 S
C917   H942    1.082   .     S
C917   N943    1.362   .     A
C918   N944    1.385   .     A
C918   C973    1.423   .     S
C919   O950    1.309   .     A
C919   O949    1.314   .     A
C920   O952    1.313   .     A
C920   O951    1.307   .     A
C920   C922    1.468   .     S
C921   C932    1.411   .     A
C922   C931    1.401   .     A
C922   C932    1.413   .     A
C923   F939    1.343   .     S
C923   C924    1.389   .     A
C924   C421    1.381   1_556 S
C924   F436    1.343   1_556 S
C926   C930    1.403   .     A
C927   C931    1.391   .     A
C928   C929    1.406   .     A
C928   C423    1.399   1_556 S
C928   C417    1.401   1_556 S
C929   C930    1.399   .     A
C931   F938    1.361   .     S
Cu933  Cu934   2.728   .     S
Cu933  O945    1.986   .     S
Cu933  O949    1.978   .     S
Cu933  O947    1.946   .     S
Cu933  N943    2.050   .     S
Cu933  O951    1.938   .     S
Cu934  N944    2.050   .     S
Cu934  O950    1.986   .     S
Cu934  O946    1.978   .     S
Cu934  O948    1.938   .     S
Cu934  O952    1.946   .     S
F937   C417    1.355   1_556 S
Br953  C988    1.924   .     S
Br954  C965    1.926   .     S
Br955  C970    1.929   .     S
Br956  C971    1.923   .     S
Br957  C974    1.916   .     S
Br958  C985    1.913   .     S
Br959  C981    1.933   .     S
Br960  C986    1.915   .     S
C961   O1001   1.311   .     A
C961   C969    1.461   .     S
C961   O1002   1.306   .     A
C962   C979    1.400   .     A
C962   C982    1.421   .     A
C962   C964    1.499   .     S
C963   F997    1.360   .     S
C963   C969    1.403   .     A
C963   C629    1.384   1_565 S
C964   O1004   1.314   .     A
C964   O1003   1.320   .     A
C965   C966    1.421   .     A
C966   C975    1.472   .     S
C966   C967    1.413   .     A
C967   F991    1.359   .     S
C968   F992    1.357   .     S
C968   C969    1.401   .     A
C968   C631    1.385   1_565 S
C970   N1000   1.379   .     A
C970   C859    1.431   1_655 S
C971   N999    1.378   .     A
C972   C982    1.423   .     A
C972   C477    1.414   1_556 S
C972   C479    1.409   1_556 S
C973   H998    1.082   .     S
C973   N999    1.362   .     A
C974   N1000   1.385   .     A
C974   C861    1.423   1_655 S
C975   O1006   1.309   .     A
C975   O1005   1.314   .     A
C976   O1008   1.313   .     A
C976   O1007   1.307   .     A
C976   C978    1.468   .     S
C977   C988    1.411   .     A
C978   C987    1.401   .     A
C978   C988    1.413   .     A
C979   F995    1.343   .     S
C979   C980    1.389   .     A
C980   C477    1.381   1_556 S
C980   F492    1.343   1_556 S
C982   C986    1.403   .     A
C983   C987    1.391   .     A
C984   C985    1.406   .     A
C984   C479    1.399   1_556 S
C984   C473    1.401   1_556 S
C985   C986    1.399   .     A
C987   F994    1.361   .     S
Cu989  Cu990   2.728   .     S
Cu989  O1001   1.986   .     S
Cu989  O1005   1.978   .     S
Cu989  O1003   1.946   .     S
Cu989  N999    2.050   .     S
Cu989  O1007   1.938   .     S
Cu990  N1000   2.050   .     S
Cu990  O1006   1.986   .     S
Cu990  O1002   1.978   .     S
Cu990  O1004   1.938   .     S
Cu990  O1008   1.946   .     S
F993   C473    1.355   1_556 S
