data_str_m3_o1_o10_pcu_sym.165
_audit_creation_date              2020-01-03
_audit_creation_method            'Materials Studio'
_symmetry_space_group_name_H-M    'P1'
_symmetry_Int_Tables_number       1
_symmetry_cell_setting            triclinic
loop_
_symmetry_equiv_pos_as_xyz
  x,y,z
_cell_length_a                    25.7494
_cell_length_b                    31.8479
_cell_length_c                    29.7563
_cell_angle_alpha                 91.0284
_cell_angle_beta                  99.0047
_cell_angle_gamma                 90.6353
loop_
_atom_site_label
_atom_site_type_symbol
_atom_site_fract_x
_atom_site_fract_y
_atom_site_fract_z
_atom_site_U_iso_or_equiv
_atom_site_adp_type
_atom_site_occupancy
C1     C     0.16790   0.08687   0.16650   0.00000  Uiso   1.00
C2     C     0.16544   0.24647   0.16684   0.00000  Uiso   1.00
C3     C     0.06708   0.16659   0.15467   0.00000  Uiso   1.00
C4     C     0.26625   0.16675   0.17867   0.00000  Uiso   1.00
C5     C     0.01191   0.16667   0.14832   0.00000  Uiso   1.00
C6     C     0.32143   0.16666   0.18502   0.00000  Uiso   1.00
C7     C     0.12607   0.02181   0.14072   0.00000  Uiso   1.00
C8     C     0.20727   0.31152   0.19261   0.00000  Uiso   1.00
C9     C     0.12293   0.31185   0.14102   0.00000  Uiso   1.00
C10    C     0.21041   0.02149   0.19232   0.00000  Uiso   1.00
C11    C     0.16430   0.29064   0.16726   0.00000  Uiso   1.00
C12    C     0.16903   0.04269   0.16608   0.00000  Uiso   1.00
C13    C     0.18963   0.19873   0.02812   0.00000  Uiso   1.00
C14    C     0.14370   0.13460   0.30522   0.00000  Uiso   1.00
C15    C     0.19019   0.19884   0.31386   0.00000  Uiso   1.00
C16    C     0.14314   0.13449   0.01947   0.00000  Uiso   1.00
H17    H     0.32439   0.16679   0.11357   0.00000  Uiso   1.00
H18    H     0.00894   0.16654   0.21976   0.00000  Uiso   1.00
H19    H     0.09447   0.03959   0.12184   0.00000  Uiso   1.00
H20    H     0.23886   0.29374   0.21149   0.00000  Uiso   1.00
H21    H     0.20843   0.22407   0.04967   0.00000  Uiso   1.00
H22    H     0.12490   0.10926   0.28366   0.00000  Uiso   1.00
N23    N     0.16665   0.16666   0.28573   0.00000  Uiso   1.00
N24    N     0.16668   0.16668   0.04760   0.00000  Uiso   1.00
O25    O     0.16666   0.10558   0.20487   0.00000  Uiso   1.00
O26    O     0.16667   0.22775   0.12846   0.00000  Uiso   1.00
O27    O     0.16666   0.10559   0.12843   0.00000  Uiso   1.00
O28    O     0.16667   0.22774   0.20490   0.00000  Uiso   1.00
O29    O     0.09058   0.16666   0.19595   0.00000  Uiso   1.00
O30    O     0.24275   0.16667   0.13739   0.00000  Uiso   1.00
O31    O     0.09058   0.16667   0.11950   0.00000  Uiso   1.00
O32    O     0.24275   0.16666   0.21383   0.00000  Uiso   1.00
Zn33   Zn    0.16667   0.16666   0.21771   0.00000  Uiso   1.00
Zn34   Zn    0.16667   0.16667   0.11563   0.00000  Uiso   1.00
C35    C     0.07607   0.28953   0.11536   0.00000  Uiso   1.00
H36    H     0.07086   0.25594   0.11841   0.00000  Uiso   1.00
O37    O     0.04234   0.30853   0.09057   0.00000  Uiso   1.00
C38    C     0.25726   0.04381   0.21797   0.00000  Uiso   1.00
H39    H     0.26246   0.07740   0.21495   0.00000  Uiso   1.00
O40    O     0.29101   0.02479   0.24274   0.00000  Uiso   1.00
C41    C     0.21740   0.23442   0.29636   0.00000  Uiso   1.00
O42    O     0.25263   0.22826   0.27408   0.00000  Uiso   1.00
O43    O     0.20514   0.27540   0.30821   0.00000  Uiso   1.00
H44    H     0.22751   0.29732   0.29562   0.00000  Uiso   1.00
C45    C     0.11593   0.09891   0.03697   0.00000  Uiso   1.00
O46    O     0.08070   0.10507   0.05925   0.00000  Uiso   1.00
O47    O     0.12820   0.05793   0.02513   0.00000  Uiso   1.00
H48    H     0.10583   0.03601   0.03773   0.00000  Uiso   1.00
C49    C     0.50123   0.08687   0.16650   0.00000  Uiso   1.00
C50    C     0.49877   0.24647   0.16684   0.00000  Uiso   1.00
C51    C     0.40042   0.16659   0.15467   0.00000  Uiso   1.00
C52    C     0.59958   0.16675   0.17867   0.00000  Uiso   1.00
C53    C     0.34524   0.16667   0.14832   0.00000  Uiso   1.00
C54    C     0.65476   0.16666   0.18502   0.00000  Uiso   1.00
C55    C     0.45940   0.02181   0.14072   0.00000  Uiso   1.00
C56    C     0.54060   0.31152   0.19261   0.00000  Uiso   1.00
C57    C     0.45626   0.31185   0.14102   0.00000  Uiso   1.00
C58    C     0.54374   0.02149   0.19232   0.00000  Uiso   1.00
C59    C     0.49764   0.29064   0.16726   0.00000  Uiso   1.00
C60    C     0.50237   0.04269   0.16608   0.00000  Uiso   1.00
C61    C     0.52297   0.19873   0.02812   0.00000  Uiso   1.00
C62    C     0.47703   0.13460   0.30522   0.00000  Uiso   1.00
C63    C     0.52353   0.19884   0.31386   0.00000  Uiso   1.00
C64    C     0.47647   0.13449   0.01947   0.00000  Uiso   1.00
H65    H     0.65772   0.16679   0.11357   0.00000  Uiso   1.00
H66    H     0.34227   0.16654   0.21976   0.00000  Uiso   1.00
H67    H     0.42781   0.03959   0.12184   0.00000  Uiso   1.00
H68    H     0.57220   0.29374   0.21149   0.00000  Uiso   1.00
H69    H     0.54176   0.22407   0.04967   0.00000  Uiso   1.00
H70    H     0.45824   0.10926   0.28366   0.00000  Uiso   1.00
N71    N     0.49999   0.16666   0.28573   0.00000  Uiso   1.00
N72    N     0.50001   0.16668   0.04760   0.00000  Uiso   1.00
O73    O     0.50000   0.10558   0.20487   0.00000  Uiso   1.00
O74    O     0.50000   0.22775   0.12846   0.00000  Uiso   1.00
O75    O     0.50000   0.10559   0.12843   0.00000  Uiso   1.00
O76    O     0.50000   0.22774   0.20490   0.00000  Uiso   1.00
O77    O     0.42392   0.16666   0.19595   0.00000  Uiso   1.00
O78    O     0.57608   0.16667   0.13739   0.00000  Uiso   1.00
O79    O     0.42392   0.16667   0.11950   0.00000  Uiso   1.00
O80    O     0.57608   0.16666   0.21383   0.00000  Uiso   1.00
Zn81   Zn    0.50000   0.16666   0.21771   0.00000  Uiso   1.00
Zn82   Zn    0.50000   0.16667   0.11563   0.00000  Uiso   1.00
C83    C     0.40941   0.28953   0.11536   0.00000  Uiso   1.00
H84    H     0.40419   0.25594   0.11841   0.00000  Uiso   1.00
O85    O     0.37568   0.30853   0.09057   0.00000  Uiso   1.00
C86    C     0.59059   0.04381   0.21797   0.00000  Uiso   1.00
H87    H     0.59579   0.07740   0.21495   0.00000  Uiso   1.00
O88    O     0.62435   0.02479   0.24274   0.00000  Uiso   1.00
C89    C     0.55074   0.23442   0.29636   0.00000  Uiso   1.00
O90    O     0.58596   0.22826   0.27408   0.00000  Uiso   1.00
O91    O     0.53848   0.27540   0.30821   0.00000  Uiso   1.00
H92    H     0.56084   0.29732   0.29562   0.00000  Uiso   1.00
C93    C     0.44926   0.09891   0.03697   0.00000  Uiso   1.00
O94    O     0.41404   0.10507   0.05925   0.00000  Uiso   1.00
O95    O     0.46153   0.05793   0.02513   0.00000  Uiso   1.00
H96    H     0.43916   0.03601   0.03773   0.00000  Uiso   1.00
C97    C     0.83456   0.08687   0.16650   0.00000  Uiso   1.00
C98    C     0.83210   0.24647   0.16684   0.00000  Uiso   1.00
C99    C     0.73375   0.16659   0.15467   0.00000  Uiso   1.00
C100   C     0.93292   0.16675   0.17867   0.00000  Uiso   1.00
C101   C     0.67857   0.16667   0.14832   0.00000  Uiso   1.00
C102   C     0.98809   0.16666   0.18502   0.00000  Uiso   1.00
C103   C     0.79274   0.02181   0.14072   0.00000  Uiso   1.00
C104   C     0.87393   0.31152   0.19261   0.00000  Uiso   1.00
C105   C     0.78959   0.31185   0.14102   0.00000  Uiso   1.00
C106   C     0.87708   0.02149   0.19232   0.00000  Uiso   1.00
C107   C     0.83097   0.29064   0.16726   0.00000  Uiso   1.00
C108   C     0.83570   0.04269   0.16608   0.00000  Uiso   1.00
C109   C     0.85630   0.19873   0.02812   0.00000  Uiso   1.00
C110   C     0.81037   0.13460   0.30522   0.00000  Uiso   1.00
C111   C     0.85686   0.19884   0.31386   0.00000  Uiso   1.00
C112   C     0.80981   0.13449   0.01947   0.00000  Uiso   1.00
H113   H     0.99106   0.16679   0.11357   0.00000  Uiso   1.00
H114   H     0.67561   0.16654   0.21976   0.00000  Uiso   1.00
H115   H     0.76114   0.03959   0.12184   0.00000  Uiso   1.00
H116   H     0.90553   0.29374   0.21149   0.00000  Uiso   1.00
H117   H     0.87510   0.22407   0.04967   0.00000  Uiso   1.00
H118   H     0.79157   0.10926   0.28366   0.00000  Uiso   1.00
N119   N     0.83332   0.16666   0.28573   0.00000  Uiso   1.00
N120   N     0.83335   0.16668   0.04760   0.00000  Uiso   1.00
O121   O     0.83333   0.10558   0.20487   0.00000  Uiso   1.00
O122   O     0.83334   0.22775   0.12846   0.00000  Uiso   1.00
O123   O     0.83333   0.10559   0.12843   0.00000  Uiso   1.00
O124   O     0.83334   0.22774   0.20490   0.00000  Uiso   1.00
O125   O     0.75725   0.16666   0.19595   0.00000  Uiso   1.00
O126   O     0.90942   0.16667   0.13739   0.00000  Uiso   1.00
O127   O     0.75725   0.16667   0.11950   0.00000  Uiso   1.00
O128   O     0.90942   0.16666   0.21383   0.00000  Uiso   1.00
Zn129  Zn    0.83333   0.16666   0.21771   0.00000  Uiso   1.00
Zn130  Zn    0.83333   0.16667   0.11563   0.00000  Uiso   1.00
C131   C     0.74274   0.28953   0.11536   0.00000  Uiso   1.00
H132   H     0.73753   0.25594   0.11841   0.00000  Uiso   1.00
O133   O     0.70901   0.30853   0.09057   0.00000  Uiso   1.00
C134   C     0.92393   0.04381   0.21797   0.00000  Uiso   1.00
H135   H     0.92912   0.07740   0.21495   0.00000  Uiso   1.00
O136   O     0.95768   0.02479   0.24274   0.00000  Uiso   1.00
C137   C     0.88407   0.23442   0.29636   0.00000  Uiso   1.00
O138   O     0.91929   0.22826   0.27408   0.00000  Uiso   1.00
O139   O     0.87181   0.27540   0.30821   0.00000  Uiso   1.00
H140   H     0.89418   0.29732   0.29562   0.00000  Uiso   1.00
C141   C     0.78260   0.09891   0.03697   0.00000  Uiso   1.00
O142   O     0.74737   0.10507   0.05925   0.00000  Uiso   1.00
O143   O     0.79486   0.05793   0.02513   0.00000  Uiso   1.00
H144   H     0.77250   0.03601   0.03773   0.00000  Uiso   1.00
C145   C     0.16790   0.42020   0.16650   0.00000  Uiso   1.00
C146   C     0.16544   0.57980   0.16684   0.00000  Uiso   1.00
C147   C     0.06708   0.49992   0.15467   0.00000  Uiso   1.00
C148   C     0.26625   0.50008   0.17867   0.00000  Uiso   1.00
C149   C     0.01191   0.50001   0.14832   0.00000  Uiso   1.00
C150   C     0.32143   0.49999   0.18502   0.00000  Uiso   1.00
C151   C     0.12607   0.35515   0.14072   0.00000  Uiso   1.00
C152   C     0.20727   0.64485   0.19261   0.00000  Uiso   1.00
C153   C     0.12293   0.64518   0.14102   0.00000  Uiso   1.00
C154   C     0.21041   0.35482   0.19232   0.00000  Uiso   1.00
C155   C     0.16430   0.62398   0.16726   0.00000  Uiso   1.00
C156   C     0.16903   0.37602   0.16608   0.00000  Uiso   1.00
C157   C     0.18963   0.53206   0.02812   0.00000  Uiso   1.00
C158   C     0.14370   0.46794   0.30522   0.00000  Uiso   1.00
C159   C     0.19019   0.53217   0.31386   0.00000  Uiso   1.00
C160   C     0.14314   0.46782   0.01947   0.00000  Uiso   1.00
H161   H     0.32439   0.50012   0.11357   0.00000  Uiso   1.00
H162   H     0.00894   0.49988   0.21976   0.00000  Uiso   1.00
H163   H     0.09447   0.37293   0.12184   0.00000  Uiso   1.00
H164   H     0.23886   0.62707   0.21149   0.00000  Uiso   1.00
H165   H     0.20843   0.55740   0.04967   0.00000  Uiso   1.00
H166   H     0.12490   0.44260   0.28366   0.00000  Uiso   1.00
N167   N     0.16665   0.49999   0.28573   0.00000  Uiso   1.00
N168   N     0.16668   0.50001   0.04760   0.00000  Uiso   1.00
O169   O     0.16666   0.43892   0.20487   0.00000  Uiso   1.00
O170   O     0.16667   0.56108   0.12846   0.00000  Uiso   1.00
O171   O     0.16666   0.43893   0.12843   0.00000  Uiso   1.00
O172   O     0.16667   0.56107   0.20490   0.00000  Uiso   1.00
O173   O     0.09058   0.50000   0.19595   0.00000  Uiso   1.00
O174   O     0.24275   0.50000   0.13739   0.00000  Uiso   1.00
O175   O     0.09058   0.50000   0.11950   0.00000  Uiso   1.00
O176   O     0.24275   0.50000   0.21383   0.00000  Uiso   1.00
Zn177  Zn    0.16667   0.49999   0.21771   0.00000  Uiso   1.00
Zn178  Zn    0.16667   0.50001   0.11563   0.00000  Uiso   1.00
C179   C     0.07607   0.62286   0.11536   0.00000  Uiso   1.00
H180   H     0.07086   0.58928   0.11841   0.00000  Uiso   1.00
O181   O     0.04234   0.64186   0.09057   0.00000  Uiso   1.00
C182   C     0.25726   0.37714   0.21797   0.00000  Uiso   1.00
H183   H     0.26246   0.41073   0.21495   0.00000  Uiso   1.00
O184   O     0.29101   0.35813   0.24274   0.00000  Uiso   1.00
C185   C     0.21740   0.56776   0.29636   0.00000  Uiso   1.00
O186   O     0.25263   0.56159   0.27408   0.00000  Uiso   1.00
O187   O     0.20514   0.60874   0.30821   0.00000  Uiso   1.00
H188   H     0.22751   0.63066   0.29562   0.00000  Uiso   1.00
C189   C     0.11593   0.43224   0.03697   0.00000  Uiso   1.00
O190   O     0.08070   0.43841   0.05925   0.00000  Uiso   1.00
O191   O     0.12820   0.39126   0.02513   0.00000  Uiso   1.00
H192   H     0.10583   0.36934   0.03773   0.00000  Uiso   1.00
C193   C     0.50123   0.42020   0.16650   0.00000  Uiso   1.00
C194   C     0.49877   0.57980   0.16684   0.00000  Uiso   1.00
C195   C     0.40042   0.49992   0.15467   0.00000  Uiso   1.00
C196   C     0.59958   0.50008   0.17867   0.00000  Uiso   1.00
C197   C     0.34524   0.50001   0.14832   0.00000  Uiso   1.00
C198   C     0.65476   0.49999   0.18502   0.00000  Uiso   1.00
C199   C     0.45940   0.35515   0.14072   0.00000  Uiso   1.00
C200   C     0.54060   0.64485   0.19261   0.00000  Uiso   1.00
C201   C     0.45626   0.64518   0.14102   0.00000  Uiso   1.00
C202   C     0.54374   0.35482   0.19232   0.00000  Uiso   1.00
C203   C     0.49764   0.62398   0.16726   0.00000  Uiso   1.00
C204   C     0.50237   0.37602   0.16608   0.00000  Uiso   1.00
C205   C     0.52297   0.53206   0.02812   0.00000  Uiso   1.00
C206   C     0.47703   0.46794   0.30522   0.00000  Uiso   1.00
C207   C     0.52353   0.53217   0.31386   0.00000  Uiso   1.00
C208   C     0.47647   0.46782   0.01947   0.00000  Uiso   1.00
H209   H     0.65772   0.50012   0.11357   0.00000  Uiso   1.00
H210   H     0.34227   0.49988   0.21976   0.00000  Uiso   1.00
H211   H     0.42781   0.37293   0.12184   0.00000  Uiso   1.00
H212   H     0.57220   0.62707   0.21149   0.00000  Uiso   1.00
H213   H     0.54176   0.55740   0.04967   0.00000  Uiso   1.00
H214   H     0.45824   0.44260   0.28366   0.00000  Uiso   1.00
N215   N     0.49999   0.49999   0.28573   0.00000  Uiso   1.00
N216   N     0.50001   0.50001   0.04760   0.00000  Uiso   1.00
O217   O     0.50000   0.43892   0.20487   0.00000  Uiso   1.00
O218   O     0.50000   0.56108   0.12846   0.00000  Uiso   1.00
O219   O     0.50000   0.43893   0.12843   0.00000  Uiso   1.00
O220   O     0.50000   0.56107   0.20490   0.00000  Uiso   1.00
O221   O     0.42392   0.50000   0.19595   0.00000  Uiso   1.00
O222   O     0.57608   0.50000   0.13739   0.00000  Uiso   1.00
O223   O     0.42392   0.50000   0.11950   0.00000  Uiso   1.00
O224   O     0.57608   0.50000   0.21383   0.00000  Uiso   1.00
Zn225  Zn    0.50000   0.49999   0.21771   0.00000  Uiso   1.00
Zn226  Zn    0.50000   0.50001   0.11563   0.00000  Uiso   1.00
C227   C     0.40941   0.62286   0.11536   0.00000  Uiso   1.00
H228   H     0.40419   0.58928   0.11841   0.00000  Uiso   1.00
O229   O     0.37568   0.64186   0.09057   0.00000  Uiso   1.00
C230   C     0.59059   0.37714   0.21797   0.00000  Uiso   1.00
H231   H     0.59579   0.41073   0.21495   0.00000  Uiso   1.00
O232   O     0.62435   0.35813   0.24274   0.00000  Uiso   1.00
C233   C     0.55074   0.56776   0.29636   0.00000  Uiso   1.00
O234   O     0.58596   0.56159   0.27408   0.00000  Uiso   1.00
O235   O     0.53848   0.60874   0.30821   0.00000  Uiso   1.00
H236   H     0.56084   0.63066   0.29562   0.00000  Uiso   1.00
C237   C     0.44926   0.43224   0.03697   0.00000  Uiso   1.00
O238   O     0.41404   0.43841   0.05925   0.00000  Uiso   1.00
O239   O     0.46153   0.39126   0.02513   0.00000  Uiso   1.00
H240   H     0.43916   0.36934   0.03773   0.00000  Uiso   1.00
C241   C     0.83456   0.42020   0.16650   0.00000  Uiso   1.00
C242   C     0.83210   0.57980   0.16684   0.00000  Uiso   1.00
C243   C     0.73375   0.49992   0.15467   0.00000  Uiso   1.00
C244   C     0.93292   0.50008   0.17867   0.00000  Uiso   1.00
C245   C     0.67857   0.50001   0.14832   0.00000  Uiso   1.00
C246   C     0.98809   0.49999   0.18502   0.00000  Uiso   1.00
C247   C     0.79274   0.35515   0.14072   0.00000  Uiso   1.00
C248   C     0.87393   0.64485   0.19261   0.00000  Uiso   1.00
C249   C     0.78959   0.64518   0.14102   0.00000  Uiso   1.00
C250   C     0.87708   0.35482   0.19232   0.00000  Uiso   1.00
C251   C     0.83097   0.62398   0.16726   0.00000  Uiso   1.00
C252   C     0.83570   0.37602   0.16608   0.00000  Uiso   1.00
C253   C     0.85630   0.53206   0.02812   0.00000  Uiso   1.00
C254   C     0.81037   0.46794   0.30522   0.00000  Uiso   1.00
C255   C     0.85686   0.53217   0.31386   0.00000  Uiso   1.00
C256   C     0.80981   0.46782   0.01947   0.00000  Uiso   1.00
H257   H     0.99106   0.50012   0.11357   0.00000  Uiso   1.00
H258   H     0.67561   0.49988   0.21976   0.00000  Uiso   1.00
H259   H     0.76114   0.37293   0.12184   0.00000  Uiso   1.00
H260   H     0.90553   0.62707   0.21149   0.00000  Uiso   1.00
H261   H     0.87510   0.55740   0.04967   0.00000  Uiso   1.00
H262   H     0.79157   0.44260   0.28366   0.00000  Uiso   1.00
N263   N     0.83332   0.49999   0.28573   0.00000  Uiso   1.00
N264   N     0.83335   0.50001   0.04760   0.00000  Uiso   1.00
O265   O     0.83333   0.43892   0.20487   0.00000  Uiso   1.00
O266   O     0.83334   0.56108   0.12846   0.00000  Uiso   1.00
O267   O     0.83333   0.43893   0.12843   0.00000  Uiso   1.00
O268   O     0.83334   0.56107   0.20490   0.00000  Uiso   1.00
O269   O     0.75725   0.50000   0.19595   0.00000  Uiso   1.00
O270   O     0.90942   0.50000   0.13739   0.00000  Uiso   1.00
O271   O     0.75725   0.50000   0.11950   0.00000  Uiso   1.00
O272   O     0.90942   0.50000   0.21383   0.00000  Uiso   1.00
Zn273  Zn    0.83333   0.49999   0.21771   0.00000  Uiso   1.00
Zn274  Zn    0.83333   0.50001   0.11563   0.00000  Uiso   1.00
C275   C     0.74274   0.62286   0.11536   0.00000  Uiso   1.00
H276   H     0.73753   0.58928   0.11841   0.00000  Uiso   1.00
O277   O     0.70901   0.64186   0.09057   0.00000  Uiso   1.00
C278   C     0.92393   0.37714   0.21797   0.00000  Uiso   1.00
H279   H     0.92912   0.41073   0.21495   0.00000  Uiso   1.00
O280   O     0.95768   0.35813   0.24274   0.00000  Uiso   1.00
C281   C     0.88407   0.56776   0.29636   0.00000  Uiso   1.00
O282   O     0.91929   0.56159   0.27408   0.00000  Uiso   1.00
O283   O     0.87181   0.60874   0.30821   0.00000  Uiso   1.00
H284   H     0.89418   0.63066   0.29562   0.00000  Uiso   1.00
C285   C     0.78260   0.43224   0.03697   0.00000  Uiso   1.00
O286   O     0.74737   0.43841   0.05925   0.00000  Uiso   1.00
O287   O     0.79486   0.39126   0.02513   0.00000  Uiso   1.00
H288   H     0.77250   0.36934   0.03773   0.00000  Uiso   1.00
C289   C     0.16790   0.75353   0.16650   0.00000  Uiso   1.00
C290   C     0.16544   0.91313   0.16684   0.00000  Uiso   1.00
C291   C     0.06708   0.83325   0.15467   0.00000  Uiso   1.00
C292   C     0.26625   0.83341   0.17867   0.00000  Uiso   1.00
C293   C     0.01191   0.83334   0.14832   0.00000  Uiso   1.00
C294   C     0.32143   0.83333   0.18502   0.00000  Uiso   1.00
C295   C     0.12607   0.68848   0.14072   0.00000  Uiso   1.00
C296   C     0.20727   0.97819   0.19261   0.00000  Uiso   1.00
C297   C     0.12293   0.97851   0.14102   0.00000  Uiso   1.00
C298   C     0.21041   0.68815   0.19232   0.00000  Uiso   1.00
C299   C     0.16430   0.95731   0.16726   0.00000  Uiso   1.00
C300   C     0.16903   0.70936   0.16608   0.00000  Uiso   1.00
C301   C     0.18963   0.86539   0.02812   0.00000  Uiso   1.00
C302   C     0.14370   0.80127   0.30522   0.00000  Uiso   1.00
C303   C     0.19019   0.86551   0.31386   0.00000  Uiso   1.00
C304   C     0.14314   0.80116   0.01947   0.00000  Uiso   1.00
H305   H     0.32439   0.83346   0.11357   0.00000  Uiso   1.00
H306   H     0.00894   0.83321   0.21976   0.00000  Uiso   1.00
H307   H     0.09447   0.70626   0.12184   0.00000  Uiso   1.00
H308   H     0.23886   0.96041   0.21149   0.00000  Uiso   1.00
H309   H     0.20843   0.89074   0.04967   0.00000  Uiso   1.00
H310   H     0.12490   0.77593   0.28366   0.00000  Uiso   1.00
N311   N     0.16665   0.83332   0.28573   0.00000  Uiso   1.00
N312   N     0.16668   0.83334   0.04760   0.00000  Uiso   1.00
O313   O     0.16666   0.77225   0.20487   0.00000  Uiso   1.00
O314   O     0.16667   0.89442   0.12846   0.00000  Uiso   1.00
O315   O     0.16666   0.77226   0.12843   0.00000  Uiso   1.00
O316   O     0.16667   0.89441   0.20490   0.00000  Uiso   1.00
O317   O     0.09058   0.83333   0.19595   0.00000  Uiso   1.00
O318   O     0.24275   0.83334   0.13739   0.00000  Uiso   1.00
O319   O     0.09058   0.83334   0.11950   0.00000  Uiso   1.00
O320   O     0.24275   0.83333   0.21383   0.00000  Uiso   1.00
Zn321  Zn    0.16667   0.83333   0.21771   0.00000  Uiso   1.00
Zn322  Zn    0.16667   0.83334   0.11563   0.00000  Uiso   1.00
C323   C     0.07607   0.95619   0.11536   0.00000  Uiso   1.00
H324   H     0.07086   0.92261   0.11841   0.00000  Uiso   1.00
O325   O     0.04234   0.97520   0.09057   0.00000  Uiso   1.00
C326   C     0.25726   0.71047   0.21797   0.00000  Uiso   1.00
H327   H     0.26246   0.74406   0.21495   0.00000  Uiso   1.00
O328   O     0.29101   0.69146   0.24274   0.00000  Uiso   1.00
C329   C     0.21740   0.90109   0.29636   0.00000  Uiso   1.00
O330   O     0.25263   0.89493   0.27408   0.00000  Uiso   1.00
O331   O     0.20514   0.94207   0.30821   0.00000  Uiso   1.00
H332   H     0.22751   0.96399   0.29562   0.00000  Uiso   1.00
C333   C     0.11593   0.76558   0.03697   0.00000  Uiso   1.00
O334   O     0.08070   0.77174   0.05925   0.00000  Uiso   1.00
O335   O     0.12820   0.72460   0.02513   0.00000  Uiso   1.00
H336   H     0.10583   0.70268   0.03773   0.00000  Uiso   1.00
C337   C     0.50123   0.75353   0.16650   0.00000  Uiso   1.00
C338   C     0.49877   0.91313   0.16684   0.00000  Uiso   1.00
C339   C     0.40042   0.83325   0.15467   0.00000  Uiso   1.00
C340   C     0.59958   0.83341   0.17867   0.00000  Uiso   1.00
C341   C     0.34524   0.83334   0.14832   0.00000  Uiso   1.00
C342   C     0.65476   0.83333   0.18502   0.00000  Uiso   1.00
C343   C     0.45940   0.68848   0.14072   0.00000  Uiso   1.00
C344   C     0.54060   0.97819   0.19261   0.00000  Uiso   1.00
C345   C     0.45626   0.97851   0.14102   0.00000  Uiso   1.00
C346   C     0.54374   0.68815   0.19232   0.00000  Uiso   1.00
C347   C     0.49764   0.95731   0.16726   0.00000  Uiso   1.00
C348   C     0.50237   0.70936   0.16608   0.00000  Uiso   1.00
C349   C     0.52297   0.86539   0.02812   0.00000  Uiso   1.00
C350   C     0.47703   0.80127   0.30522   0.00000  Uiso   1.00
C351   C     0.52353   0.86551   0.31386   0.00000  Uiso   1.00
C352   C     0.47647   0.80116   0.01947   0.00000  Uiso   1.00
H353   H     0.65772   0.83346   0.11357   0.00000  Uiso   1.00
H354   H     0.34227   0.83321   0.21976   0.00000  Uiso   1.00
H355   H     0.42781   0.70626   0.12184   0.00000  Uiso   1.00
H356   H     0.57220   0.96041   0.21149   0.00000  Uiso   1.00
H357   H     0.54176   0.89074   0.04967   0.00000  Uiso   1.00
H358   H     0.45824   0.77593   0.28366   0.00000  Uiso   1.00
N359   N     0.49999   0.83332   0.28573   0.00000  Uiso   1.00
N360   N     0.50001   0.83334   0.04760   0.00000  Uiso   1.00
O361   O     0.50000   0.77225   0.20487   0.00000  Uiso   1.00
O362   O     0.50000   0.89442   0.12846   0.00000  Uiso   1.00
O363   O     0.50000   0.77226   0.12843   0.00000  Uiso   1.00
O364   O     0.50000   0.89441   0.20490   0.00000  Uiso   1.00
O365   O     0.42392   0.83333   0.19595   0.00000  Uiso   1.00
O366   O     0.57608   0.83334   0.13739   0.00000  Uiso   1.00
O367   O     0.42392   0.83334   0.11950   0.00000  Uiso   1.00
O368   O     0.57608   0.83333   0.21383   0.00000  Uiso   1.00
Zn369  Zn    0.50000   0.83333   0.21771   0.00000  Uiso   1.00
Zn370  Zn    0.50000   0.83334   0.11563   0.00000  Uiso   1.00
C371   C     0.40941   0.95619   0.11536   0.00000  Uiso   1.00
H372   H     0.40419   0.92261   0.11841   0.00000  Uiso   1.00
O373   O     0.37568   0.97520   0.09057   0.00000  Uiso   1.00
C374   C     0.59059   0.71047   0.21797   0.00000  Uiso   1.00
H375   H     0.59579   0.74406   0.21495   0.00000  Uiso   1.00
O376   O     0.62435   0.69146   0.24274   0.00000  Uiso   1.00
C377   C     0.55074   0.90109   0.29636   0.00000  Uiso   1.00
O378   O     0.58596   0.89493   0.27408   0.00000  Uiso   1.00
O379   O     0.53848   0.94207   0.30821   0.00000  Uiso   1.00
H380   H     0.56084   0.96399   0.29562   0.00000  Uiso   1.00
C381   C     0.44926   0.76558   0.03697   0.00000  Uiso   1.00
O382   O     0.41404   0.77174   0.05925   0.00000  Uiso   1.00
O383   O     0.46153   0.72460   0.02513   0.00000  Uiso   1.00
H384   H     0.43916   0.70268   0.03773   0.00000  Uiso   1.00
C385   C     0.83456   0.75353   0.16650   0.00000  Uiso   1.00
C386   C     0.83210   0.91313   0.16684   0.00000  Uiso   1.00
C387   C     0.73375   0.83325   0.15467   0.00000  Uiso   1.00
C388   C     0.93292   0.83341   0.17867   0.00000  Uiso   1.00
C389   C     0.67857   0.83334   0.14832   0.00000  Uiso   1.00
C390   C     0.98809   0.83333   0.18502   0.00000  Uiso   1.00
C391   C     0.79274   0.68848   0.14072   0.00000  Uiso   1.00
C392   C     0.87393   0.97819   0.19261   0.00000  Uiso   1.00
C393   C     0.78959   0.97851   0.14102   0.00000  Uiso   1.00
C394   C     0.87708   0.68815   0.19232   0.00000  Uiso   1.00
C395   C     0.83097   0.95731   0.16726   0.00000  Uiso   1.00
C396   C     0.83570   0.70936   0.16608   0.00000  Uiso   1.00
C397   C     0.85630   0.86539   0.02812   0.00000  Uiso   1.00
C398   C     0.81037   0.80127   0.30522   0.00000  Uiso   1.00
C399   C     0.85686   0.86551   0.31386   0.00000  Uiso   1.00
C400   C     0.80981   0.80116   0.01947   0.00000  Uiso   1.00
H401   H     0.99106   0.83346   0.11357   0.00000  Uiso   1.00
H402   H     0.67561   0.83321   0.21976   0.00000  Uiso   1.00
H403   H     0.76114   0.70626   0.12184   0.00000  Uiso   1.00
H404   H     0.90553   0.96041   0.21149   0.00000  Uiso   1.00
H405   H     0.87510   0.89074   0.04967   0.00000  Uiso   1.00
H406   H     0.79157   0.77593   0.28366   0.00000  Uiso   1.00
N407   N     0.83332   0.83332   0.28573   0.00000  Uiso   1.00
N408   N     0.83335   0.83334   0.04760   0.00000  Uiso   1.00
O409   O     0.83333   0.77225   0.20487   0.00000  Uiso   1.00
O410   O     0.83334   0.89442   0.12846   0.00000  Uiso   1.00
O411   O     0.83333   0.77226   0.12843   0.00000  Uiso   1.00
O412   O     0.83334   0.89441   0.20490   0.00000  Uiso   1.00
O413   O     0.75725   0.83333   0.19595   0.00000  Uiso   1.00
O414   O     0.90942   0.83334   0.13739   0.00000  Uiso   1.00
O415   O     0.75725   0.83334   0.11950   0.00000  Uiso   1.00
O416   O     0.90942   0.83333   0.21383   0.00000  Uiso   1.00
Zn417  Zn    0.83333   0.83333   0.21771   0.00000  Uiso   1.00
Zn418  Zn    0.83333   0.83334   0.11563   0.00000  Uiso   1.00
C419   C     0.74274   0.95619   0.11536   0.00000  Uiso   1.00
H420   H     0.73753   0.92261   0.11841   0.00000  Uiso   1.00
O421   O     0.70901   0.97520   0.09057   0.00000  Uiso   1.00
C422   C     0.92393   0.71047   0.21797   0.00000  Uiso   1.00
H423   H     0.92912   0.74406   0.21495   0.00000  Uiso   1.00
O424   O     0.95768   0.69146   0.24274   0.00000  Uiso   1.00
C425   C     0.88407   0.90109   0.29636   0.00000  Uiso   1.00
O426   O     0.91929   0.89493   0.27408   0.00000  Uiso   1.00
O427   O     0.87181   0.94207   0.30821   0.00000  Uiso   1.00
H428   H     0.89418   0.96399   0.29562   0.00000  Uiso   1.00
C429   C     0.78260   0.76558   0.03697   0.00000  Uiso   1.00
O430   O     0.74737   0.77174   0.05925   0.00000  Uiso   1.00
O431   O     0.79486   0.72460   0.02513   0.00000  Uiso   1.00
H432   H     0.77250   0.70268   0.03773   0.00000  Uiso   1.00
C433   C     0.16790   0.08687   0.49983   0.00000  Uiso   1.00
C434   C     0.16544   0.24647   0.50017   0.00000  Uiso   1.00
C435   C     0.06708   0.16659   0.48800   0.00000  Uiso   1.00
C436   C     0.26625   0.16675   0.51200   0.00000  Uiso   1.00
C437   C     0.01191   0.16667   0.48165   0.00000  Uiso   1.00
C438   C     0.32143   0.16666   0.51835   0.00000  Uiso   1.00
C439   C     0.12607   0.02181   0.47405   0.00000  Uiso   1.00
C440   C     0.20727   0.31152   0.52595   0.00000  Uiso   1.00
C441   C     0.12293   0.31185   0.47435   0.00000  Uiso   1.00
C442   C     0.21041   0.02149   0.52565   0.00000  Uiso   1.00
C443   C     0.16430   0.29064   0.50059   0.00000  Uiso   1.00
C444   C     0.16903   0.04269   0.49941   0.00000  Uiso   1.00
C445   C     0.18963   0.19873   0.36145   0.00000  Uiso   1.00
C446   C     0.14370   0.13460   0.63855   0.00000  Uiso   1.00
C447   C     0.19019   0.19884   0.64719   0.00000  Uiso   1.00
C448   C     0.14314   0.13449   0.35281   0.00000  Uiso   1.00
H449   H     0.32439   0.16679   0.44690   0.00000  Uiso   1.00
H450   H     0.00894   0.16654   0.55310   0.00000  Uiso   1.00
H451   H     0.09447   0.03959   0.45518   0.00000  Uiso   1.00
H452   H     0.23886   0.29374   0.54482   0.00000  Uiso   1.00
H453   H     0.20843   0.22407   0.38301   0.00000  Uiso   1.00
H454   H     0.12490   0.10926   0.61699   0.00000  Uiso   1.00
N455   N     0.16665   0.16666   0.61907   0.00000  Uiso   1.00
N456   N     0.16668   0.16668   0.38093   0.00000  Uiso   1.00
O457   O     0.16666   0.10558   0.53821   0.00000  Uiso   1.00
O458   O     0.16667   0.22775   0.46179   0.00000  Uiso   1.00
O459   O     0.16666   0.10559   0.46176   0.00000  Uiso   1.00
O460   O     0.16667   0.22774   0.53824   0.00000  Uiso   1.00
O461   O     0.09058   0.16666   0.52928   0.00000  Uiso   1.00
O462   O     0.24275   0.16667   0.47072   0.00000  Uiso   1.00
O463   O     0.09058   0.16667   0.45284   0.00000  Uiso   1.00
O464   O     0.24275   0.16666   0.54716   0.00000  Uiso   1.00
Zn465  Zn    0.16667   0.16666   0.55104   0.00000  Uiso   1.00
Zn466  Zn    0.16667   0.16667   0.44896   0.00000  Uiso   1.00
C467   C     0.07607   0.28953   0.44869   0.00000  Uiso   1.00
H468   H     0.07086   0.25594   0.45174   0.00000  Uiso   1.00
O469   O     0.04234   0.30853   0.42390   0.00000  Uiso   1.00
C470   C     0.25726   0.04381   0.55131   0.00000  Uiso   1.00
H471   H     0.26246   0.07740   0.54828   0.00000  Uiso   1.00
O472   O     0.29101   0.02479   0.57607   0.00000  Uiso   1.00
C473   C     0.21740   0.23442   0.62970   0.00000  Uiso   1.00
O474   O     0.25263   0.22826   0.60741   0.00000  Uiso   1.00
O475   O     0.20514   0.27540   0.64154   0.00000  Uiso   1.00
H476   H     0.22751   0.29732   0.62895   0.00000  Uiso   1.00
C477   C     0.11593   0.09891   0.37030   0.00000  Uiso   1.00
O478   O     0.08070   0.10507   0.39259   0.00000  Uiso   1.00
O479   O     0.12820   0.05793   0.35847   0.00000  Uiso   1.00
H480   H     0.10583   0.03601   0.37106   0.00000  Uiso   1.00
C481   C     0.50123   0.08687   0.49983   0.00000  Uiso   1.00
C482   C     0.49877   0.24647   0.50017   0.00000  Uiso   1.00
C483   C     0.40042   0.16659   0.48800   0.00000  Uiso   1.00
C484   C     0.59958   0.16675   0.51200   0.00000  Uiso   1.00
C485   C     0.34524   0.16667   0.48165   0.00000  Uiso   1.00
C486   C     0.65476   0.16666   0.51835   0.00000  Uiso   1.00
C487   C     0.45940   0.02181   0.47405   0.00000  Uiso   1.00
C488   C     0.54060   0.31152   0.52595   0.00000  Uiso   1.00
C489   C     0.45626   0.31185   0.47435   0.00000  Uiso   1.00
C490   C     0.54374   0.02149   0.52565   0.00000  Uiso   1.00
C491   C     0.49764   0.29064   0.50059   0.00000  Uiso   1.00
C492   C     0.50237   0.04269   0.49941   0.00000  Uiso   1.00
C493   C     0.52297   0.19873   0.36145   0.00000  Uiso   1.00
C494   C     0.47703   0.13460   0.63855   0.00000  Uiso   1.00
C495   C     0.52353   0.19884   0.64719   0.00000  Uiso   1.00
C496   C     0.47647   0.13449   0.35281   0.00000  Uiso   1.00
H497   H     0.65772   0.16679   0.44690   0.00000  Uiso   1.00
H498   H     0.34227   0.16654   0.55310   0.00000  Uiso   1.00
H499   H     0.42781   0.03959   0.45518   0.00000  Uiso   1.00
H500   H     0.57220   0.29374   0.54482   0.00000  Uiso   1.00
H501   H     0.54176   0.22407   0.38301   0.00000  Uiso   1.00
H502   H     0.45824   0.10926   0.61699   0.00000  Uiso   1.00
N503   N     0.49999   0.16666   0.61907   0.00000  Uiso   1.00
N504   N     0.50001   0.16668   0.38093   0.00000  Uiso   1.00
O505   O     0.50000   0.10558   0.53821   0.00000  Uiso   1.00
O506   O     0.50000   0.22775   0.46179   0.00000  Uiso   1.00
O507   O     0.50000   0.10559   0.46176   0.00000  Uiso   1.00
O508   O     0.50000   0.22774   0.53824   0.00000  Uiso   1.00
O509   O     0.42392   0.16666   0.52928   0.00000  Uiso   1.00
O510   O     0.57608   0.16667   0.47072   0.00000  Uiso   1.00
O511   O     0.42392   0.16667   0.45284   0.00000  Uiso   1.00
O512   O     0.57608   0.16666   0.54716   0.00000  Uiso   1.00
Zn513  Zn    0.50000   0.16666   0.55104   0.00000  Uiso   1.00
Zn514  Zn    0.50000   0.16667   0.44896   0.00000  Uiso   1.00
C515   C     0.40941   0.28953   0.44869   0.00000  Uiso   1.00
H516   H     0.40419   0.25594   0.45174   0.00000  Uiso   1.00
O517   O     0.37568   0.30853   0.42390   0.00000  Uiso   1.00
C518   C     0.59059   0.04381   0.55131   0.00000  Uiso   1.00
H519   H     0.59579   0.07740   0.54828   0.00000  Uiso   1.00
O520   O     0.62435   0.02479   0.57607   0.00000  Uiso   1.00
C521   C     0.55074   0.23442   0.62970   0.00000  Uiso   1.00
O522   O     0.58596   0.22826   0.60741   0.00000  Uiso   1.00
O523   O     0.53848   0.27540   0.64154   0.00000  Uiso   1.00
H524   H     0.56084   0.29732   0.62895   0.00000  Uiso   1.00
C525   C     0.44926   0.09891   0.37030   0.00000  Uiso   1.00
O526   O     0.41404   0.10507   0.39259   0.00000  Uiso   1.00
O527   O     0.46153   0.05793   0.35847   0.00000  Uiso   1.00
H528   H     0.43916   0.03601   0.37106   0.00000  Uiso   1.00
C529   C     0.83456   0.08687   0.49983   0.00000  Uiso   1.00
C530   C     0.83210   0.24647   0.50017   0.00000  Uiso   1.00
C531   C     0.73375   0.16659   0.48800   0.00000  Uiso   1.00
C532   C     0.93292   0.16675   0.51200   0.00000  Uiso   1.00
C533   C     0.67857   0.16667   0.48165   0.00000  Uiso   1.00
C534   C     0.98809   0.16666   0.51835   0.00000  Uiso   1.00
C535   C     0.79274   0.02181   0.47405   0.00000  Uiso   1.00
C536   C     0.87393   0.31152   0.52595   0.00000  Uiso   1.00
C537   C     0.78959   0.31185   0.47435   0.00000  Uiso   1.00
C538   C     0.87708   0.02149   0.52565   0.00000  Uiso   1.00
C539   C     0.83097   0.29064   0.50059   0.00000  Uiso   1.00
C540   C     0.83570   0.04269   0.49941   0.00000  Uiso   1.00
C541   C     0.85630   0.19873   0.36145   0.00000  Uiso   1.00
C542   C     0.81037   0.13460   0.63855   0.00000  Uiso   1.00
C543   C     0.85686   0.19884   0.64719   0.00000  Uiso   1.00
C544   C     0.80981   0.13449   0.35281   0.00000  Uiso   1.00
H545   H     0.99106   0.16679   0.44690   0.00000  Uiso   1.00
H546   H     0.67561   0.16654   0.55310   0.00000  Uiso   1.00
H547   H     0.76114   0.03959   0.45518   0.00000  Uiso   1.00
H548   H     0.90553   0.29374   0.54482   0.00000  Uiso   1.00
H549   H     0.87510   0.22407   0.38301   0.00000  Uiso   1.00
H550   H     0.79157   0.10926   0.61699   0.00000  Uiso   1.00
N551   N     0.83332   0.16666   0.61907   0.00000  Uiso   1.00
N552   N     0.83335   0.16668   0.38093   0.00000  Uiso   1.00
O553   O     0.83333   0.10558   0.53821   0.00000  Uiso   1.00
O554   O     0.83334   0.22775   0.46179   0.00000  Uiso   1.00
O555   O     0.83333   0.10559   0.46176   0.00000  Uiso   1.00
O556   O     0.83334   0.22774   0.53824   0.00000  Uiso   1.00
O557   O     0.75725   0.16666   0.52928   0.00000  Uiso   1.00
O558   O     0.90942   0.16667   0.47072   0.00000  Uiso   1.00
O559   O     0.75725   0.16667   0.45284   0.00000  Uiso   1.00
O560   O     0.90942   0.16666   0.54716   0.00000  Uiso   1.00
Zn561  Zn    0.83333   0.16666   0.55104   0.00000  Uiso   1.00
Zn562  Zn    0.83333   0.16667   0.44896   0.00000  Uiso   1.00
C563   C     0.74274   0.28953   0.44869   0.00000  Uiso   1.00
H564   H     0.73753   0.25594   0.45174   0.00000  Uiso   1.00
O565   O     0.70901   0.30853   0.42390   0.00000  Uiso   1.00
C566   C     0.92393   0.04381   0.55131   0.00000  Uiso   1.00
H567   H     0.92912   0.07740   0.54828   0.00000  Uiso   1.00
O568   O     0.95768   0.02479   0.57607   0.00000  Uiso   1.00
C569   C     0.88407   0.23442   0.62970   0.00000  Uiso   1.00
O570   O     0.91929   0.22826   0.60741   0.00000  Uiso   1.00
O571   O     0.87181   0.27540   0.64154   0.00000  Uiso   1.00
H572   H     0.89418   0.29732   0.62895   0.00000  Uiso   1.00
C573   C     0.78260   0.09891   0.37030   0.00000  Uiso   1.00
O574   O     0.74737   0.10507   0.39259   0.00000  Uiso   1.00
O575   O     0.79486   0.05793   0.35847   0.00000  Uiso   1.00
H576   H     0.77250   0.03601   0.37106   0.00000  Uiso   1.00
C577   C     0.16790   0.42020   0.49983   0.00000  Uiso   1.00
C578   C     0.16544   0.57980   0.50017   0.00000  Uiso   1.00
C579   C     0.06708   0.49992   0.48800   0.00000  Uiso   1.00
C580   C     0.26625   0.50008   0.51200   0.00000  Uiso   1.00
C581   C     0.01191   0.50001   0.48165   0.00000  Uiso   1.00
C582   C     0.32143   0.49999   0.51835   0.00000  Uiso   1.00
C583   C     0.12607   0.35515   0.47405   0.00000  Uiso   1.00
C584   C     0.20727   0.64485   0.52595   0.00000  Uiso   1.00
C585   C     0.12293   0.64518   0.47435   0.00000  Uiso   1.00
C586   C     0.21041   0.35482   0.52565   0.00000  Uiso   1.00
C587   C     0.16430   0.62398   0.50059   0.00000  Uiso   1.00
C588   C     0.16903   0.37602   0.49941   0.00000  Uiso   1.00
C589   C     0.18963   0.53206   0.36145   0.00000  Uiso   1.00
C590   C     0.14370   0.46794   0.63855   0.00000  Uiso   1.00
C591   C     0.19019   0.53217   0.64719   0.00000  Uiso   1.00
C592   C     0.14314   0.46782   0.35281   0.00000  Uiso   1.00
H593   H     0.32439   0.50012   0.44690   0.00000  Uiso   1.00
H594   H     0.00894   0.49988   0.55310   0.00000  Uiso   1.00
H595   H     0.09447   0.37293   0.45518   0.00000  Uiso   1.00
H596   H     0.23886   0.62707   0.54482   0.00000  Uiso   1.00
H597   H     0.20843   0.55740   0.38301   0.00000  Uiso   1.00
H598   H     0.12490   0.44260   0.61699   0.00000  Uiso   1.00
N599   N     0.16665   0.49999   0.61907   0.00000  Uiso   1.00
N600   N     0.16668   0.50001   0.38093   0.00000  Uiso   1.00
O601   O     0.16666   0.43892   0.53821   0.00000  Uiso   1.00
O602   O     0.16667   0.56108   0.46179   0.00000  Uiso   1.00
O603   O     0.16666   0.43893   0.46176   0.00000  Uiso   1.00
O604   O     0.16667   0.56107   0.53824   0.00000  Uiso   1.00
O605   O     0.09058   0.50000   0.52928   0.00000  Uiso   1.00
O606   O     0.24275   0.50000   0.47072   0.00000  Uiso   1.00
O607   O     0.09058   0.50000   0.45284   0.00000  Uiso   1.00
O608   O     0.24275   0.50000   0.54716   0.00000  Uiso   1.00
Zn609  Zn    0.16667   0.49999   0.55104   0.00000  Uiso   1.00
Zn610  Zn    0.16667   0.50001   0.44896   0.00000  Uiso   1.00
C611   C     0.07607   0.62286   0.44869   0.00000  Uiso   1.00
H612   H     0.07086   0.58928   0.45174   0.00000  Uiso   1.00
O613   O     0.04234   0.64186   0.42390   0.00000  Uiso   1.00
C614   C     0.25726   0.37714   0.55131   0.00000  Uiso   1.00
H615   H     0.26246   0.41073   0.54828   0.00000  Uiso   1.00
O616   O     0.29101   0.35813   0.57607   0.00000  Uiso   1.00
C617   C     0.21740   0.56776   0.62970   0.00000  Uiso   1.00
O618   O     0.25263   0.56159   0.60741   0.00000  Uiso   1.00
O619   O     0.20514   0.60874   0.64154   0.00000  Uiso   1.00
H620   H     0.22751   0.63066   0.62895   0.00000  Uiso   1.00
C621   C     0.11593   0.43224   0.37030   0.00000  Uiso   1.00
O622   O     0.08070   0.43841   0.39259   0.00000  Uiso   1.00
O623   O     0.12820   0.39126   0.35847   0.00000  Uiso   1.00
H624   H     0.10583   0.36934   0.37106   0.00000  Uiso   1.00
C625   C     0.50123   0.42020   0.49983   0.00000  Uiso   1.00
C626   C     0.49877   0.57980   0.50017   0.00000  Uiso   1.00
C627   C     0.40042   0.49992   0.48800   0.00000  Uiso   1.00
C628   C     0.59958   0.50008   0.51200   0.00000  Uiso   1.00
C629   C     0.34524   0.50001   0.48165   0.00000  Uiso   1.00
C630   C     0.65476   0.49999   0.51835   0.00000  Uiso   1.00
C631   C     0.45940   0.35515   0.47405   0.00000  Uiso   1.00
C632   C     0.54060   0.64485   0.52595   0.00000  Uiso   1.00
C633   C     0.45626   0.64518   0.47435   0.00000  Uiso   1.00
C634   C     0.54374   0.35482   0.52565   0.00000  Uiso   1.00
C635   C     0.49764   0.62398   0.50059   0.00000  Uiso   1.00
C636   C     0.50237   0.37602   0.49941   0.00000  Uiso   1.00
C637   C     0.52297   0.53206   0.36145   0.00000  Uiso   1.00
C638   C     0.47703   0.46794   0.63855   0.00000  Uiso   1.00
C639   C     0.52353   0.53217   0.64719   0.00000  Uiso   1.00
C640   C     0.47647   0.46782   0.35281   0.00000  Uiso   1.00
H641   H     0.65772   0.50012   0.44690   0.00000  Uiso   1.00
H642   H     0.34227   0.49988   0.55310   0.00000  Uiso   1.00
H643   H     0.42781   0.37293   0.45518   0.00000  Uiso   1.00
H644   H     0.57220   0.62707   0.54482   0.00000  Uiso   1.00
H645   H     0.54176   0.55740   0.38301   0.00000  Uiso   1.00
H646   H     0.45824   0.44260   0.61699   0.00000  Uiso   1.00
N647   N     0.49999   0.49999   0.61907   0.00000  Uiso   1.00
N648   N     0.50001   0.50001   0.38093   0.00000  Uiso   1.00
O649   O     0.50000   0.43892   0.53821   0.00000  Uiso   1.00
O650   O     0.50000   0.56108   0.46179   0.00000  Uiso   1.00
O651   O     0.50000   0.43893   0.46176   0.00000  Uiso   1.00
O652   O     0.50000   0.56107   0.53824   0.00000  Uiso   1.00
O653   O     0.42392   0.50000   0.52928   0.00000  Uiso   1.00
O654   O     0.57608   0.50000   0.47072   0.00000  Uiso   1.00
O655   O     0.42392   0.50000   0.45284   0.00000  Uiso   1.00
O656   O     0.57608   0.50000   0.54716   0.00000  Uiso   1.00
Zn657  Zn    0.50000   0.49999   0.55104   0.00000  Uiso   1.00
Zn658  Zn    0.50000   0.50001   0.44896   0.00000  Uiso   1.00
C659   C     0.40941   0.62286   0.44869   0.00000  Uiso   1.00
H660   H     0.40419   0.58928   0.45174   0.00000  Uiso   1.00
O661   O     0.37568   0.64186   0.42390   0.00000  Uiso   1.00
C662   C     0.59059   0.37714   0.55131   0.00000  Uiso   1.00
H663   H     0.59579   0.41073   0.54828   0.00000  Uiso   1.00
O664   O     0.62435   0.35813   0.57607   0.00000  Uiso   1.00
C665   C     0.55074   0.56776   0.62970   0.00000  Uiso   1.00
O666   O     0.58596   0.56159   0.60741   0.00000  Uiso   1.00
O667   O     0.53848   0.60874   0.64154   0.00000  Uiso   1.00
H668   H     0.56084   0.63066   0.62895   0.00000  Uiso   1.00
C669   C     0.44926   0.43224   0.37030   0.00000  Uiso   1.00
O670   O     0.41404   0.43841   0.39259   0.00000  Uiso   1.00
O671   O     0.46153   0.39126   0.35847   0.00000  Uiso   1.00
H672   H     0.43916   0.36934   0.37106   0.00000  Uiso   1.00
C673   C     0.83456   0.42020   0.49983   0.00000  Uiso   1.00
C674   C     0.83210   0.57980   0.50017   0.00000  Uiso   1.00
C675   C     0.73375   0.49992   0.48800   0.00000  Uiso   1.00
C676   C     0.93292   0.50008   0.51200   0.00000  Uiso   1.00
C677   C     0.67857   0.50001   0.48165   0.00000  Uiso   1.00
C678   C     0.98809   0.49999   0.51835   0.00000  Uiso   1.00
C679   C     0.79274   0.35515   0.47405   0.00000  Uiso   1.00
C680   C     0.87393   0.64485   0.52595   0.00000  Uiso   1.00
C681   C     0.78959   0.64518   0.47435   0.00000  Uiso   1.00
C682   C     0.87708   0.35482   0.52565   0.00000  Uiso   1.00
C683   C     0.83097   0.62398   0.50059   0.00000  Uiso   1.00
C684   C     0.83570   0.37602   0.49941   0.00000  Uiso   1.00
C685   C     0.85630   0.53206   0.36145   0.00000  Uiso   1.00
C686   C     0.81037   0.46794   0.63855   0.00000  Uiso   1.00
C687   C     0.85686   0.53217   0.64719   0.00000  Uiso   1.00
C688   C     0.80981   0.46782   0.35281   0.00000  Uiso   1.00
H689   H     0.99106   0.50012   0.44690   0.00000  Uiso   1.00
H690   H     0.67561   0.49988   0.55310   0.00000  Uiso   1.00
H691   H     0.76114   0.37293   0.45518   0.00000  Uiso   1.00
H692   H     0.90553   0.62707   0.54482   0.00000  Uiso   1.00
H693   H     0.87510   0.55740   0.38301   0.00000  Uiso   1.00
H694   H     0.79157   0.44260   0.61699   0.00000  Uiso   1.00
N695   N     0.83332   0.49999   0.61907   0.00000  Uiso   1.00
N696   N     0.83335   0.50001   0.38093   0.00000  Uiso   1.00
O697   O     0.83333   0.43892   0.53821   0.00000  Uiso   1.00
O698   O     0.83334   0.56108   0.46179   0.00000  Uiso   1.00
O699   O     0.83333   0.43893   0.46176   0.00000  Uiso   1.00
O700   O     0.83334   0.56107   0.53824   0.00000  Uiso   1.00
O701   O     0.75725   0.50000   0.52928   0.00000  Uiso   1.00
O702   O     0.90942   0.50000   0.47072   0.00000  Uiso   1.00
O703   O     0.75725   0.50000   0.45284   0.00000  Uiso   1.00
O704   O     0.90942   0.50000   0.54716   0.00000  Uiso   1.00
Zn705  Zn    0.83333   0.49999   0.55104   0.00000  Uiso   1.00
Zn706  Zn    0.83333   0.50001   0.44896   0.00000  Uiso   1.00
C707   C     0.74274   0.62286   0.44869   0.00000  Uiso   1.00
H708   H     0.73753   0.58928   0.45174   0.00000  Uiso   1.00
O709   O     0.70901   0.64186   0.42390   0.00000  Uiso   1.00
C710   C     0.92393   0.37714   0.55131   0.00000  Uiso   1.00
H711   H     0.92912   0.41073   0.54828   0.00000  Uiso   1.00
O712   O     0.95768   0.35813   0.57607   0.00000  Uiso   1.00
C713   C     0.88407   0.56776   0.62970   0.00000  Uiso   1.00
O714   O     0.91929   0.56159   0.60741   0.00000  Uiso   1.00
O715   O     0.87181   0.60874   0.64154   0.00000  Uiso   1.00
H716   H     0.89418   0.63066   0.62895   0.00000  Uiso   1.00
C717   C     0.78260   0.43224   0.37030   0.00000  Uiso   1.00
O718   O     0.74737   0.43841   0.39259   0.00000  Uiso   1.00
O719   O     0.79486   0.39126   0.35847   0.00000  Uiso   1.00
H720   H     0.77250   0.36934   0.37106   0.00000  Uiso   1.00
C721   C     0.16790   0.75353   0.49983   0.00000  Uiso   1.00
C722   C     0.16544   0.91313   0.50017   0.00000  Uiso   1.00
C723   C     0.06708   0.83325   0.48800   0.00000  Uiso   1.00
C724   C     0.26625   0.83341   0.51200   0.00000  Uiso   1.00
C725   C     0.01191   0.83334   0.48165   0.00000  Uiso   1.00
C726   C     0.32143   0.83333   0.51835   0.00000  Uiso   1.00
C727   C     0.12607   0.68848   0.47405   0.00000  Uiso   1.00
C728   C     0.20727   0.97819   0.52595   0.00000  Uiso   1.00
C729   C     0.12293   0.97851   0.47435   0.00000  Uiso   1.00
C730   C     0.21041   0.68815   0.52565   0.00000  Uiso   1.00
C731   C     0.16430   0.95731   0.50059   0.00000  Uiso   1.00
C732   C     0.16903   0.70936   0.49941   0.00000  Uiso   1.00
C733   C     0.18963   0.86539   0.36145   0.00000  Uiso   1.00
C734   C     0.14370   0.80127   0.63855   0.00000  Uiso   1.00
C735   C     0.19019   0.86551   0.64719   0.00000  Uiso   1.00
C736   C     0.14314   0.80116   0.35281   0.00000  Uiso   1.00
H737   H     0.32439   0.83346   0.44690   0.00000  Uiso   1.00
H738   H     0.00894   0.83321   0.55310   0.00000  Uiso   1.00
H739   H     0.09447   0.70626   0.45518   0.00000  Uiso   1.00
H740   H     0.23886   0.96041   0.54482   0.00000  Uiso   1.00
H741   H     0.20843   0.89074   0.38301   0.00000  Uiso   1.00
H742   H     0.12490   0.77593   0.61699   0.00000  Uiso   1.00
N743   N     0.16665   0.83332   0.61907   0.00000  Uiso   1.00
N744   N     0.16668   0.83334   0.38093   0.00000  Uiso   1.00
O745   O     0.16666   0.77225   0.53821   0.00000  Uiso   1.00
O746   O     0.16667   0.89442   0.46179   0.00000  Uiso   1.00
O747   O     0.16666   0.77226   0.46176   0.00000  Uiso   1.00
O748   O     0.16667   0.89441   0.53824   0.00000  Uiso   1.00
O749   O     0.09058   0.83333   0.52928   0.00000  Uiso   1.00
O750   O     0.24275   0.83334   0.47072   0.00000  Uiso   1.00
O751   O     0.09058   0.83334   0.45284   0.00000  Uiso   1.00
O752   O     0.24275   0.83333   0.54716   0.00000  Uiso   1.00
Zn753  Zn    0.16667   0.83333   0.55104   0.00000  Uiso   1.00
Zn754  Zn    0.16667   0.83334   0.44896   0.00000  Uiso   1.00
C755   C     0.07607   0.95619   0.44869   0.00000  Uiso   1.00
H756   H     0.07086   0.92261   0.45174   0.00000  Uiso   1.00
O757   O     0.04234   0.97520   0.42390   0.00000  Uiso   1.00
C758   C     0.25726   0.71047   0.55131   0.00000  Uiso   1.00
H759   H     0.26246   0.74406   0.54828   0.00000  Uiso   1.00
O760   O     0.29101   0.69146   0.57607   0.00000  Uiso   1.00
C761   C     0.21740   0.90109   0.62970   0.00000  Uiso   1.00
O762   O     0.25263   0.89493   0.60741   0.00000  Uiso   1.00
O763   O     0.20514   0.94207   0.64154   0.00000  Uiso   1.00
H764   H     0.22751   0.96399   0.62895   0.00000  Uiso   1.00
C765   C     0.11593   0.76558   0.37030   0.00000  Uiso   1.00
O766   O     0.08070   0.77174   0.39259   0.00000  Uiso   1.00
O767   O     0.12820   0.72460   0.35847   0.00000  Uiso   1.00
H768   H     0.10583   0.70268   0.37106   0.00000  Uiso   1.00
C769   C     0.50123   0.75353   0.49983   0.00000  Uiso   1.00
C770   C     0.49877   0.91313   0.50017   0.00000  Uiso   1.00
C771   C     0.40042   0.83325   0.48800   0.00000  Uiso   1.00
C772   C     0.59958   0.83341   0.51200   0.00000  Uiso   1.00
C773   C     0.34524   0.83334   0.48165   0.00000  Uiso   1.00
C774   C     0.65476   0.83333   0.51835   0.00000  Uiso   1.00
C775   C     0.45940   0.68848   0.47405   0.00000  Uiso   1.00
C776   C     0.54060   0.97819   0.52595   0.00000  Uiso   1.00
C777   C     0.45626   0.97851   0.47435   0.00000  Uiso   1.00
C778   C     0.54374   0.68815   0.52565   0.00000  Uiso   1.00
C779   C     0.49764   0.95731   0.50059   0.00000  Uiso   1.00
C780   C     0.50237   0.70936   0.49941   0.00000  Uiso   1.00
C781   C     0.52297   0.86539   0.36145   0.00000  Uiso   1.00
C782   C     0.47703   0.80127   0.63855   0.00000  Uiso   1.00
C783   C     0.52353   0.86551   0.64719   0.00000  Uiso   1.00
C784   C     0.47647   0.80116   0.35281   0.00000  Uiso   1.00
H785   H     0.65772   0.83346   0.44690   0.00000  Uiso   1.00
H786   H     0.34227   0.83321   0.55310   0.00000  Uiso   1.00
H787   H     0.42781   0.70626   0.45518   0.00000  Uiso   1.00
H788   H     0.57220   0.96041   0.54482   0.00000  Uiso   1.00
H789   H     0.54176   0.89074   0.38301   0.00000  Uiso   1.00
H790   H     0.45824   0.77593   0.61699   0.00000  Uiso   1.00
N791   N     0.49999   0.83332   0.61907   0.00000  Uiso   1.00
N792   N     0.50001   0.83334   0.38093   0.00000  Uiso   1.00
O793   O     0.50000   0.77225   0.53821   0.00000  Uiso   1.00
O794   O     0.50000   0.89442   0.46179   0.00000  Uiso   1.00
O795   O     0.50000   0.77226   0.46176   0.00000  Uiso   1.00
O796   O     0.50000   0.89441   0.53824   0.00000  Uiso   1.00
O797   O     0.42392   0.83333   0.52928   0.00000  Uiso   1.00
O798   O     0.57608   0.83334   0.47072   0.00000  Uiso   1.00
O799   O     0.42392   0.83334   0.45284   0.00000  Uiso   1.00
O800   O     0.57608   0.83333   0.54716   0.00000  Uiso   1.00
Zn801  Zn    0.50000   0.83333   0.55104   0.00000  Uiso   1.00
Zn802  Zn    0.50000   0.83334   0.44896   0.00000  Uiso   1.00
C803   C     0.40941   0.95619   0.44869   0.00000  Uiso   1.00
H804   H     0.40419   0.92261   0.45174   0.00000  Uiso   1.00
O805   O     0.37568   0.97520   0.42390   0.00000  Uiso   1.00
C806   C     0.59059   0.71047   0.55131   0.00000  Uiso   1.00
H807   H     0.59579   0.74406   0.54828   0.00000  Uiso   1.00
O808   O     0.62435   0.69146   0.57607   0.00000  Uiso   1.00
C809   C     0.55074   0.90109   0.62970   0.00000  Uiso   1.00
O810   O     0.58596   0.89493   0.60741   0.00000  Uiso   1.00
O811   O     0.53848   0.94207   0.64154   0.00000  Uiso   1.00
H812   H     0.56084   0.96399   0.62895   0.00000  Uiso   1.00
C813   C     0.44926   0.76558   0.37030   0.00000  Uiso   1.00
O814   O     0.41404   0.77174   0.39259   0.00000  Uiso   1.00
O815   O     0.46153   0.72460   0.35847   0.00000  Uiso   1.00
H816   H     0.43916   0.70268   0.37106   0.00000  Uiso   1.00
C817   C     0.83456   0.75353   0.49983   0.00000  Uiso   1.00
C818   C     0.83210   0.91313   0.50017   0.00000  Uiso   1.00
C819   C     0.73375   0.83325   0.48800   0.00000  Uiso   1.00
C820   C     0.93292   0.83341   0.51200   0.00000  Uiso   1.00
C821   C     0.67857   0.83334   0.48165   0.00000  Uiso   1.00
C822   C     0.98809   0.83333   0.51835   0.00000  Uiso   1.00
C823   C     0.79274   0.68848   0.47405   0.00000  Uiso   1.00
C824   C     0.87393   0.97819   0.52595   0.00000  Uiso   1.00
C825   C     0.78959   0.97851   0.47435   0.00000  Uiso   1.00
C826   C     0.87708   0.68815   0.52565   0.00000  Uiso   1.00
C827   C     0.83097   0.95731   0.50059   0.00000  Uiso   1.00
C828   C     0.83570   0.70936   0.49941   0.00000  Uiso   1.00
C829   C     0.85630   0.86539   0.36145   0.00000  Uiso   1.00
C830   C     0.81037   0.80127   0.63855   0.00000  Uiso   1.00
C831   C     0.85686   0.86551   0.64719   0.00000  Uiso   1.00
C832   C     0.80981   0.80116   0.35281   0.00000  Uiso   1.00
H833   H     0.99106   0.83346   0.44690   0.00000  Uiso   1.00
H834   H     0.67561   0.83321   0.55310   0.00000  Uiso   1.00
H835   H     0.76114   0.70626   0.45518   0.00000  Uiso   1.00
H836   H     0.90553   0.96041   0.54482   0.00000  Uiso   1.00
H837   H     0.87510   0.89074   0.38301   0.00000  Uiso   1.00
H838   H     0.79157   0.77593   0.61699   0.00000  Uiso   1.00
N839   N     0.83332   0.83332   0.61907   0.00000  Uiso   1.00
N840   N     0.83335   0.83334   0.38093   0.00000  Uiso   1.00
O841   O     0.83333   0.77225   0.53821   0.00000  Uiso   1.00
O842   O     0.83334   0.89442   0.46179   0.00000  Uiso   1.00
O843   O     0.83333   0.77226   0.46176   0.00000  Uiso   1.00
O844   O     0.83334   0.89441   0.53824   0.00000  Uiso   1.00
O845   O     0.75725   0.83333   0.52928   0.00000  Uiso   1.00
O846   O     0.90942   0.83334   0.47072   0.00000  Uiso   1.00
O847   O     0.75725   0.83334   0.45284   0.00000  Uiso   1.00
O848   O     0.90942   0.83333   0.54716   0.00000  Uiso   1.00
Zn849  Zn    0.83333   0.83333   0.55104   0.00000  Uiso   1.00
Zn850  Zn    0.83333   0.83334   0.44896   0.00000  Uiso   1.00
C851   C     0.74274   0.95619   0.44869   0.00000  Uiso   1.00
H852   H     0.73753   0.92261   0.45174   0.00000  Uiso   1.00
O853   O     0.70901   0.97520   0.42390   0.00000  Uiso   1.00
C854   C     0.92393   0.71047   0.55131   0.00000  Uiso   1.00
H855   H     0.92912   0.74406   0.54828   0.00000  Uiso   1.00
O856   O     0.95768   0.69146   0.57607   0.00000  Uiso   1.00
C857   C     0.88407   0.90109   0.62970   0.00000  Uiso   1.00
O858   O     0.91929   0.89493   0.60741   0.00000  Uiso   1.00
O859   O     0.87181   0.94207   0.64154   0.00000  Uiso   1.00
H860   H     0.89418   0.96399   0.62895   0.00000  Uiso   1.00
C861   C     0.78260   0.76558   0.37030   0.00000  Uiso   1.00
O862   O     0.74737   0.77174   0.39259   0.00000  Uiso   1.00
O863   O     0.79486   0.72460   0.35847   0.00000  Uiso   1.00
H864   H     0.77250   0.70268   0.37106   0.00000  Uiso   1.00
C865   C     0.16790   0.08687   0.83316   0.00000  Uiso   1.00
C866   C     0.16544   0.24647   0.83351   0.00000  Uiso   1.00
C867   C     0.06708   0.16659   0.82133   0.00000  Uiso   1.00
C868   C     0.26625   0.16675   0.84533   0.00000  Uiso   1.00
C869   C     0.01191   0.16667   0.81498   0.00000  Uiso   1.00
C870   C     0.32143   0.16666   0.85168   0.00000  Uiso   1.00
C871   C     0.12607   0.02181   0.80738   0.00000  Uiso   1.00
C872   C     0.20727   0.31152   0.85928   0.00000  Uiso   1.00
C873   C     0.12293   0.31185   0.80768   0.00000  Uiso   1.00
C874   C     0.21041   0.02149   0.85898   0.00000  Uiso   1.00
C875   C     0.16430   0.29064   0.83392   0.00000  Uiso   1.00
C876   C     0.16903   0.04269   0.83274   0.00000  Uiso   1.00
C877   C     0.18963   0.19873   0.69478   0.00000  Uiso   1.00
C878   C     0.14370   0.13460   0.97188   0.00000  Uiso   1.00
C879   C     0.19019   0.19884   0.98053   0.00000  Uiso   1.00
C880   C     0.14314   0.13449   0.68614   0.00000  Uiso   1.00
H881   H     0.32439   0.16679   0.78024   0.00000  Uiso   1.00
H882   H     0.00894   0.16654   0.88643   0.00000  Uiso   1.00
H883   H     0.09447   0.03959   0.78851   0.00000  Uiso   1.00
H884   H     0.23886   0.29374   0.87816   0.00000  Uiso   1.00
H885   H     0.20843   0.22407   0.71634   0.00000  Uiso   1.00
H886   H     0.12490   0.10926   0.95033   0.00000  Uiso   1.00
N887   N     0.16665   0.16666   0.95240   0.00000  Uiso   1.00
N888   N     0.16668   0.16668   0.71427   0.00000  Uiso   1.00
O889   O     0.16666   0.10558   0.87154   0.00000  Uiso   1.00
O890   O     0.16667   0.22775   0.79513   0.00000  Uiso   1.00
O891   O     0.16666   0.10559   0.79510   0.00000  Uiso   1.00
O892   O     0.16667   0.22774   0.87157   0.00000  Uiso   1.00
O893   O     0.09058   0.16666   0.86261   0.00000  Uiso   1.00
O894   O     0.24275   0.16667   0.80405   0.00000  Uiso   1.00
O895   O     0.09058   0.16667   0.78617   0.00000  Uiso   1.00
O896   O     0.24275   0.16666   0.88050   0.00000  Uiso   1.00
Zn897  Zn    0.16667   0.16666   0.88437   0.00000  Uiso   1.00
Zn898  Zn    0.16667   0.16667   0.78229   0.00000  Uiso   1.00
C899   C     0.07607   0.28953   0.78203   0.00000  Uiso   1.00
H900   H     0.07086   0.25594   0.78508   0.00000  Uiso   1.00
O901   O     0.04234   0.30853   0.75723   0.00000  Uiso   1.00
C902   C     0.25726   0.04381   0.88464   0.00000  Uiso   1.00
H903   H     0.26246   0.07740   0.88161   0.00000  Uiso   1.00
O904   O     0.29101   0.02479   0.90940   0.00000  Uiso   1.00
C905   C     0.21740   0.23442   0.96303   0.00000  Uiso   1.00
O906   O     0.25263   0.22826   0.94074   0.00000  Uiso   1.00
O907   O     0.20514   0.27540   0.97487   0.00000  Uiso   1.00
H908   H     0.22751   0.29732   0.96228   0.00000  Uiso   1.00
C909   C     0.11593   0.09891   0.70364   0.00000  Uiso   1.00
O910   O     0.08070   0.10507   0.72592   0.00000  Uiso   1.00
O911   O     0.12820   0.05793   0.69180   0.00000  Uiso   1.00
H912   H     0.10583   0.03601   0.70439   0.00000  Uiso   1.00
C913   C     0.50123   0.08687   0.83316   0.00000  Uiso   1.00
C914   C     0.49877   0.24647   0.83351   0.00000  Uiso   1.00
C915   C     0.40042   0.16659   0.82133   0.00000  Uiso   1.00
C916   C     0.59958   0.16675   0.84533   0.00000  Uiso   1.00
C917   C     0.34524   0.16667   0.81498   0.00000  Uiso   1.00
C918   C     0.65476   0.16666   0.85168   0.00000  Uiso   1.00
C919   C     0.45940   0.02181   0.80738   0.00000  Uiso   1.00
C920   C     0.54060   0.31152   0.85928   0.00000  Uiso   1.00
C921   C     0.45626   0.31185   0.80768   0.00000  Uiso   1.00
C922   C     0.54374   0.02149   0.85898   0.00000  Uiso   1.00
C923   C     0.49764   0.29064   0.83392   0.00000  Uiso   1.00
C924   C     0.50237   0.04269   0.83274   0.00000  Uiso   1.00
C925   C     0.52297   0.19873   0.69478   0.00000  Uiso   1.00
C926   C     0.47703   0.13460   0.97188   0.00000  Uiso   1.00
C927   C     0.52353   0.19884   0.98053   0.00000  Uiso   1.00
C928   C     0.47647   0.13449   0.68614   0.00000  Uiso   1.00
H929   H     0.65772   0.16679   0.78024   0.00000  Uiso   1.00
H930   H     0.34227   0.16654   0.88643   0.00000  Uiso   1.00
H931   H     0.42781   0.03959   0.78851   0.00000  Uiso   1.00
H932   H     0.57220   0.29374   0.87816   0.00000  Uiso   1.00
H933   H     0.54176   0.22407   0.71634   0.00000  Uiso   1.00
H934   H     0.45824   0.10926   0.95033   0.00000  Uiso   1.00
N935   N     0.49999   0.16666   0.95240   0.00000  Uiso   1.00
N936   N     0.50001   0.16668   0.71427   0.00000  Uiso   1.00
O937   O     0.50000   0.10558   0.87154   0.00000  Uiso   1.00
O938   O     0.50000   0.22775   0.79513   0.00000  Uiso   1.00
O939   O     0.50000   0.10559   0.79510   0.00000  Uiso   1.00
O940   O     0.50000   0.22774   0.87157   0.00000  Uiso   1.00
O941   O     0.42392   0.16666   0.86261   0.00000  Uiso   1.00
O942   O     0.57608   0.16667   0.80405   0.00000  Uiso   1.00
O943   O     0.42392   0.16667   0.78617   0.00000  Uiso   1.00
O944   O     0.57608   0.16666   0.88050   0.00000  Uiso   1.00
Zn945  Zn    0.50000   0.16666   0.88437   0.00000  Uiso   1.00
Zn946  Zn    0.50000   0.16667   0.78229   0.00000  Uiso   1.00
C947   C     0.40941   0.28953   0.78203   0.00000  Uiso   1.00
H948   H     0.40419   0.25594   0.78508   0.00000  Uiso   1.00
O949   O     0.37568   0.30853   0.75723   0.00000  Uiso   1.00
C950   C     0.59059   0.04381   0.88464   0.00000  Uiso   1.00
H951   H     0.59579   0.07740   0.88161   0.00000  Uiso   1.00
O952   O     0.62435   0.02479   0.90940   0.00000  Uiso   1.00
C953   C     0.55074   0.23442   0.96303   0.00000  Uiso   1.00
O954   O     0.58596   0.22826   0.94074   0.00000  Uiso   1.00
O955   O     0.53848   0.27540   0.97487   0.00000  Uiso   1.00
H956   H     0.56084   0.29732   0.96228   0.00000  Uiso   1.00
C957   C     0.44926   0.09891   0.70364   0.00000  Uiso   1.00
O958   O     0.41404   0.10507   0.72592   0.00000  Uiso   1.00
O959   O     0.46153   0.05793   0.69180   0.00000  Uiso   1.00
H960   H     0.43916   0.03601   0.70439   0.00000  Uiso   1.00
C961   C     0.83456   0.08687   0.83316   0.00000  Uiso   1.00
C962   C     0.83210   0.24647   0.83351   0.00000  Uiso   1.00
C963   C     0.73375   0.16659   0.82133   0.00000  Uiso   1.00
C964   C     0.93292   0.16675   0.84533   0.00000  Uiso   1.00
C965   C     0.67857   0.16667   0.81498   0.00000  Uiso   1.00
C966   C     0.98809   0.16666   0.85168   0.00000  Uiso   1.00
C967   C     0.79274   0.02181   0.80738   0.00000  Uiso   1.00
C968   C     0.87393   0.31152   0.85928   0.00000  Uiso   1.00
C969   C     0.78959   0.31185   0.80768   0.00000  Uiso   1.00
C970   C     0.87708   0.02149   0.85898   0.00000  Uiso   1.00
C971   C     0.83097   0.29064   0.83392   0.00000  Uiso   1.00
C972   C     0.83570   0.04269   0.83274   0.00000  Uiso   1.00
C973   C     0.85630   0.19873   0.69478   0.00000  Uiso   1.00
C974   C     0.81037   0.13460   0.97188   0.00000  Uiso   1.00
C975   C     0.85686   0.19884   0.98053   0.00000  Uiso   1.00
C976   C     0.80981   0.13449   0.68614   0.00000  Uiso   1.00
H977   H     0.99106   0.16679   0.78024   0.00000  Uiso   1.00
H978   H     0.67561   0.16654   0.88643   0.00000  Uiso   1.00
H979   H     0.76114   0.03959   0.78851   0.00000  Uiso   1.00
H980   H     0.90553   0.29374   0.87816   0.00000  Uiso   1.00
H981   H     0.87510   0.22407   0.71634   0.00000  Uiso   1.00
H982   H     0.79157   0.10926   0.95033   0.00000  Uiso   1.00
N983   N     0.83332   0.16666   0.95240   0.00000  Uiso   1.00
N984   N     0.83335   0.16668   0.71427   0.00000  Uiso   1.00
O985   O     0.83333   0.10558   0.87154   0.00000  Uiso   1.00
O986   O     0.83334   0.22775   0.79513   0.00000  Uiso   1.00
O987   O     0.83333   0.10559   0.79510   0.00000  Uiso   1.00
O988   O     0.83334   0.22774   0.87157   0.00000  Uiso   1.00
O989   O     0.75725   0.16666   0.86261   0.00000  Uiso   1.00
O990   O     0.90942   0.16667   0.80405   0.00000  Uiso   1.00
O991   O     0.75725   0.16667   0.78617   0.00000  Uiso   1.00
O992   O     0.90942   0.16666   0.88050   0.00000  Uiso   1.00
Zn993  Zn    0.83333   0.16666   0.88437   0.00000  Uiso   1.00
Zn994  Zn    0.83333   0.16667   0.78229   0.00000  Uiso   1.00
C995   C     0.74274   0.28953   0.78203   0.00000  Uiso   1.00
H996   H     0.73753   0.25594   0.78508   0.00000  Uiso   1.00
O997   O     0.70901   0.30853   0.75723   0.00000  Uiso   1.00
C998   C     0.92393   0.04381   0.88464   0.00000  Uiso   1.00
H999   H     0.92912   0.07740   0.88161   0.00000  Uiso   1.00
O1000  O     0.95768   0.02479   0.90940   0.00000  Uiso   1.00
C1001  C     0.88407   0.23442   0.96303   0.00000  Uiso   1.00
O1002  O     0.91929   0.22826   0.94074   0.00000  Uiso   1.00
O1003  O     0.87181   0.27540   0.97487   0.00000  Uiso   1.00
H1004  H     0.89418   0.29732   0.96228   0.00000  Uiso   1.00
C1005  C     0.78260   0.09891   0.70364   0.00000  Uiso   1.00
O1006  O     0.74737   0.10507   0.72592   0.00000  Uiso   1.00
O1007  O     0.79486   0.05793   0.69180   0.00000  Uiso   1.00
H1008  H     0.77250   0.03601   0.70439   0.00000  Uiso   1.00
C1009  C     0.16790   0.42020   0.83316   0.00000  Uiso   1.00
C1010  C     0.16544   0.57980   0.83351   0.00000  Uiso   1.00
C1011  C     0.06708   0.49992   0.82133   0.00000  Uiso   1.00
C1012  C     0.26625   0.50008   0.84533   0.00000  Uiso   1.00
C1013  C     0.01191   0.50001   0.81498   0.00000  Uiso   1.00
C1014  C     0.32143   0.49999   0.85168   0.00000  Uiso   1.00
C1015  C     0.12607   0.35515   0.80738   0.00000  Uiso   1.00
C1016  C     0.20727   0.64485   0.85928   0.00000  Uiso   1.00
C1017  C     0.12293   0.64518   0.80768   0.00000  Uiso   1.00
C1018  C     0.21041   0.35482   0.85898   0.00000  Uiso   1.00
C1019  C     0.16430   0.62398   0.83392   0.00000  Uiso   1.00
C1020  C     0.16903   0.37602   0.83274   0.00000  Uiso   1.00
C1021  C     0.18963   0.53206   0.69478   0.00000  Uiso   1.00
C1022  C     0.14370   0.46794   0.97188   0.00000  Uiso   1.00
C1023  C     0.19019   0.53217   0.98053   0.00000  Uiso   1.00
C1024  C     0.14314   0.46782   0.68614   0.00000  Uiso   1.00
H1025  H     0.32439   0.50012   0.78024   0.00000  Uiso   1.00
H1026  H     0.00894   0.49988   0.88643   0.00000  Uiso   1.00
H1027  H     0.09447   0.37293   0.78851   0.00000  Uiso   1.00
H1028  H     0.23886   0.62707   0.87816   0.00000  Uiso   1.00
H1029  H     0.20843   0.55740   0.71634   0.00000  Uiso   1.00
H1030  H     0.12490   0.44260   0.95033   0.00000  Uiso   1.00
N1031  N     0.16665   0.49999   0.95240   0.00000  Uiso   1.00
N1032  N     0.16668   0.50001   0.71427   0.00000  Uiso   1.00
O1033  O     0.16666   0.43892   0.87154   0.00000  Uiso   1.00
O1034  O     0.16667   0.56108   0.79513   0.00000  Uiso   1.00
O1035  O     0.16666   0.43893   0.79510   0.00000  Uiso   1.00
O1036  O     0.16667   0.56107   0.87157   0.00000  Uiso   1.00
O1037  O     0.09058   0.50000   0.86261   0.00000  Uiso   1.00
O1038  O     0.24275   0.50000   0.80405   0.00000  Uiso   1.00
O1039  O     0.09058   0.50000   0.78617   0.00000  Uiso   1.00
O1040  O     0.24275   0.50000   0.88050   0.00000  Uiso   1.00
Zn1041 Zn    0.16667   0.49999   0.88437   0.00000  Uiso   1.00
Zn1042 Zn    0.16667   0.50001   0.78229   0.00000  Uiso   1.00
C1043  C     0.07607   0.62286   0.78203   0.00000  Uiso   1.00
H1044  H     0.07086   0.58928   0.78508   0.00000  Uiso   1.00
O1045  O     0.04234   0.64186   0.75723   0.00000  Uiso   1.00
C1046  C     0.25726   0.37714   0.88464   0.00000  Uiso   1.00
H1047  H     0.26246   0.41073   0.88161   0.00000  Uiso   1.00
O1048  O     0.29101   0.35813   0.90940   0.00000  Uiso   1.00
C1049  C     0.21740   0.56776   0.96303   0.00000  Uiso   1.00
O1050  O     0.25263   0.56159   0.94074   0.00000  Uiso   1.00
O1051  O     0.20514   0.60874   0.97487   0.00000  Uiso   1.00
H1052  H     0.22751   0.63066   0.96228   0.00000  Uiso   1.00
C1053  C     0.11593   0.43224   0.70364   0.00000  Uiso   1.00
O1054  O     0.08070   0.43841   0.72592   0.00000  Uiso   1.00
O1055  O     0.12820   0.39126   0.69180   0.00000  Uiso   1.00
H1056  H     0.10583   0.36934   0.70439   0.00000  Uiso   1.00
C1057  C     0.50123   0.42020   0.83316   0.00000  Uiso   1.00
C1058  C     0.49877   0.57980   0.83351   0.00000  Uiso   1.00
C1059  C     0.40042   0.49992   0.82133   0.00000  Uiso   1.00
C1060  C     0.59958   0.50008   0.84533   0.00000  Uiso   1.00
C1061  C     0.34524   0.50001   0.81498   0.00000  Uiso   1.00
C1062  C     0.65476   0.49999   0.85168   0.00000  Uiso   1.00
C1063  C     0.45940   0.35515   0.80738   0.00000  Uiso   1.00
C1064  C     0.54060   0.64485   0.85928   0.00000  Uiso   1.00
C1065  C     0.45626   0.64518   0.80768   0.00000  Uiso   1.00
C1066  C     0.54374   0.35482   0.85898   0.00000  Uiso   1.00
C1067  C     0.49764   0.62398   0.83392   0.00000  Uiso   1.00
C1068  C     0.50237   0.37602   0.83274   0.00000  Uiso   1.00
C1069  C     0.52297   0.53206   0.69478   0.00000  Uiso   1.00
C1070  C     0.47703   0.46794   0.97188   0.00000  Uiso   1.00
C1071  C     0.52353   0.53217   0.98053   0.00000  Uiso   1.00
C1072  C     0.47647   0.46782   0.68614   0.00000  Uiso   1.00
H1073  H     0.65772   0.50012   0.78024   0.00000  Uiso   1.00
H1074  H     0.34227   0.49988   0.88643   0.00000  Uiso   1.00
H1075  H     0.42781   0.37293   0.78851   0.00000  Uiso   1.00
H1076  H     0.57220   0.62707   0.87816   0.00000  Uiso   1.00
H1077  H     0.54176   0.55740   0.71634   0.00000  Uiso   1.00
H1078  H     0.45824   0.44260   0.95033   0.00000  Uiso   1.00
N1079  N     0.49999   0.49999   0.95240   0.00000  Uiso   1.00
N1080  N     0.50001   0.50001   0.71427   0.00000  Uiso   1.00
O1081  O     0.50000   0.43892   0.87154   0.00000  Uiso   1.00
O1082  O     0.50000   0.56108   0.79513   0.00000  Uiso   1.00
O1083  O     0.50000   0.43893   0.79510   0.00000  Uiso   1.00
O1084  O     0.50000   0.56107   0.87157   0.00000  Uiso   1.00
O1085  O     0.42392   0.50000   0.86261   0.00000  Uiso   1.00
O1086  O     0.57608   0.50000   0.80405   0.00000  Uiso   1.00
O1087  O     0.42392   0.50000   0.78617   0.00000  Uiso   1.00
O1088  O     0.57608   0.50000   0.88050   0.00000  Uiso   1.00
Zn1089 Zn    0.50000   0.49999   0.88437   0.00000  Uiso   1.00
Zn1090 Zn    0.50000   0.50001   0.78229   0.00000  Uiso   1.00
C1091  C     0.40941   0.62286   0.78203   0.00000  Uiso   1.00
H1092  H     0.40419   0.58928   0.78508   0.00000  Uiso   1.00
O1093  O     0.37568   0.64186   0.75723   0.00000  Uiso   1.00
C1094  C     0.59059   0.37714   0.88464   0.00000  Uiso   1.00
H1095  H     0.59579   0.41073   0.88161   0.00000  Uiso   1.00
O1096  O     0.62435   0.35813   0.90940   0.00000  Uiso   1.00
C1097  C     0.55074   0.56776   0.96303   0.00000  Uiso   1.00
O1098  O     0.58596   0.56159   0.94074   0.00000  Uiso   1.00
O1099  O     0.53848   0.60874   0.97487   0.00000  Uiso   1.00
H1100  H     0.56084   0.63066   0.96228   0.00000  Uiso   1.00
C1101  C     0.44926   0.43224   0.70364   0.00000  Uiso   1.00
O1102  O     0.41404   0.43841   0.72592   0.00000  Uiso   1.00
O1103  O     0.46153   0.39126   0.69180   0.00000  Uiso   1.00
H1104  H     0.43916   0.36934   0.70439   0.00000  Uiso   1.00
C1105  C     0.83456   0.42020   0.83316   0.00000  Uiso   1.00
C1106  C     0.83210   0.57980   0.83351   0.00000  Uiso   1.00
C1107  C     0.73375   0.49992   0.82133   0.00000  Uiso   1.00
C1108  C     0.93292   0.50008   0.84533   0.00000  Uiso   1.00
C1109  C     0.67857   0.50001   0.81498   0.00000  Uiso   1.00
C1110  C     0.98809   0.49999   0.85168   0.00000  Uiso   1.00
C1111  C     0.79274   0.35515   0.80738   0.00000  Uiso   1.00
C1112  C     0.87393   0.64485   0.85928   0.00000  Uiso   1.00
C1113  C     0.78959   0.64518   0.80768   0.00000  Uiso   1.00
C1114  C     0.87708   0.35482   0.85898   0.00000  Uiso   1.00
C1115  C     0.83097   0.62398   0.83392   0.00000  Uiso   1.00
C1116  C     0.83570   0.37602   0.83274   0.00000  Uiso   1.00
C1117  C     0.85630   0.53206   0.69478   0.00000  Uiso   1.00
C1118  C     0.81037   0.46794   0.97188   0.00000  Uiso   1.00
C1119  C     0.85686   0.53217   0.98053   0.00000  Uiso   1.00
C1120  C     0.80981   0.46782   0.68614   0.00000  Uiso   1.00
H1121  H     0.99106   0.50012   0.78024   0.00000  Uiso   1.00
H1122  H     0.67561   0.49988   0.88643   0.00000  Uiso   1.00
H1123  H     0.76114   0.37293   0.78851   0.00000  Uiso   1.00
H1124  H     0.90553   0.62707   0.87816   0.00000  Uiso   1.00
H1125  H     0.87510   0.55740   0.71634   0.00000  Uiso   1.00
H1126  H     0.79157   0.44260   0.95033   0.00000  Uiso   1.00
N1127  N     0.83332   0.49999   0.95240   0.00000  Uiso   1.00
N1128  N     0.83335   0.50001   0.71427   0.00000  Uiso   1.00
O1129  O     0.83333   0.43892   0.87154   0.00000  Uiso   1.00
O1130  O     0.83334   0.56108   0.79513   0.00000  Uiso   1.00
O1131  O     0.83333   0.43893   0.79510   0.00000  Uiso   1.00
O1132  O     0.83334   0.56107   0.87157   0.00000  Uiso   1.00
O1133  O     0.75725   0.50000   0.86261   0.00000  Uiso   1.00
O1134  O     0.90942   0.50000   0.80405   0.00000  Uiso   1.00
O1135  O     0.75725   0.50000   0.78617   0.00000  Uiso   1.00
O1136  O     0.90942   0.50000   0.88050   0.00000  Uiso   1.00
Zn1137 Zn    0.83333   0.49999   0.88437   0.00000  Uiso   1.00
Zn1138 Zn    0.83333   0.50001   0.78229   0.00000  Uiso   1.00
C1139  C     0.74274   0.62286   0.78203   0.00000  Uiso   1.00
H1140  H     0.73753   0.58928   0.78508   0.00000  Uiso   1.00
O1141  O     0.70901   0.64186   0.75723   0.00000  Uiso   1.00
C1142  C     0.92393   0.37714   0.88464   0.00000  Uiso   1.00
H1143  H     0.92912   0.41073   0.88161   0.00000  Uiso   1.00
O1144  O     0.95768   0.35813   0.90940   0.00000  Uiso   1.00
C1145  C     0.88407   0.56776   0.96303   0.00000  Uiso   1.00
O1146  O     0.91929   0.56159   0.94074   0.00000  Uiso   1.00
O1147  O     0.87181   0.60874   0.97487   0.00000  Uiso   1.00
H1148  H     0.89418   0.63066   0.96228   0.00000  Uiso   1.00
C1149  C     0.78260   0.43224   0.70364   0.00000  Uiso   1.00
O1150  O     0.74737   0.43841   0.72592   0.00000  Uiso   1.00
O1151  O     0.79486   0.39126   0.69180   0.00000  Uiso   1.00
H1152  H     0.77250   0.36934   0.70439   0.00000  Uiso   1.00
C1153  C     0.16790   0.75353   0.83316   0.00000  Uiso   1.00
C1154  C     0.16544   0.91313   0.83351   0.00000  Uiso   1.00
C1155  C     0.06708   0.83325   0.82133   0.00000  Uiso   1.00
C1156  C     0.26625   0.83341   0.84533   0.00000  Uiso   1.00
C1157  C     0.01191   0.83334   0.81498   0.00000  Uiso   1.00
C1158  C     0.32143   0.83333   0.85168   0.00000  Uiso   1.00
C1159  C     0.12607   0.68848   0.80738   0.00000  Uiso   1.00
C1160  C     0.20727   0.97819   0.85928   0.00000  Uiso   1.00
C1161  C     0.12293   0.97851   0.80768   0.00000  Uiso   1.00
C1162  C     0.21041   0.68815   0.85898   0.00000  Uiso   1.00
C1163  C     0.16430   0.95731   0.83392   0.00000  Uiso   1.00
C1164  C     0.16903   0.70936   0.83274   0.00000  Uiso   1.00
C1165  C     0.18963   0.86539   0.69478   0.00000  Uiso   1.00
C1166  C     0.14370   0.80127   0.97188   0.00000  Uiso   1.00
C1167  C     0.19019   0.86551   0.98053   0.00000  Uiso   1.00
C1168  C     0.14314   0.80116   0.68614   0.00000  Uiso   1.00
H1169  H     0.32439   0.83346   0.78024   0.00000  Uiso   1.00
H1170  H     0.00894   0.83321   0.88643   0.00000  Uiso   1.00
H1171  H     0.09447   0.70626   0.78851   0.00000  Uiso   1.00
H1172  H     0.23886   0.96041   0.87816   0.00000  Uiso   1.00
H1173  H     0.20843   0.89074   0.71634   0.00000  Uiso   1.00
H1174  H     0.12490   0.77593   0.95033   0.00000  Uiso   1.00
N1175  N     0.16665   0.83332   0.95240   0.00000  Uiso   1.00
N1176  N     0.16668   0.83334   0.71427   0.00000  Uiso   1.00
O1177  O     0.16666   0.77225   0.87154   0.00000  Uiso   1.00
O1178  O     0.16667   0.89442   0.79513   0.00000  Uiso   1.00
O1179  O     0.16666   0.77226   0.79510   0.00000  Uiso   1.00
O1180  O     0.16667   0.89441   0.87157   0.00000  Uiso   1.00
O1181  O     0.09058   0.83333   0.86261   0.00000  Uiso   1.00
O1182  O     0.24275   0.83334   0.80405   0.00000  Uiso   1.00
O1183  O     0.09058   0.83334   0.78617   0.00000  Uiso   1.00
O1184  O     0.24275   0.83333   0.88050   0.00000  Uiso   1.00
Zn1185 Zn    0.16667   0.83333   0.88437   0.00000  Uiso   1.00
Zn1186 Zn    0.16667   0.83334   0.78229   0.00000  Uiso   1.00
C1187  C     0.07607   0.95619   0.78203   0.00000  Uiso   1.00
H1188  H     0.07086   0.92261   0.78508   0.00000  Uiso   1.00
O1189  O     0.04234   0.97520   0.75723   0.00000  Uiso   1.00
C1190  C     0.25726   0.71047   0.88464   0.00000  Uiso   1.00
H1191  H     0.26246   0.74406   0.88161   0.00000  Uiso   1.00
O1192  O     0.29101   0.69146   0.90940   0.00000  Uiso   1.00
C1193  C     0.21740   0.90109   0.96303   0.00000  Uiso   1.00
O1194  O     0.25263   0.89493   0.94074   0.00000  Uiso   1.00
O1195  O     0.20514   0.94207   0.97487   0.00000  Uiso   1.00
H1196  H     0.22751   0.96399   0.96228   0.00000  Uiso   1.00
C1197  C     0.11593   0.76558   0.70364   0.00000  Uiso   1.00
O1198  O     0.08070   0.77174   0.72592   0.00000  Uiso   1.00
O1199  O     0.12820   0.72460   0.69180   0.00000  Uiso   1.00
H1200  H     0.10583   0.70268   0.70439   0.00000  Uiso   1.00
C1201  C     0.50123   0.75353   0.83316   0.00000  Uiso   1.00
C1202  C     0.49877   0.91313   0.83351   0.00000  Uiso   1.00
C1203  C     0.40042   0.83325   0.82133   0.00000  Uiso   1.00
C1204  C     0.59958   0.83341   0.84533   0.00000  Uiso   1.00
C1205  C     0.34524   0.83334   0.81498   0.00000  Uiso   1.00
C1206  C     0.65476   0.83333   0.85168   0.00000  Uiso   1.00
C1207  C     0.45940   0.68848   0.80738   0.00000  Uiso   1.00
C1208  C     0.54060   0.97819   0.85928   0.00000  Uiso   1.00
C1209  C     0.45626   0.97851   0.80768   0.00000  Uiso   1.00
C1210  C     0.54374   0.68815   0.85898   0.00000  Uiso   1.00
C1211  C     0.49764   0.95731   0.83392   0.00000  Uiso   1.00
C1212  C     0.50237   0.70936   0.83274   0.00000  Uiso   1.00
C1213  C     0.52297   0.86539   0.69478   0.00000  Uiso   1.00
C1214  C     0.47703   0.80127   0.97188   0.00000  Uiso   1.00
C1215  C     0.52353   0.86551   0.98053   0.00000  Uiso   1.00
C1216  C     0.47647   0.80116   0.68614   0.00000  Uiso   1.00
H1217  H     0.65772   0.83346   0.78024   0.00000  Uiso   1.00
H1218  H     0.34227   0.83321   0.88643   0.00000  Uiso   1.00
H1219  H     0.42781   0.70626   0.78851   0.00000  Uiso   1.00
H1220  H     0.57220   0.96041   0.87816   0.00000  Uiso   1.00
H1221  H     0.54176   0.89074   0.71634   0.00000  Uiso   1.00
H1222  H     0.45824   0.77593   0.95033   0.00000  Uiso   1.00
N1223  N     0.49999   0.83332   0.95240   0.00000  Uiso   1.00
N1224  N     0.50001   0.83334   0.71427   0.00000  Uiso   1.00
O1225  O     0.50000   0.77225   0.87154   0.00000  Uiso   1.00
O1226  O     0.50000   0.89442   0.79513   0.00000  Uiso   1.00
O1227  O     0.50000   0.77226   0.79510   0.00000  Uiso   1.00
O1228  O     0.50000   0.89441   0.87157   0.00000  Uiso   1.00
O1229  O     0.42392   0.83333   0.86261   0.00000  Uiso   1.00
O1230  O     0.57608   0.83334   0.80405   0.00000  Uiso   1.00
O1231  O     0.42392   0.83334   0.78617   0.00000  Uiso   1.00
O1232  O     0.57608   0.83333   0.88050   0.00000  Uiso   1.00
Zn1233 Zn    0.50000   0.83333   0.88437   0.00000  Uiso   1.00
Zn1234 Zn    0.50000   0.83334   0.78229   0.00000  Uiso   1.00
C1235  C     0.40941   0.95619   0.78203   0.00000  Uiso   1.00
H1236  H     0.40419   0.92261   0.78508   0.00000  Uiso   1.00
O1237  O     0.37568   0.97520   0.75723   0.00000  Uiso   1.00
C1238  C     0.59059   0.71047   0.88464   0.00000  Uiso   1.00
H1239  H     0.59579   0.74406   0.88161   0.00000  Uiso   1.00
O1240  O     0.62435   0.69146   0.90940   0.00000  Uiso   1.00
C1241  C     0.55074   0.90109   0.96303   0.00000  Uiso   1.00
O1242  O     0.58596   0.89493   0.94074   0.00000  Uiso   1.00
O1243  O     0.53848   0.94207   0.97487   0.00000  Uiso   1.00
H1244  H     0.56084   0.96399   0.96228   0.00000  Uiso   1.00
C1245  C     0.44926   0.76558   0.70364   0.00000  Uiso   1.00
O1246  O     0.41404   0.77174   0.72592   0.00000  Uiso   1.00
O1247  O     0.46153   0.72460   0.69180   0.00000  Uiso   1.00
H1248  H     0.43916   0.70268   0.70439   0.00000  Uiso   1.00
C1249  C     0.83456   0.75353   0.83316   0.00000  Uiso   1.00
C1250  C     0.83210   0.91313   0.83351   0.00000  Uiso   1.00
C1251  C     0.73375   0.83325   0.82133   0.00000  Uiso   1.00
C1252  C     0.93292   0.83341   0.84533   0.00000  Uiso   1.00
C1253  C     0.67857   0.83334   0.81498   0.00000  Uiso   1.00
C1254  C     0.98809   0.83333   0.85168   0.00000  Uiso   1.00
C1255  C     0.79274   0.68848   0.80738   0.00000  Uiso   1.00
C1256  C     0.87393   0.97819   0.85928   0.00000  Uiso   1.00
C1257  C     0.78959   0.97851   0.80768   0.00000  Uiso   1.00
C1258  C     0.87708   0.68815   0.85898   0.00000  Uiso   1.00
C1259  C     0.83097   0.95731   0.83392   0.00000  Uiso   1.00
C1260  C     0.83570   0.70936   0.83274   0.00000  Uiso   1.00
C1261  C     0.85630   0.86539   0.69478   0.00000  Uiso   1.00
C1262  C     0.81037   0.80127   0.97188   0.00000  Uiso   1.00
C1263  C     0.85686   0.86551   0.98053   0.00000  Uiso   1.00
C1264  C     0.80981   0.80116   0.68614   0.00000  Uiso   1.00
H1265  H     0.99106   0.83346   0.78024   0.00000  Uiso   1.00
H1266  H     0.67561   0.83321   0.88643   0.00000  Uiso   1.00
H1267  H     0.76114   0.70626   0.78851   0.00000  Uiso   1.00
H1268  H     0.90553   0.96041   0.87816   0.00000  Uiso   1.00
H1269  H     0.87510   0.89074   0.71634   0.00000  Uiso   1.00
H1270  H     0.79157   0.77593   0.95033   0.00000  Uiso   1.00
N1271  N     0.83332   0.83332   0.95240   0.00000  Uiso   1.00
N1272  N     0.83335   0.83334   0.71427   0.00000  Uiso   1.00
O1273  O     0.83333   0.77225   0.87154   0.00000  Uiso   1.00
O1274  O     0.83334   0.89442   0.79513   0.00000  Uiso   1.00
O1275  O     0.83333   0.77226   0.79510   0.00000  Uiso   1.00
O1276  O     0.83334   0.89441   0.87157   0.00000  Uiso   1.00
O1277  O     0.75725   0.83333   0.86261   0.00000  Uiso   1.00
O1278  O     0.90942   0.83334   0.80405   0.00000  Uiso   1.00
O1279  O     0.75725   0.83334   0.78617   0.00000  Uiso   1.00
O1280  O     0.90942   0.83333   0.88050   0.00000  Uiso   1.00
Zn1281 Zn    0.83333   0.83333   0.88437   0.00000  Uiso   1.00
Zn1282 Zn    0.83333   0.83334   0.78229   0.00000  Uiso   1.00
C1283  C     0.74274   0.95619   0.78203   0.00000  Uiso   1.00
H1284  H     0.73753   0.92261   0.78508   0.00000  Uiso   1.00
O1285  O     0.70901   0.97520   0.75723   0.00000  Uiso   1.00
C1286  C     0.92393   0.71047   0.88464   0.00000  Uiso   1.00
H1287  H     0.92912   0.74406   0.88161   0.00000  Uiso   1.00
O1288  O     0.95768   0.69146   0.90940   0.00000  Uiso   1.00
C1289  C     0.88407   0.90109   0.96303   0.00000  Uiso   1.00
O1290  O     0.91929   0.89493   0.94074   0.00000  Uiso   1.00
O1291  O     0.87181   0.94207   0.97487   0.00000  Uiso   1.00
H1292  H     0.89418   0.96399   0.96228   0.00000  Uiso   1.00
C1293  C     0.78260   0.76558   0.70364   0.00000  Uiso   1.00
O1294  O     0.74737   0.77174   0.72592   0.00000  Uiso   1.00
O1295  O     0.79486   0.72460   0.69180   0.00000  Uiso   1.00
H1296  H     0.77250   0.70268   0.70439   0.00000  Uiso   1.00
loop_
_geom_bond_atom_site_label_1
_geom_bond_atom_site_label_2
_geom_bond_distance
_geom_bond_site_symmetry_2
_ccdc_geom_bond_type
C1     O25     1.284   .     A
C1     C12     1.407   .     S
C1     O27     1.286   .     A
C2     C11     1.407   .     S
C2     O26     1.284   .     A
C2     O28     1.286   .     A
C3     O31     1.288   .     A
C3     O29     1.282   .     A
C3     C5      1.404   .     S
C4     O32     1.288   .     A
C4     C6      1.404   .     S
C4     O30     1.282   .     A
C5     C102    1.334   1_455 S
C5     H113    1.088   1_455 S
C6     C53     1.334   .     S
C6     H66     1.088   .     S
C7     H19     1.085   .     S
C7     C12     1.393   .     A
C7     C297    1.381   1_545 S
C8     H20     1.085   .     S
C8     C11     1.393   .     A
C8     C154    1.381   .     S
C9     C11     1.405   .     A
C9     C35     1.489   .     S
C9     C151    1.381   .     S
C10    C38     1.489   .     S
C10    C12     1.405   .     A
C10    C296    1.381   1_545 S
C13    H21     1.083   .     S
C13    N24     1.357   .     A
C13    C879    1.418   1_554 S
C14    N23     1.357   .     A
C14    H22     1.083   .     S
C14    C448    1.418   .     S
C15    N23     1.384   .     A
C15    C41     1.471   .     S
C15    C445    1.418   .     S
C16    C45     1.471   .     S
C16    N24     1.384   .     A
C16    C878    1.418   1_554 S
H17    C53     1.088   .     S
H18    C102    1.088   1_455 S
N23    Zn33    2.024   .     S
N24    Zn34    2.024   .     S
O25    Zn33    1.976   .     S
O26    Zn34    1.976   .     S
O27    Zn34    1.989   .     S
O28    Zn33    1.989   .     S
O29    Zn33    1.965   .     S
O30    Zn34    1.965   .     S
O31    Zn34    1.980   .     S
O32    Zn33    1.980   .     S
C35    O37     1.221   .     D
C35    H36     1.084   .     S
C38    O40     1.222   .     D
C38    H39     1.084   .     S
C41    O43     1.398   .     S
C41    O42     1.220   .     D
O43    H44     1.014   .     S
C45    O46     1.220   .     D
C45    O47     1.398   .     S
O47    H48     1.014   .     S
C49    O73     1.284   .     A
C49    C60     1.407   .     S
C49    O75     1.286   .     A
C50    C59     1.407   .     S
C50    O74     1.284   .     A
C50    O76     1.286   .     A
C51    O79     1.288   .     A
C51    O77     1.282   .     A
C51    C53     1.404   .     S
C52    O80     1.288   .     A
C52    C54     1.404   .     S
C52    O78     1.282   .     A
C54    C101    1.334   .     S
C54    H114    1.088   .     S
C55    H67     1.085   .     S
C55    C60     1.393   .     A
C55    C345    1.381   1_545 S
C56    H68     1.085   .     S
C56    C59     1.393   .     A
C56    C202    1.381   .     S
C57    C59     1.405   .     A
C57    C83     1.489   .     S
C57    C199    1.381   .     S
C58    C86     1.489   .     S
C58    C60     1.405   .     A
C58    C344    1.381   1_545 S
C61    H69     1.083   .     S
C61    N72     1.357   .     A
C61    C927    1.418   1_554 S
C62    N71     1.357   .     A
C62    H70     1.083   .     S
C62    C496    1.418   .     S
C63    N71     1.384   .     A
C63    C89     1.471   .     S
C63    C493    1.418   .     S
C64    C93     1.471   .     S
C64    N72     1.384   .     A
C64    C926    1.418   1_554 S
H65    C101    1.088   .     S
N71    Zn81    2.024   .     S
N72    Zn82    2.024   .     S
O73    Zn81    1.976   .     S
O74    Zn82    1.976   .     S
O75    Zn82    1.989   .     S
O76    Zn81    1.989   .     S
O77    Zn81    1.965   .     S
O78    Zn82    1.965   .     S
O79    Zn82    1.980   .     S
O80    Zn81    1.980   .     S
C83    O85     1.221   .     D
C83    H84     1.084   .     S
C86    O88     1.222   .     D
C86    H87     1.084   .     S
C89    O91     1.398   .     S
C89    O90     1.220   .     D
O91    H92     1.014   .     S
C93    O94     1.220   .     D
C93    O95     1.398   .     S
O95    H96     1.014   .     S
C97    O121    1.284   .     A
C97    C108    1.407   .     S
C97    O123    1.286   .     A
C98    C107    1.407   .     S
C98    O122    1.284   .     A
C98    O124    1.286   .     A
C99    O127    1.288   .     A
C99    O125    1.282   .     A
C99    C101    1.404   .     S
C100   O128    1.288   .     A
C100   C102    1.404   .     S
C100   O126    1.282   .     A
C102   C5      1.334   1_655 S
C102   H18     1.088   1_655 S
C103   H115    1.085   .     S
C103   C108    1.393   .     A
C103   C393    1.381   1_545 S
C104   H116    1.085   .     S
C104   C107    1.393   .     A
C104   C250    1.381   .     S
C105   C107    1.405   .     A
C105   C131    1.489   .     S
C105   C247    1.381   .     S
C106   C134    1.489   .     S
C106   C108    1.405   .     A
C106   C392    1.381   1_545 S
C109   H117    1.083   .     S
C109   N120    1.357   .     A
C109   C975    1.418   1_554 S
C110   N119    1.357   .     A
C110   H118    1.083   .     S
C110   C544    1.418   .     S
C111   N119    1.384   .     A
C111   C137    1.471   .     S
C111   C541    1.418   .     S
C112   C141    1.471   .     S
C112   N120    1.384   .     A
C112   C974    1.418   1_554 S
H113   C5      1.088   1_655 S
N119   Zn129   2.024   .     S
N120   Zn130   2.024   .     S
O121   Zn129   1.976   .     S
O122   Zn130   1.976   .     S
O123   Zn130   1.989   .     S
O124   Zn129   1.989   .     S
O125   Zn129   1.965   .     S
O126   Zn130   1.965   .     S
O127   Zn130   1.980   .     S
O128   Zn129   1.980   .     S
C131   O133    1.221   .     D
C131   H132    1.084   .     S
C134   O136    1.222   .     D
C134   H135    1.084   .     S
C137   O139    1.398   .     S
C137   O138    1.220   .     D
O139   H140    1.014   .     S
C141   O142    1.220   .     D
C141   O143    1.398   .     S
O143   H144    1.014   .     S
C145   O169    1.284   .     A
C145   C156    1.407   .     S
C145   O171    1.286   .     A
C146   C155    1.407   .     S
C146   O170    1.284   .     A
C146   O172    1.286   .     A
C147   O175    1.288   .     A
C147   O173    1.282   .     A
C147   C149    1.404   .     S
C148   O176    1.288   .     A
C148   C150    1.404   .     S
C148   O174    1.282   .     A
C149   C246    1.334   1_455 S
C149   H257    1.088   1_455 S
C150   C197    1.334   .     S
C150   H210    1.088   .     S
C151   H163    1.085   .     S
C151   C156    1.393   .     A
C152   H164    1.085   .     S
C152   C155    1.393   .     A
C152   C298    1.381   .     S
C153   C155    1.405   .     A
C153   C179    1.489   .     S
C153   C295    1.381   .     S
C154   C182    1.489   .     S
C154   C156    1.405   .     A
C157   H165    1.083   .     S
C157   N168    1.357   .     A
C157   C1023   1.418   1_554 S
C158   N167    1.357   .     A
C158   H166    1.083   .     S
C158   C592    1.418   .     S
C159   N167    1.384   .     A
C159   C185    1.471   .     S
C159   C589    1.418   .     S
C160   C189    1.471   .     S
C160   N168    1.384   .     A
C160   C1022   1.418   1_554 S
H161   C197    1.088   .     S
H162   C246    1.088   1_455 S
N167   Zn177   2.024   .     S
N168   Zn178   2.024   .     S
O169   Zn177   1.976   .     S
O170   Zn178   1.976   .     S
O171   Zn178   1.989   .     S
O172   Zn177   1.989   .     S
O173   Zn177   1.965   .     S
O174   Zn178   1.965   .     S
O175   Zn178   1.980   .     S
O176   Zn177   1.980   .     S
C179   O181    1.221   .     D
C179   H180    1.084   .     S
C182   O184    1.222   .     D
C182   H183    1.084   .     S
C185   O187    1.398   .     S
C185   O186    1.220   .     D
O187   H188    1.014   .     S
C189   O190    1.220   .     D
C189   O191    1.398   .     S
O191   H192    1.014   .     S
C193   O217    1.284   .     A
C193   C204    1.407   .     S
C193   O219    1.286   .     A
C194   C203    1.407   .     S
C194   O218    1.284   .     A
C194   O220    1.286   .     A
C195   O223    1.288   .     A
C195   O221    1.282   .     A
C195   C197    1.404   .     S
C196   O224    1.288   .     A
C196   C198    1.404   .     S
C196   O222    1.282   .     A
C198   C245    1.334   .     S
C198   H258    1.088   .     S
C199   H211    1.085   .     S
C199   C204    1.393   .     A
C200   H212    1.085   .     S
C200   C203    1.393   .     A
C200   C346    1.381   .     S
C201   C203    1.405   .     A
C201   C227    1.489   .     S
C201   C343    1.381   .     S
C202   C230    1.489   .     S
C202   C204    1.405   .     A
C205   H213    1.083   .     S
C205   N216    1.357   .     A
C205   C1071   1.418   1_554 S
C206   N215    1.357   .     A
C206   H214    1.083   .     S
C206   C640    1.418   .     S
C207   N215    1.384   .     A
C207   C233    1.471   .     S
C207   C637    1.418   .     S
C208   C237    1.471   .     S
C208   N216    1.384   .     A
C208   C1070   1.418   1_554 S
H209   C245    1.088   .     S
N215   Zn225   2.024   .     S
N216   Zn226   2.024   .     S
O217   Zn225   1.976   .     S
O218   Zn226   1.976   .     S
O219   Zn226   1.989   .     S
O220   Zn225   1.989   .     S
O221   Zn225   1.965   .     S
O222   Zn226   1.965   .     S
O223   Zn226   1.980   .     S
O224   Zn225   1.980   .     S
C227   O229    1.221   .     D
C227   H228    1.084   .     S
C230   O232    1.222   .     D
C230   H231    1.084   .     S
C233   O235    1.398   .     S
C233   O234    1.220   .     D
O235   H236    1.014   .     S
C237   O238    1.220   .     D
C237   O239    1.398   .     S
O239   H240    1.014   .     S
C241   O265    1.284   .     A
C241   C252    1.407   .     S
C241   O267    1.286   .     A
C242   C251    1.407   .     S
C242   O266    1.284   .     A
C242   O268    1.286   .     A
C243   O271    1.288   .     A
C243   O269    1.282   .     A
C243   C245    1.404   .     S
C244   O272    1.288   .     A
C244   C246    1.404   .     S
C244   O270    1.282   .     A
C246   C149    1.334   1_655 S
C246   H162    1.088   1_655 S
C247   H259    1.085   .     S
C247   C252    1.393   .     A
C248   H260    1.085   .     S
C248   C251    1.393   .     A
C248   C394    1.381   .     S
C249   C251    1.405   .     A
C249   C275    1.489   .     S
C249   C391    1.381   .     S
C250   C278    1.489   .     S
C250   C252    1.405   .     A
C253   H261    1.083   .     S
C253   N264    1.357   .     A
C253   C1119   1.418   1_554 S
C254   N263    1.357   .     A
C254   H262    1.083   .     S
C254   C688    1.418   .     S
C255   N263    1.384   .     A
C255   C281    1.471   .     S
C255   C685    1.418   .     S
C256   C285    1.471   .     S
C256   N264    1.384   .     A
C256   C1118   1.418   1_554 S
H257   C149    1.088   1_655 S
N263   Zn273   2.024   .     S
N264   Zn274   2.024   .     S
O265   Zn273   1.976   .     S
O266   Zn274   1.976   .     S
O267   Zn274   1.989   .     S
O268   Zn273   1.989   .     S
O269   Zn273   1.965   .     S
O270   Zn274   1.965   .     S
O271   Zn274   1.980   .     S
O272   Zn273   1.980   .     S
C275   O277    1.221   .     D
C275   H276    1.084   .     S
C278   O280    1.222   .     D
C278   H279    1.084   .     S
C281   O283    1.398   .     S
C281   O282    1.220   .     D
O283   H284    1.014   .     S
C285   O286    1.220   .     D
C285   O287    1.398   .     S
O287   H288    1.014   .     S
C289   O313    1.284   .     A
C289   C300    1.407   .     S
C289   O315    1.286   .     A
C290   C299    1.407   .     S
C290   O314    1.284   .     A
C290   O316    1.286   .     A
C291   O319    1.288   .     A
C291   O317    1.282   .     A
C291   C293    1.404   .     S
C292   O320    1.288   .     A
C292   C294    1.404   .     S
C292   O318    1.282   .     A
C293   C390    1.334   1_455 S
C293   H401    1.088   1_455 S
C294   C341    1.334   .     S
C294   H354    1.088   .     S
C295   H307    1.085   .     S
C295   C300    1.393   .     A
C296   H308    1.085   .     S
C296   C299    1.393   .     A
C296   C10     1.381   1_565 S
C297   C299    1.405   .     A
C297   C323    1.489   .     S
C297   C7      1.381   1_565 S
C298   C326    1.489   .     S
C298   C300    1.405   .     A
C301   H309    1.083   .     S
C301   N312    1.357   .     A
C301   C1167   1.418   1_554 S
C302   N311    1.357   .     A
C302   H310    1.083   .     S
C302   C736    1.418   .     S
C303   N311    1.384   .     A
C303   C329    1.471   .     S
C303   C733    1.418   .     S
C304   C333    1.471   .     S
C304   N312    1.384   .     A
C304   C1166   1.418   1_554 S
H305   C341    1.088   .     S
H306   C390    1.088   1_455 S
N311   Zn321   2.024   .     S
N312   Zn322   2.024   .     S
O313   Zn321   1.976   .     S
O314   Zn322   1.976   .     S
O315   Zn322   1.989   .     S
O316   Zn321   1.989   .     S
O317   Zn321   1.965   .     S
O318   Zn322   1.965   .     S
O319   Zn322   1.980   .     S
O320   Zn321   1.980   .     S
C323   O325    1.221   .     D
C323   H324    1.084   .     S
C326   O328    1.222   .     D
C326   H327    1.084   .     S
C329   O331    1.398   .     S
C329   O330    1.220   .     D
O331   H332    1.014   .     S
C333   O334    1.220   .     D
C333   O335    1.398   .     S
O335   H336    1.014   .     S
C337   O361    1.284   .     A
C337   C348    1.407   .     S
C337   O363    1.286   .     A
C338   C347    1.407   .     S
C338   O362    1.284   .     A
C338   O364    1.286   .     A
C339   O367    1.288   .     A
C339   O365    1.282   .     A
C339   C341    1.404   .     S
C340   O368    1.288   .     A
C340   C342    1.404   .     S
C340   O366    1.282   .     A
C342   C389    1.334   .     S
C342   H402    1.088   .     S
C343   H355    1.085   .     S
C343   C348    1.393   .     A
C344   H356    1.085   .     S
C344   C347    1.393   .     A
C344   C58     1.381   1_565 S
C345   C347    1.405   .     A
C345   C371    1.489   .     S
C345   C55     1.381   1_565 S
C346   C374    1.489   .     S
C346   C348    1.405   .     A
C349   H357    1.083   .     S
C349   N360    1.357   .     A
C349   C1215   1.418   1_554 S
C350   N359    1.357   .     A
C350   H358    1.083   .     S
C350   C784    1.418   .     S
C351   N359    1.384   .     A
C351   C377    1.471   .     S
C351   C781    1.418   .     S
C352   C381    1.471   .     S
C352   N360    1.384   .     A
C352   C1214   1.418   1_554 S
H353   C389    1.088   .     S
N359   Zn369   2.024   .     S
N360   Zn370   2.024   .     S
O361   Zn369   1.976   .     S
O362   Zn370   1.976   .     S
O363   Zn370   1.989   .     S
O364   Zn369   1.989   .     S
O365   Zn369   1.965   .     S
O366   Zn370   1.965   .     S
O367   Zn370   1.980   .     S
O368   Zn369   1.980   .     S
C371   O373    1.221   .     D
C371   H372    1.084   .     S
C374   O376    1.222   .     D
C374   H375    1.084   .     S
C377   O379    1.398   .     S
C377   O378    1.220   .     D
O379   H380    1.014   .     S
C381   O382    1.220   .     D
C381   O383    1.398   .     S
O383   H384    1.014   .     S
C385   O409    1.284   .     A
C385   C396    1.407   .     S
C385   O411    1.286   .     A
C386   C395    1.407   .     S
C386   O410    1.284   .     A
C386   O412    1.286   .     A
C387   O415    1.288   .     A
C387   O413    1.282   .     A
C387   C389    1.404   .     S
C388   O416    1.288   .     A
C388   C390    1.404   .     S
C388   O414    1.282   .     A
C390   C293    1.334   1_655 S
C390   H306    1.088   1_655 S
C391   H403    1.085   .     S
C391   C396    1.393   .     A
C392   H404    1.085   .     S
C392   C395    1.393   .     A
C392   C106    1.381   1_565 S
C393   C395    1.405   .     A
C393   C419    1.489   .     S
C393   C103    1.381   1_565 S
C394   C422    1.489   .     S
C394   C396    1.405   .     A
C397   H405    1.083   .     S
C397   N408    1.357   .     A
C397   C1263   1.418   1_554 S
C398   N407    1.357   .     A
C398   H406    1.083   .     S
C398   C832    1.418   .     S
C399   N407    1.384   .     A
C399   C425    1.471   .     S
C399   C829    1.418   .     S
C400   C429    1.471   .     S
C400   N408    1.384   .     A
C400   C1262   1.418   1_554 S
H401   C293    1.088   1_655 S
N407   Zn417   2.024   .     S
N408   Zn418   2.024   .     S
O409   Zn417   1.976   .     S
O410   Zn418   1.976   .     S
O411   Zn418   1.989   .     S
O412   Zn417   1.989   .     S
O413   Zn417   1.965   .     S
O414   Zn418   1.965   .     S
O415   Zn418   1.980   .     S
O416   Zn417   1.980   .     S
C419   O421    1.221   .     D
C419   H420    1.084   .     S
C422   O424    1.222   .     D
C422   H423    1.084   .     S
C425   O427    1.398   .     S
C425   O426    1.220   .     D
O427   H428    1.014   .     S
C429   O430    1.220   .     D
C429   O431    1.398   .     S
O431   H432    1.014   .     S
C433   O457    1.284   .     A
C433   C444    1.407   .     S
C433   O459    1.286   .     A
C434   C443    1.407   .     S
C434   O458    1.284   .     A
C434   O460    1.286   .     A
C435   O463    1.288   .     A
C435   O461    1.282   .     A
C435   C437    1.404   .     S
C436   O464    1.288   .     A
C436   C438    1.404   .     S
C436   O462    1.282   .     A
C437   C534    1.334   1_455 S
C437   H545    1.088   1_455 S
C438   C485    1.334   .     S
C438   H498    1.088   .     S
C439   H451    1.085   .     S
C439   C444    1.393   .     A
C439   C729    1.381   1_545 S
C440   H452    1.085   .     S
C440   C443    1.393   .     A
C440   C586    1.381   .     S
C441   C443    1.405   .     A
C441   C467    1.489   .     S
C441   C583    1.381   .     S
C442   C470    1.489   .     S
C442   C444    1.405   .     A
C442   C728    1.381   1_545 S
C445   H453    1.083   .     S
C445   N456    1.357   .     A
C446   N455    1.357   .     A
C446   H454    1.083   .     S
C446   C880    1.418   .     S
C447   N455    1.384   .     A
C447   C473    1.471   .     S
C447   C877    1.418   .     S
C448   C477    1.471   .     S
C448   N456    1.384   .     A
H449   C485    1.088   .     S
H450   C534    1.088   1_455 S
N455   Zn465   2.024   .     S
N456   Zn466   2.024   .     S
O457   Zn465   1.976   .     S
O458   Zn466   1.976   .     S
O459   Zn466   1.989   .     S
O460   Zn465   1.989   .     S
O461   Zn465   1.965   .     S
O462   Zn466   1.965   .     S
O463   Zn466   1.980   .     S
O464   Zn465   1.980   .     S
C467   O469    1.221   .     D
C467   H468    1.084   .     S
C470   O472    1.222   .     D
C470   H471    1.084   .     S
C473   O475    1.398   .     S
C473   O474    1.220   .     D
O475   H476    1.014   .     S
C477   O478    1.220   .     D
C477   O479    1.398   .     S
O479   H480    1.014   .     S
C481   O505    1.284   .     A
C481   C492    1.407   .     S
C481   O507    1.286   .     A
C482   C491    1.407   .     S
C482   O506    1.284   .     A
C482   O508    1.286   .     A
C483   O511    1.288   .     A
C483   O509    1.282   .     A
C483   C485    1.404   .     S
C484   O512    1.288   .     A
C484   C486    1.404   .     S
C484   O510    1.282   .     A
C486   C533    1.334   .     S
C486   H546    1.088   .     S
C487   H499    1.085   .     S
C487   C492    1.393   .     A
C487   C777    1.381   1_545 S
C488   H500    1.085   .     S
C488   C491    1.393   .     A
C488   C634    1.381   .     S
C489   C491    1.405   .     A
C489   C515    1.489   .     S
C489   C631    1.381   .     S
C490   C518    1.489   .     S
C490   C492    1.405   .     A
C490   C776    1.381   1_545 S
C493   H501    1.083   .     S
C493   N504    1.357   .     A
C494   N503    1.357   .     A
C494   H502    1.083   .     S
C494   C928    1.418   .     S
C495   N503    1.384   .     A
C495   C521    1.471   .     S
C495   C925    1.418   .     S
C496   C525    1.471   .     S
C496   N504    1.384   .     A
H497   C533    1.088   .     S
N503   Zn513   2.024   .     S
N504   Zn514   2.024   .     S
O505   Zn513   1.976   .     S
O506   Zn514   1.976   .     S
O507   Zn514   1.989   .     S
O508   Zn513   1.989   .     S
O509   Zn513   1.965   .     S
O510   Zn514   1.965   .     S
O511   Zn514   1.980   .     S
O512   Zn513   1.980   .     S
C515   O517    1.221   .     D
C515   H516    1.084   .     S
C518   O520    1.222   .     D
C518   H519    1.084   .     S
C521   O523    1.398   .     S
C521   O522    1.220   .     D
O523   H524    1.014   .     S
C525   O526    1.220   .     D
C525   O527    1.398   .     S
O527   H528    1.014   .     S
C529   O553    1.284   .     A
C529   C540    1.407   .     S
C529   O555    1.286   .     A
C530   C539    1.407   .     S
C530   O554    1.284   .     A
C530   O556    1.286   .     A
C531   O559    1.288   .     A
C531   O557    1.282   .     A
C531   C533    1.404   .     S
C532   O560    1.288   .     A
C532   C534    1.404   .     S
C532   O558    1.282   .     A
C534   C437    1.334   1_655 S
C534   H450    1.088   1_655 S
C535   H547    1.085   .     S
C535   C540    1.393   .     A
C535   C825    1.381   1_545 S
C536   H548    1.085   .     S
C536   C539    1.393   .     A
C536   C682    1.381   .     S
C537   C539    1.405   .     A
C537   C563    1.489   .     S
C537   C679    1.381   .     S
C538   C566    1.489   .     S
C538   C540    1.405   .     A
C538   C824    1.381   1_545 S
C541   H549    1.083   .     S
C541   N552    1.357   .     A
C542   N551    1.357   .     A
C542   H550    1.083   .     S
C542   C976    1.418   .     S
C543   N551    1.384   .     A
C543   C569    1.471   .     S
C543   C973    1.418   .     S
C544   C573    1.471   .     S
C544   N552    1.384   .     A
H545   C437    1.088   1_655 S
N551   Zn561   2.024   .     S
N552   Zn562   2.024   .     S
O553   Zn561   1.976   .     S
O554   Zn562   1.976   .     S
O555   Zn562   1.989   .     S
O556   Zn561   1.989   .     S
O557   Zn561   1.965   .     S
O558   Zn562   1.965   .     S
O559   Zn562   1.980   .     S
O560   Zn561   1.980   .     S
C563   O565    1.221   .     D
C563   H564    1.084   .     S
C566   O568    1.222   .     D
C566   H567    1.084   .     S
C569   O571    1.398   .     S
C569   O570    1.220   .     D
O571   H572    1.014   .     S
C573   O574    1.220   .     D
C573   O575    1.398   .     S
O575   H576    1.014   .     S
C577   O601    1.284   .     A
C577   C588    1.407   .     S
C577   O603    1.286   .     A
C578   C587    1.407   .     S
C578   O602    1.284   .     A
C578   O604    1.286   .     A
C579   O607    1.288   .     A
C579   O605    1.282   .     A
C579   C581    1.404   .     S
C580   O608    1.288   .     A
C580   C582    1.404   .     S
C580   O606    1.282   .     A
C581   C678    1.334   1_455 S
C581   H689    1.088   1_455 S
C582   C629    1.334   .     S
C582   H642    1.088   .     S
C583   H595    1.085   .     S
C583   C588    1.393   .     A
C584   H596    1.085   .     S
C584   C587    1.393   .     A
C584   C730    1.381   .     S
C585   C587    1.405   .     A
C585   C611    1.489   .     S
C585   C727    1.381   .     S
C586   C614    1.489   .     S
C586   C588    1.405   .     A
C589   H597    1.083   .     S
C589   N600    1.357   .     A
C590   N599    1.357   .     A
C590   H598    1.083   .     S
C590   C1024   1.418   .     S
C591   N599    1.384   .     A
C591   C617    1.471   .     S
C591   C1021   1.418   .     S
C592   C621    1.471   .     S
C592   N600    1.384   .     A
H593   C629    1.088   .     S
H594   C678    1.088   1_455 S
N599   Zn609   2.024   .     S
N600   Zn610   2.024   .     S
O601   Zn609   1.976   .     S
O602   Zn610   1.976   .     S
O603   Zn610   1.989   .     S
O604   Zn609   1.989   .     S
O605   Zn609   1.965   .     S
O606   Zn610   1.965   .     S
O607   Zn610   1.980   .     S
O608   Zn609   1.980   .     S
C611   O613    1.221   .     D
C611   H612    1.084   .     S
C614   O616    1.222   .     D
C614   H615    1.084   .     S
C617   O619    1.398   .     S
C617   O618    1.220   .     D
O619   H620    1.014   .     S
C621   O622    1.220   .     D
C621   O623    1.398   .     S
O623   H624    1.014   .     S
C625   O649    1.284   .     A
C625   C636    1.407   .     S
C625   O651    1.286   .     A
C626   C635    1.407   .     S
C626   O650    1.284   .     A
C626   O652    1.286   .     A
C627   O655    1.288   .     A
C627   O653    1.282   .     A
C627   C629    1.404   .     S
C628   O656    1.288   .     A
C628   C630    1.404   .     S
C628   O654    1.282   .     A
C630   C677    1.334   .     S
C630   H690    1.088   .     S
C631   H643    1.085   .     S
C631   C636    1.393   .     A
C632   H644    1.085   .     S
C632   C635    1.393   .     A
C632   C778    1.381   .     S
C633   C635    1.405   .     A
C633   C659    1.489   .     S
C633   C775    1.381   .     S
C634   C662    1.489   .     S
C634   C636    1.405   .     A
C637   H645    1.083   .     S
C637   N648    1.357   .     A
C638   N647    1.357   .     A
C638   H646    1.083   .     S
C638   C1072   1.418   .     S
C639   N647    1.384   .     A
C639   C665    1.471   .     S
C639   C1069   1.418   .     S
C640   C669    1.471   .     S
C640   N648    1.384   .     A
H641   C677    1.088   .     S
N647   Zn657   2.024   .     S
N648   Zn658   2.024   .     S
O649   Zn657   1.976   .     S
O650   Zn658   1.976   .     S
O651   Zn658   1.989   .     S
O652   Zn657   1.989   .     S
O653   Zn657   1.965   .     S
O654   Zn658   1.965   .     S
O655   Zn658   1.980   .     S
O656   Zn657   1.980   .     S
C659   O661    1.221   .     D
C659   H660    1.084   .     S
C662   O664    1.222   .     D
C662   H663    1.084   .     S
C665   O667    1.398   .     S
C665   O666    1.220   .     D
O667   H668    1.014   .     S
C669   O670    1.220   .     D
C669   O671    1.398   .     S
O671   H672    1.014   .     S
C673   O697    1.284   .     A
C673   C684    1.407   .     S
C673   O699    1.286   .     A
C674   C683    1.407   .     S
C674   O698    1.284   .     A
C674   O700    1.286   .     A
C675   O703    1.288   .     A
C675   O701    1.282   .     A
C675   C677    1.404   .     S
C676   O704    1.288   .     A
C676   C678    1.404   .     S
C676   O702    1.282   .     A
C678   C581    1.334   1_655 S
C678   H594    1.088   1_655 S
C679   H691    1.085   .     S
C679   C684    1.393   .     A
C680   H692    1.085   .     S
C680   C683    1.393   .     A
C680   C826    1.381   .     S
C681   C683    1.405   .     A
C681   C707    1.489   .     S
C681   C823    1.381   .     S
C682   C710    1.489   .     S
C682   C684    1.405   .     A
C685   H693    1.083   .     S
C685   N696    1.357   .     A
C686   N695    1.357   .     A
C686   H694    1.083   .     S
C686   C1120   1.418   .     S
C687   N695    1.384   .     A
C687   C713    1.471   .     S
C687   C1117   1.418   .     S
C688   C717    1.471   .     S
C688   N696    1.384   .     A
H689   C581    1.088   1_655 S
N695   Zn705   2.024   .     S
N696   Zn706   2.024   .     S
O697   Zn705   1.976   .     S
O698   Zn706   1.976   .     S
O699   Zn706   1.989   .     S
O700   Zn705   1.989   .     S
O701   Zn705   1.965   .     S
O702   Zn706   1.965   .     S
O703   Zn706   1.980   .     S
O704   Zn705   1.980   .     S
C707   O709    1.221   .     D
C707   H708    1.084   .     S
C710   O712    1.222   .     D
C710   H711    1.084   .     S
C713   O715    1.398   .     S
C713   O714    1.220   .     D
O715   H716    1.014   .     S
C717   O718    1.220   .     D
C717   O719    1.398   .     S
O719   H720    1.014   .     S
C721   O745    1.284   .     A
C721   C732    1.407   .     S
C721   O747    1.286   .     A
C722   C731    1.407   .     S
C722   O746    1.284   .     A
C722   O748    1.286   .     A
C723   O751    1.288   .     A
C723   O749    1.282   .     A
C723   C725    1.404   .     S
C724   O752    1.288   .     A
C724   C726    1.404   .     S
C724   O750    1.282   .     A
C725   C822    1.334   1_455 S
C725   H833    1.088   1_455 S
C726   C773    1.334   .     S
C726   H786    1.088   .     S
C727   H739    1.085   .     S
C727   C732    1.393   .     A
C728   H740    1.085   .     S
C728   C731    1.393   .     A
C728   C442    1.381   1_565 S
C729   C731    1.405   .     A
C729   C755    1.489   .     S
C729   C439    1.381   1_565 S
C730   C758    1.489   .     S
C730   C732    1.405   .     A
C733   H741    1.083   .     S
C733   N744    1.357   .     A
C734   N743    1.357   .     A
C734   H742    1.083   .     S
C734   C1168   1.418   .     S
C735   N743    1.384   .     A
C735   C761    1.471   .     S
C735   C1165   1.418   .     S
C736   C765    1.471   .     S
C736   N744    1.384   .     A
H737   C773    1.088   .     S
H738   C822    1.088   1_455 S
N743   Zn753   2.024   .     S
N744   Zn754   2.024   .     S
O745   Zn753   1.976   .     S
O746   Zn754   1.976   .     S
O747   Zn754   1.989   .     S
O748   Zn753   1.989   .     S
O749   Zn753   1.965   .     S
O750   Zn754   1.965   .     S
O751   Zn754   1.980   .     S
O752   Zn753   1.980   .     S
C755   O757    1.221   .     D
C755   H756    1.084   .     S
C758   O760    1.222   .     D
C758   H759    1.084   .     S
C761   O763    1.398   .     S
C761   O762    1.220   .     D
O763   H764    1.014   .     S
C765   O766    1.220   .     D
C765   O767    1.398   .     S
O767   H768    1.014   .     S
C769   O793    1.284   .     A
C769   C780    1.407   .     S
C769   O795    1.286   .     A
C770   C779    1.407   .     S
C770   O794    1.284   .     A
C770   O796    1.286   .     A
C771   O799    1.288   .     A
C771   O797    1.282   .     A
C771   C773    1.404   .     S
C772   O800    1.288   .     A
C772   C774    1.404   .     S
C772   O798    1.282   .     A
C774   C821    1.334   .     S
C774   H834    1.088   .     S
C775   H787    1.085   .     S
C775   C780    1.393   .     A
C776   H788    1.085   .     S
C776   C779    1.393   .     A
C776   C490    1.381   1_565 S
C777   C779    1.405   .     A
C777   C803    1.489   .     S
C777   C487    1.381   1_565 S
C778   C806    1.489   .     S
C778   C780    1.405   .     A
C781   H789    1.083   .     S
C781   N792    1.357   .     A
C782   N791    1.357   .     A
C782   H790    1.083   .     S
C782   C1216   1.418   .     S
C783   N791    1.384   .     A
C783   C809    1.471   .     S
C783   C1213   1.418   .     S
C784   C813    1.471   .     S
C784   N792    1.384   .     A
H785   C821    1.088   .     S
N791   Zn801   2.024   .     S
N792   Zn802   2.024   .     S
O793   Zn801   1.976   .     S
O794   Zn802   1.976   .     S
O795   Zn802   1.989   .     S
O796   Zn801   1.989   .     S
O797   Zn801   1.965   .     S
O798   Zn802   1.965   .     S
O799   Zn802   1.980   .     S
O800   Zn801   1.980   .     S
C803   O805    1.221   .     D
C803   H804    1.084   .     S
C806   O808    1.222   .     D
C806   H807    1.084   .     S
C809   O811    1.398   .     S
C809   O810    1.220   .     D
O811   H812    1.014   .     S
C813   O814    1.220   .     D
C813   O815    1.398   .     S
O815   H816    1.014   .     S
C817   O841    1.284   .     A
C817   C828    1.407   .     S
C817   O843    1.286   .     A
C818   C827    1.407   .     S
C818   O842    1.284   .     A
C818   O844    1.286   .     A
C819   O847    1.288   .     A
C819   O845    1.282   .     A
C819   C821    1.404   .     S
C820   O848    1.288   .     A
C820   C822    1.404   .     S
C820   O846    1.282   .     A
C822   C725    1.334   1_655 S
C822   H738    1.088   1_655 S
C823   H835    1.085   .     S
C823   C828    1.393   .     A
C824   H836    1.085   .     S
C824   C827    1.393   .     A
C824   C538    1.381   1_565 S
C825   C827    1.405   .     A
C825   C851    1.489   .     S
C825   C535    1.381   1_565 S
C826   C854    1.489   .     S
C826   C828    1.405   .     A
C829   H837    1.083   .     S
C829   N840    1.357   .     A
C830   N839    1.357   .     A
C830   H838    1.083   .     S
C830   C1264   1.418   .     S
C831   N839    1.384   .     A
C831   C857    1.471   .     S
C831   C1261   1.418   .     S
C832   C861    1.471   .     S
C832   N840    1.384   .     A
H833   C725    1.088   1_655 S
N839   Zn849   2.024   .     S
N840   Zn850   2.024   .     S
O841   Zn849   1.976   .     S
O842   Zn850   1.976   .     S
O843   Zn850   1.989   .     S
O844   Zn849   1.989   .     S
O845   Zn849   1.965   .     S
O846   Zn850   1.965   .     S
O847   Zn850   1.980   .     S
O848   Zn849   1.980   .     S
C851   O853    1.221   .     D
C851   H852    1.084   .     S
C854   O856    1.222   .     D
C854   H855    1.084   .     S
C857   O859    1.398   .     S
C857   O858    1.220   .     D
O859   H860    1.014   .     S
C861   O862    1.220   .     D
C861   O863    1.398   .     S
O863   H864    1.014   .     S
C865   O889    1.284   .     A
C865   C876    1.407   .     S
C865   O891    1.286   .     A
C866   C875    1.407   .     S
C866   O890    1.284   .     A
C866   O892    1.286   .     A
C867   O895    1.288   .     A
C867   O893    1.282   .     A
C867   C869    1.404   .     S
C868   O896    1.288   .     A
C868   C870    1.404   .     S
C868   O894    1.282   .     A
C869   C966    1.334   1_455 S
C869   H977    1.088   1_455 S
C870   C917    1.334   .     S
C870   H930    1.088   .     S
C871   H883    1.085   .     S
C871   C876    1.393   .     A
C871   C1161   1.381   1_545 S
C872   H884    1.085   .     S
C872   C875    1.393   .     A
C872   C1018   1.381   .     S
C873   C875    1.405   .     A
C873   C899    1.489   .     S
C873   C1015   1.381   .     S
C874   C902    1.489   .     S
C874   C876    1.405   .     A
C874   C1160   1.381   1_545 S
C877   H885    1.083   .     S
C877   N888    1.357   .     A
C878   N887    1.357   .     A
C878   H886    1.083   .     S
C878   C16     1.418   1_556 S
C879   N887    1.384   .     A
C879   C905    1.471   .     S
C879   C13     1.418   1_556 S
C880   C909    1.471   .     S
C880   N888    1.384   .     A
H881   C917    1.088   .     S
H882   C966    1.088   1_455 S
N887   Zn897   2.024   .     S
N888   Zn898   2.024   .     S
O889   Zn897   1.976   .     S
O890   Zn898   1.976   .     S
O891   Zn898   1.989   .     S
O892   Zn897   1.989   .     S
O893   Zn897   1.965   .     S
O894   Zn898   1.965   .     S
O895   Zn898   1.980   .     S
O896   Zn897   1.980   .     S
C899   O901    1.221   .     D
C899   H900    1.084   .     S
C902   O904    1.222   .     D
C902   H903    1.084   .     S
C905   O907    1.398   .     S
C905   O906    1.220   .     D
O907   H908    1.014   .     S
C909   O910    1.220   .     D
C909   O911    1.398   .     S
O911   H912    1.014   .     S
C913   O937    1.284   .     A
C913   C924    1.407   .     S
C913   O939    1.286   .     A
C914   C923    1.407   .     S
C914   O938    1.284   .     A
C914   O940    1.286   .     A
C915   O943    1.288   .     A
C915   O941    1.282   .     A
C915   C917    1.404   .     S
C916   O944    1.288   .     A
C916   C918    1.404   .     S
C916   O942    1.282   .     A
C918   C965    1.334   .     S
C918   H978    1.088   .     S
C919   H931    1.085   .     S
C919   C924    1.393   .     A
C919   C1209   1.381   1_545 S
C920   H932    1.085   .     S
C920   C923    1.393   .     A
C920   C1066   1.381   .     S
C921   C923    1.405   .     A
C921   C947    1.489   .     S
C921   C1063   1.381   .     S
C922   C950    1.489   .     S
C922   C924    1.405   .     A
C922   C1208   1.381   1_545 S
C925   H933    1.083   .     S
C925   N936    1.357   .     A
C926   N935    1.357   .     A
C926   H934    1.083   .     S
C926   C64     1.418   1_556 S
C927   N935    1.384   .     A
C927   C953    1.471   .     S
C927   C61     1.418   1_556 S
C928   C957    1.471   .     S
C928   N936    1.384   .     A
H929   C965    1.088   .     S
N935   Zn945   2.024   .     S
N936   Zn946   2.024   .     S
O937   Zn945   1.976   .     S
O938   Zn946   1.976   .     S
O939   Zn946   1.989   .     S
O940   Zn945   1.989   .     S
O941   Zn945   1.965   .     S
O942   Zn946   1.965   .     S
O943   Zn946   1.980   .     S
O944   Zn945   1.980   .     S
C947   O949    1.221   .     D
C947   H948    1.084   .     S
C950   O952    1.222   .     D
C950   H951    1.084   .     S
C953   O955    1.398   .     S
C953   O954    1.220   .     D
O955   H956    1.014   .     S
C957   O958    1.220   .     D
C957   O959    1.398   .     S
O959   H960    1.014   .     S
C961   O985    1.284   .     A
C961   C972    1.407   .     S
C961   O987    1.286   .     A
C962   C971    1.407   .     S
C962   O986    1.284   .     A
C962   O988    1.286   .     A
C963   O991    1.288   .     A
C963   O989    1.282   .     A
C963   C965    1.404   .     S
C964   O992    1.288   .     A
C964   C966    1.404   .     S
C964   O990    1.282   .     A
C966   C869    1.334   1_655 S
C966   H882    1.088   1_655 S
C967   H979    1.085   .     S
C967   C972    1.393   .     A
C967   C1257   1.381   1_545 S
C968   H980    1.085   .     S
C968   C971    1.393   .     A
C968   C1114   1.381   .     S
C969   C971    1.405   .     A
C969   C995    1.489   .     S
C969   C1111   1.381   .     S
C970   C998    1.489   .     S
C970   C972    1.405   .     A
C970   C1256   1.381   1_545 S
C973   H981    1.083   .     S
C973   N984    1.357   .     A
C974   N983    1.357   .     A
C974   H982    1.083   .     S
C974   C112    1.418   1_556 S
C975   N983    1.384   .     A
C975   C1001   1.471   .     S
C975   C109    1.418   1_556 S
C976   C1005   1.471   .     S
C976   N984    1.384   .     A
H977   C869    1.088   1_655 S
N983   Zn993   2.024   .     S
N984   Zn994   2.024   .     S
O985   Zn993   1.976   .     S
O986   Zn994   1.976   .     S
O987   Zn994   1.989   .     S
O988   Zn993   1.989   .     S
O989   Zn993   1.965   .     S
O990   Zn994   1.965   .     S
O991   Zn994   1.980   .     S
O992   Zn993   1.980   .     S
C995   O997    1.221   .     D
C995   H996    1.084   .     S
C998   O1000   1.222   .     D
C998   H999    1.084   .     S
C1001  O1003   1.398   .     S
C1001  O1002   1.220   .     D
O1003  H1004   1.014   .     S
C1005  O1006   1.220   .     D
C1005  O1007   1.398   .     S
O1007  H1008   1.014   .     S
C1009  O1033   1.284   .     A
C1009  C1020   1.407   .     S
C1009  O1035   1.286   .     A
C1010  C1019   1.407   .     S
C1010  O1034   1.284   .     A
C1010  O1036   1.286   .     A
C1011  O1039   1.288   .     A
C1011  O1037   1.282   .     A
C1011  C1013   1.404   .     S
C1012  O1040   1.288   .     A
C1012  C1014   1.404   .     S
C1012  O1038   1.282   .     A
C1013  C1110   1.334   1_455 S
C1013  H1121   1.088   1_455 S
C1014  C1061   1.334   .     S
C1014  H1074   1.088   .     S
C1015  H1027   1.085   .     S
C1015  C1020   1.393   .     A
C1016  H1028   1.085   .     S
C1016  C1019   1.393   .     A
C1016  C1162   1.381   .     S
C1017  C1019   1.405   .     A
C1017  C1043   1.489   .     S
C1017  C1159   1.381   .     S
C1018  C1046   1.489   .     S
C1018  C1020   1.405   .     A
C1021  H1029   1.083   .     S
C1021  N1032   1.357   .     A
C1022  N1031   1.357   .     A
C1022  H1030   1.083   .     S
C1022  C160    1.418   1_556 S
C1023  N1031   1.384   .     A
C1023  C1049   1.471   .     S
C1023  C157    1.418   1_556 S
C1024  C1053   1.471   .     S
C1024  N1032   1.384   .     A
H1025  C1061   1.088   .     S
H1026  C1110   1.088   1_455 S
N1031  Zn1041  2.024   .     S
N1032  Zn1042  2.024   .     S
O1033  Zn1041  1.976   .     S
O1034  Zn1042  1.976   .     S
O1035  Zn1042  1.989   .     S
O1036  Zn1041  1.989   .     S
O1037  Zn1041  1.965   .     S
O1038  Zn1042  1.965   .     S
O1039  Zn1042  1.980   .     S
O1040  Zn1041  1.980   .     S
C1043  O1045   1.221   .     D
C1043  H1044   1.084   .     S
C1046  O1048   1.222   .     D
C1046  H1047   1.084   .     S
C1049  O1051   1.398   .     S
C1049  O1050   1.220   .     D
O1051  H1052   1.014   .     S
C1053  O1054   1.220   .     D
C1053  O1055   1.398   .     S
O1055  H1056   1.014   .     S
C1057  O1081   1.284   .     A
C1057  C1068   1.407   .     S
C1057  O1083   1.286   .     A
C1058  C1067   1.407   .     S
C1058  O1082   1.284   .     A
C1058  O1084   1.286   .     A
C1059  O1087   1.288   .     A
C1059  O1085   1.282   .     A
C1059  C1061   1.404   .     S
C1060  O1088   1.288   .     A
C1060  C1062   1.404   .     S
C1060  O1086   1.282   .     A
C1062  C1109   1.334   .     S
C1062  H1122   1.088   .     S
C1063  H1075   1.085   .     S
C1063  C1068   1.393   .     A
C1064  H1076   1.085   .     S
C1064  C1067   1.393   .     A
C1064  C1210   1.381   .     S
C1065  C1067   1.405   .     A
C1065  C1091   1.489   .     S
C1065  C1207   1.381   .     S
C1066  C1094   1.489   .     S
C1066  C1068   1.405   .     A
C1069  H1077   1.083   .     S
C1069  N1080   1.357   .     A
C1070  N1079   1.357   .     A
C1070  H1078   1.083   .     S
C1070  C208    1.418   1_556 S
C1071  N1079   1.384   .     A
C1071  C1097   1.471   .     S
C1071  C205    1.418   1_556 S
C1072  C1101   1.471   .     S
C1072  N1080   1.384   .     A
H1073  C1109   1.088   .     S
N1079  Zn1089  2.024   .     S
N1080  Zn1090  2.024   .     S
O1081  Zn1089  1.976   .     S
O1082  Zn1090  1.976   .     S
O1083  Zn1090  1.989   .     S
O1084  Zn1089  1.989   .     S
O1085  Zn1089  1.965   .     S
O1086  Zn1090  1.965   .     S
O1087  Zn1090  1.980   .     S
O1088  Zn1089  1.980   .     S
C1091  O1093   1.221   .     D
C1091  H1092   1.084   .     S
C1094  O1096   1.222   .     D
C1094  H1095   1.084   .     S
C1097  O1099   1.398   .     S
C1097  O1098   1.220   .     D
O1099  H1100   1.014   .     S
C1101  O1102   1.220   .     D
C1101  O1103   1.398   .     S
O1103  H1104   1.014   .     S
C1105  O1129   1.284   .     A
C1105  C1116   1.407   .     S
C1105  O1131   1.286   .     A
C1106  C1115   1.407   .     S
C1106  O1130   1.284   .     A
C1106  O1132   1.286   .     A
C1107  O1135   1.288   .     A
C1107  O1133   1.282   .     A
C1107  C1109   1.404   .     S
C1108  O1136   1.288   .     A
C1108  C1110   1.404   .     S
C1108  O1134   1.282   .     A
C1110  C1013   1.334   1_655 S
C1110  H1026   1.088   1_655 S
C1111  H1123   1.085   .     S
C1111  C1116   1.393   .     A
C1112  H1124   1.085   .     S
C1112  C1115   1.393   .     A
C1112  C1258   1.381   .     S
C1113  C1115   1.405   .     A
C1113  C1139   1.489   .     S
C1113  C1255   1.381   .     S
C1114  C1142   1.489   .     S
C1114  C1116   1.405   .     A
C1117  H1125   1.083   .     S
C1117  N1128   1.357   .     A
C1118  N1127   1.357   .     A
C1118  H1126   1.083   .     S
C1118  C256    1.418   1_556 S
C1119  N1127   1.384   .     A
C1119  C1145   1.471   .     S
C1119  C253    1.418   1_556 S
C1120  C1149   1.471   .     S
C1120  N1128   1.384   .     A
H1121  C1013   1.088   1_655 S
N1127  Zn1137  2.024   .     S
N1128  Zn1138  2.024   .     S
O1129  Zn1137  1.976   .     S
O1130  Zn1138  1.976   .     S
O1131  Zn1138  1.989   .     S
O1132  Zn1137  1.989   .     S
O1133  Zn1137  1.965   .     S
O1134  Zn1138  1.965   .     S
O1135  Zn1138  1.980   .     S
O1136  Zn1137  1.980   .     S
C1139  O1141   1.221   .     D
C1139  H1140   1.084   .     S
C1142  O1144   1.222   .     D
C1142  H1143   1.084   .     S
C1145  O1147   1.398   .     S
C1145  O1146   1.220   .     D
O1147  H1148   1.014   .     S
C1149  O1150   1.220   .     D
C1149  O1151   1.398   .     S
O1151  H1152   1.014   .     S
C1153  O1177   1.284   .     A
C1153  C1164   1.407   .     S
C1153  O1179   1.286   .     A
C1154  C1163   1.407   .     S
C1154  O1178   1.284   .     A
C1154  O1180   1.286   .     A
C1155  O1183   1.288   .     A
C1155  O1181   1.282   .     A
C1155  C1157   1.404   .     S
C1156  O1184   1.288   .     A
C1156  C1158   1.404   .     S
C1156  O1182   1.282   .     A
C1157  C1254   1.334   1_455 S
C1157  H1265   1.088   1_455 S
C1158  C1205   1.334   .     S
C1158  H1218   1.088   .     S
C1159  H1171   1.085   .     S
C1159  C1164   1.393   .     A
C1160  H1172   1.085   .     S
C1160  C1163   1.393   .     A
C1160  C874    1.381   1_565 S
C1161  C1163   1.405   .     A
C1161  C1187   1.489   .     S
C1161  C871    1.381   1_565 S
C1162  C1190   1.489   .     S
C1162  C1164   1.405   .     A
C1165  H1173   1.083   .     S
C1165  N1176   1.357   .     A
C1166  N1175   1.357   .     A
C1166  H1174   1.083   .     S
C1166  C304    1.418   1_556 S
C1167  N1175   1.384   .     A
C1167  C1193   1.471   .     S
C1167  C301    1.418   1_556 S
C1168  C1197   1.471   .     S
C1168  N1176   1.384   .     A
H1169  C1205   1.088   .     S
H1170  C1254   1.088   1_455 S
N1175  Zn1185  2.024   .     S
N1176  Zn1186  2.024   .     S
O1177  Zn1185  1.976   .     S
O1178  Zn1186  1.976   .     S
O1179  Zn1186  1.989   .     S
O1180  Zn1185  1.989   .     S
O1181  Zn1185  1.965   .     S
O1182  Zn1186  1.965   .     S
O1183  Zn1186  1.980   .     S
O1184  Zn1185  1.980   .     S
C1187  O1189   1.221   .     D
C1187  H1188   1.084   .     S
C1190  O1192   1.222   .     D
C1190  H1191   1.084   .     S
C1193  O1195   1.398   .     S
C1193  O1194   1.220   .     D
O1195  H1196   1.014   .     S
C1197  O1198   1.220   .     D
C1197  O1199   1.398   .     S
O1199  H1200   1.014   .     S
C1201  O1225   1.284   .     A
C1201  C1212   1.407   .     S
C1201  O1227   1.286   .     A
C1202  C1211   1.407   .     S
C1202  O1226   1.284   .     A
C1202  O1228   1.286   .     A
C1203  O1231   1.288   .     A
C1203  O1229   1.282   .     A
C1203  C1205   1.404   .     S
C1204  O1232   1.288   .     A
C1204  C1206   1.404   .     S
C1204  O1230   1.282   .     A
C1206  C1253   1.334   .     S
C1206  H1266   1.088   .     S
C1207  H1219   1.085   .     S
C1207  C1212   1.393   .     A
C1208  H1220   1.085   .     S
C1208  C1211   1.393   .     A
C1208  C922    1.381   1_565 S
C1209  C1211   1.405   .     A
C1209  C1235   1.489   .     S
C1209  C919    1.381   1_565 S
C1210  C1238   1.489   .     S
C1210  C1212   1.405   .     A
C1213  H1221   1.083   .     S
C1213  N1224   1.357   .     A
C1214  N1223   1.357   .     A
C1214  H1222   1.083   .     S
C1214  C352    1.418   1_556 S
C1215  N1223   1.384   .     A
C1215  C1241   1.471   .     S
C1215  C349    1.418   1_556 S
C1216  C1245   1.471   .     S
C1216  N1224   1.384   .     A
H1217  C1253   1.088   .     S
N1223  Zn1233  2.024   .     S
N1224  Zn1234  2.024   .     S
O1225  Zn1233  1.976   .     S
O1226  Zn1234  1.976   .     S
O1227  Zn1234  1.989   .     S
O1228  Zn1233  1.989   .     S
O1229  Zn1233  1.965   .     S
O1230  Zn1234  1.965   .     S
O1231  Zn1234  1.980   .     S
O1232  Zn1233  1.980   .     S
C1235  O1237   1.221   .     D
C1235  H1236   1.084   .     S
C1238  O1240   1.222   .     D
C1238  H1239   1.084   .     S
C1241  O1243   1.398   .     S
C1241  O1242   1.220   .     D
O1243  H1244   1.014   .     S
C1245  O1246   1.220   .     D
C1245  O1247   1.398   .     S
O1247  H1248   1.014   .     S
C1249  O1273   1.284   .     A
C1249  C1260   1.407   .     S
C1249  O1275   1.286   .     A
C1250  C1259   1.407   .     S
C1250  O1274   1.284   .     A
C1250  O1276   1.286   .     A
C1251  O1279   1.288   .     A
C1251  O1277   1.282   .     A
C1251  C1253   1.404   .     S
C1252  O1280   1.288   .     A
C1252  C1254   1.404   .     S
C1252  O1278   1.282   .     A
C1254  C1157   1.334   1_655 S
C1254  H1170   1.088   1_655 S
C1255  H1267   1.085   .     S
C1255  C1260   1.393   .     A
C1256  H1268   1.085   .     S
C1256  C1259   1.393   .     A
C1256  C970    1.381   1_565 S
C1257  C1259   1.405   .     A
C1257  C1283   1.489   .     S
C1257  C967    1.381   1_565 S
C1258  C1286   1.489   .     S
C1258  C1260   1.405   .     A
C1261  H1269   1.083   .     S
C1261  N1272   1.357   .     A
C1262  N1271   1.357   .     A
C1262  H1270   1.083   .     S
C1262  C400    1.418   1_556 S
C1263  N1271   1.384   .     A
C1263  C1289   1.471   .     S
C1263  C397    1.418   1_556 S
C1264  C1293   1.471   .     S
C1264  N1272   1.384   .     A
H1265  C1157   1.088   1_655 S
N1271  Zn1281  2.024   .     S
N1272  Zn1282  2.024   .     S
O1273  Zn1281  1.976   .     S
O1274  Zn1282  1.976   .     S
O1275  Zn1282  1.989   .     S
O1276  Zn1281  1.989   .     S
O1277  Zn1281  1.965   .     S
O1278  Zn1282  1.965   .     S
O1279  Zn1282  1.980   .     S
O1280  Zn1281  1.980   .     S
C1283  O1285   1.221   .     D
C1283  H1284   1.084   .     S
C1286  O1288   1.222   .     D
C1286  H1287   1.084   .     S
C1289  O1291   1.398   .     S
C1289  O1290   1.220   .     D
O1291  H1292   1.014   .     S
C1293  O1294   1.220   .     D
C1293  O1295   1.398   .     S
O1295  H1296   1.014   .     S
