data_str_m3_o1_o16_pcu_sym.218
_audit_creation_date              2020-01-03
_audit_creation_method            'Materials Studio'
_symmetry_space_group_name_H-M    'P1'
_symmetry_Int_Tables_number       1
_symmetry_cell_setting            triclinic
loop_
_symmetry_equiv_pos_as_xyz
  x,y,z
_cell_length_a                    29.6661
_cell_length_b                    31.8667
_cell_length_c                    26.7833
_cell_angle_alpha                 89.9999
_cell_angle_beta                  72.6012
_cell_angle_gamma                 88.8679
loop_
_atom_site_label
_atom_site_type_symbol
_atom_site_fract_x
_atom_site_fract_y
_atom_site_fract_z
_atom_site_U_iso_or_equiv
_atom_site_adp_type
_atom_site_occupancy
C1     C     0.16582   0.24657   0.25178   0.00000  Uiso   1.00
C2     C     0.15230   0.18558   0.48766   0.00000  Uiso   1.00
C3     C     0.16575   0.18539   0.43268   0.00000  Uiso   1.00
C4     C     0.18697   0.17400   0.01243   0.00000  Uiso   1.00
C5     C     0.23566   0.17143   0.48321   0.00000  Uiso   1.00
C6     C     0.24884   0.17852   0.42933   0.00000  Uiso   1.00
C7     C     0.21436   0.18902   0.40590   0.00000  Uiso   1.00
C8     C     0.17452   0.16162   0.06482   0.00000  Uiso   1.00
C9     C     0.25657   0.16706   0.06366   0.00000  Uiso   1.00
C10    C     0.13003   0.18237   0.40701   0.00000  Uiso   1.00
C11    C     0.18601   0.31172   0.28766   0.00000  Uiso   1.00
C12    C     0.14172   0.17077   0.35109   0.00000  Uiso   1.00
C13    C     0.18791   0.02182   0.28435   0.00000  Uiso   1.00
C14    C     0.16705   0.04262   0.25090   0.00000  Uiso   1.00
C15    C     0.14368   0.02161   0.22074   0.00000  Uiso   1.00
C16    C     0.14241   0.31211   0.22259   0.00000  Uiso   1.00
C17    C     0.16418   0.29081   0.25491   0.00000  Uiso   1.00
C18    C     0.31410   0.13132   0.23512   0.00000  Uiso   1.00
C19    C     0.02914   0.13194   0.23465   0.00000  Uiso   1.00
C20    C     0.01918   0.20219   0.26310   0.00000  Uiso   1.00
C21    C     0.30479   0.20188   0.26306   0.00000  Uiso   1.00
C22    C     0.16703   0.08675   0.24979   0.00000  Uiso   1.00
C23    C     0.19239   0.16575   0.14877   0.00000  Uiso   1.00
C24    C     0.26995   0.16359   0.00927   0.00000  Uiso   1.00
C25    C     0.20825   0.16442   0.09182   0.00000  Uiso   1.00
C26    C     0.08312   0.19082   0.43566   0.00000  Uiso   1.00
C27    C     0.07180   0.20267   0.48791   0.00000  Uiso   1.00
C28    C     0.10569   0.20031   0.01474   0.00000  Uiso   1.00
H29    H     0.20403   0.03990   0.30842   0.00000  Uiso   1.00
H30    H     0.12722   0.03833   0.19528   0.00000  Uiso   1.00
H31    H     0.12560   0.29550   0.19785   0.00000  Uiso   1.00
H32    H     0.05227   0.10506   0.22102   0.00000  Uiso   1.00
H33    H     0.28311   0.23007   0.27366   0.00000  Uiso   1.00
H34    H     0.05550   0.19048   0.41704   0.00000  Uiso   1.00
H35    H     0.03655   0.21428   0.00731   0.00000  Uiso   1.00
H36    H     0.22732   0.20153   0.36699   0.00000  Uiso   1.00
N37    N     0.04760   0.16668   0.25002   0.00000  Uiso   1.00
N38    N     0.28573   0.16665   0.25001   0.00000  Uiso   1.00
O39    O     0.12846   0.22775   0.25001   0.00000  Uiso   1.00
O40    O     0.20490   0.22774   0.25001   0.00000  Uiso   1.00
O41    O     0.10947   0.16666   0.32681   0.00000  Uiso   1.00
O42    O     0.18591   0.16665   0.32681   0.00000  Uiso   1.00
O43    O     0.12843   0.10559   0.25000   0.00000  Uiso   1.00
O44    O     0.20488   0.10558   0.25000   0.00000  Uiso   1.00
O45    O     0.14742   0.16668   0.17319   0.00000  Uiso   1.00
O46    O     0.22387   0.16667   0.17319   0.00000  Uiso   1.00
Zn47   Zn    0.11562   0.16667   0.25000   0.00000  Uiso   1.00
Zn48   Zn    0.21771   0.16666   0.25000   0.00000  Uiso   1.00
N49    N     0.29027   0.17942   0.08889   0.00000  Uiso   1.00
H50    H     0.30652   0.20730   0.07598   0.00000  Uiso   1.00
C51    C     0.32094   0.14730   0.09996   0.00000  Uiso   1.00
H52    H     0.02045   0.14390   0.06681   0.00000  Uiso   1.00
H53    H     0.30271   0.11683   0.10872   0.00000  Uiso   1.00
H54    H     0.33152   0.15721   0.13438   0.00000  Uiso   1.00
O55    O     0.29600   0.09712   0.21601   0.00000  Uiso   1.00
C56    C     0.30921   0.05881   0.23477   0.00000  Uiso   1.00
H57    H     0.30653   0.06045   0.27714   0.00000  Uiso   1.00
H58    H     0.01187   0.04852   0.21098   0.00000  Uiso   1.00
H59    H     0.28480   0.03428   0.23005   0.00000  Uiso   1.00
N60    N     0.03784   0.24047   0.27416   0.00000  Uiso   1.00
H61    H     0.02919   0.26562   0.25430   0.00000  Uiso   1.00
C62    C     0.02800   0.24958   0.32921   0.00000  Uiso   1.00
H63    H     0.32276   0.25432   0.34789   0.00000  Uiso   1.00
H64    H     0.04636   0.27858   0.33426   0.00000  Uiso   1.00
H65    H     0.04113   0.22352   0.34863   0.00000  Uiso   1.00
O66    O     0.29564   0.17660   0.39926   0.00000  Uiso   1.00
C67    C     0.30314   0.13921   0.36932   0.00000  Uiso   1.00
H68    H     0.28354   0.14015   0.34018   0.00000  Uiso   1.00
H69    H     0.29175   0.11098   0.39369   0.00000  Uiso   1.00
H70    H     0.00809   0.13533   0.34881   0.00000  Uiso   1.00
O71    O     0.31677   0.15575   0.48206   0.00000  Uiso   1.00
C72    C     0.32503   0.11176   0.47845   0.00000  Uiso   1.00
H73    H     0.29486   0.09377   0.47334   0.00000  Uiso   1.00
H74    H     0.33321   0.09951   0.01342   0.00000  Uiso   1.00
H75    H     0.02293   0.10496   0.44420   0.00000  Uiso   1.00
O76    O     0.12958   0.14746   0.08974   0.00000  Uiso   1.00
C77    C     0.12904   0.10391   0.08101   0.00000  Uiso   1.00
H78    H     0.09318   0.09248   0.10147   0.00000  Uiso   1.00
H79    H     0.13657   0.09662   0.03862   0.00000  Uiso   1.00
H80    H     0.15446   0.08676   0.09735   0.00000  Uiso   1.00
N81    N     0.09378   0.21706   0.06655   0.00000  Uiso   1.00
H82    H     0.05810   0.21772   0.08621   0.00000  Uiso   1.00
C83    C     0.11592   0.25630   0.07130   0.00000  Uiso   1.00
H84    H     0.10613   0.26576   0.11314   0.00000  Uiso   1.00
H85    H     0.10376   0.28127   0.04907   0.00000  Uiso   1.00
H86    H     0.15500   0.25300   0.05651   0.00000  Uiso   1.00
N87    N     0.20404   0.28857   0.32380   0.00000  Uiso   1.00
H88    H     0.18297   0.26451   0.34265   0.00000  Uiso   1.00
C89    C     0.22824   0.30993   0.35571   0.00000  Uiso   1.00
H90    H     0.20356   0.33203   0.38332   0.00000  Uiso   1.00
H91    H     0.25909   0.32687   0.33053   0.00000  Uiso   1.00
H92    H     0.24148   0.28650   0.37892   0.00000  Uiso   1.00
C93    C     0.49915   0.24657   0.25178   0.00000  Uiso   1.00
C94    C     0.48564   0.18558   0.48766   0.00000  Uiso   1.00
C95    C     0.49908   0.18539   0.43268   0.00000  Uiso   1.00
C96    C     0.52030   0.17400   0.01243   0.00000  Uiso   1.00
C97    C     0.56899   0.17143   0.48321   0.00000  Uiso   1.00
C98    C     0.58217   0.17852   0.42933   0.00000  Uiso   1.00
C99    C     0.54769   0.18902   0.40590   0.00000  Uiso   1.00
C100   C     0.50785   0.16162   0.06482   0.00000  Uiso   1.00
C101   C     0.58990   0.16706   0.06366   0.00000  Uiso   1.00
C102   C     0.46336   0.18237   0.40701   0.00000  Uiso   1.00
C103   C     0.51934   0.31172   0.28766   0.00000  Uiso   1.00
C104   C     0.47505   0.17077   0.35109   0.00000  Uiso   1.00
C105   C     0.52125   0.02182   0.28435   0.00000  Uiso   1.00
C106   C     0.50039   0.04262   0.25090   0.00000  Uiso   1.00
C107   C     0.47701   0.02161   0.22074   0.00000  Uiso   1.00
C108   C     0.47575   0.31211   0.22259   0.00000  Uiso   1.00
C109   C     0.49751   0.29081   0.25491   0.00000  Uiso   1.00
C110   C     0.64744   0.13132   0.23512   0.00000  Uiso   1.00
C111   C     0.36248   0.13194   0.23465   0.00000  Uiso   1.00
C112   C     0.35251   0.20219   0.26310   0.00000  Uiso   1.00
C113   C     0.63813   0.20188   0.26306   0.00000  Uiso   1.00
C114   C     0.50037   0.08675   0.24979   0.00000  Uiso   1.00
C115   C     0.52573   0.16575   0.14877   0.00000  Uiso   1.00
C116   C     0.60328   0.16359   0.00927   0.00000  Uiso   1.00
C117   C     0.54158   0.16442   0.09182   0.00000  Uiso   1.00
C118   C     0.41645   0.19082   0.43566   0.00000  Uiso   1.00
C119   C     0.40514   0.20267   0.48791   0.00000  Uiso   1.00
C120   C     0.43903   0.20031   0.01474   0.00000  Uiso   1.00
H121   H     0.53736   0.03990   0.30842   0.00000  Uiso   1.00
H122   H     0.46055   0.03833   0.19528   0.00000  Uiso   1.00
H123   H     0.45893   0.29550   0.19785   0.00000  Uiso   1.00
H124   H     0.38560   0.10506   0.22102   0.00000  Uiso   1.00
H125   H     0.61645   0.23007   0.27366   0.00000  Uiso   1.00
H126   H     0.38884   0.19048   0.41704   0.00000  Uiso   1.00
H127   H     0.36988   0.21428   0.00731   0.00000  Uiso   1.00
H128   H     0.56066   0.20153   0.36699   0.00000  Uiso   1.00
N129   N     0.38093   0.16668   0.25002   0.00000  Uiso   1.00
N130   N     0.61906   0.16665   0.25001   0.00000  Uiso   1.00
O131   O     0.46179   0.22775   0.25001   0.00000  Uiso   1.00
O132   O     0.53823   0.22774   0.25001   0.00000  Uiso   1.00
O133   O     0.44280   0.16666   0.32681   0.00000  Uiso   1.00
O134   O     0.51924   0.16665   0.32681   0.00000  Uiso   1.00
O135   O     0.46177   0.10559   0.25000   0.00000  Uiso   1.00
O136   O     0.53821   0.10558   0.25000   0.00000  Uiso   1.00
O137   O     0.48076   0.16668   0.17319   0.00000  Uiso   1.00
O138   O     0.55720   0.16667   0.17319   0.00000  Uiso   1.00
Zn139  Zn    0.44896   0.16667   0.25000   0.00000  Uiso   1.00
Zn140  Zn    0.55104   0.16666   0.25000   0.00000  Uiso   1.00
N141   N     0.62361   0.17942   0.08889   0.00000  Uiso   1.00
H142   H     0.63986   0.20730   0.07598   0.00000  Uiso   1.00
C143   C     0.65427   0.14730   0.09996   0.00000  Uiso   1.00
H144   H     0.35379   0.14390   0.06681   0.00000  Uiso   1.00
H145   H     0.63604   0.11683   0.10872   0.00000  Uiso   1.00
H146   H     0.66485   0.15721   0.13438   0.00000  Uiso   1.00
O147   O     0.62933   0.09712   0.21601   0.00000  Uiso   1.00
C148   C     0.64254   0.05881   0.23477   0.00000  Uiso   1.00
H149   H     0.63986   0.06045   0.27714   0.00000  Uiso   1.00
H150   H     0.34521   0.04852   0.21098   0.00000  Uiso   1.00
H151   H     0.61813   0.03428   0.23005   0.00000  Uiso   1.00
N152   N     0.37118   0.24047   0.27416   0.00000  Uiso   1.00
H153   H     0.36253   0.26562   0.25430   0.00000  Uiso   1.00
C154   C     0.36133   0.24958   0.32921   0.00000  Uiso   1.00
H155   H     0.65609   0.25432   0.34789   0.00000  Uiso   1.00
H156   H     0.37970   0.27858   0.33426   0.00000  Uiso   1.00
H157   H     0.37447   0.22352   0.34863   0.00000  Uiso   1.00
O158   O     0.62898   0.17660   0.39926   0.00000  Uiso   1.00
C159   C     0.63648   0.13921   0.36932   0.00000  Uiso   1.00
H160   H     0.61687   0.14015   0.34018   0.00000  Uiso   1.00
H161   H     0.62509   0.11098   0.39369   0.00000  Uiso   1.00
H162   H     0.34142   0.13533   0.34881   0.00000  Uiso   1.00
O163   O     0.65010   0.15575   0.48206   0.00000  Uiso   1.00
C164   C     0.65837   0.11176   0.47845   0.00000  Uiso   1.00
H165   H     0.62819   0.09377   0.47334   0.00000  Uiso   1.00
H166   H     0.66655   0.09951   0.01342   0.00000  Uiso   1.00
H167   H     0.35626   0.10496   0.44420   0.00000  Uiso   1.00
O168   O     0.46291   0.14746   0.08974   0.00000  Uiso   1.00
C169   C     0.46237   0.10391   0.08101   0.00000  Uiso   1.00
H170   H     0.42652   0.09248   0.10147   0.00000  Uiso   1.00
H171   H     0.46991   0.09662   0.03862   0.00000  Uiso   1.00
H172   H     0.48780   0.08676   0.09735   0.00000  Uiso   1.00
N173   N     0.42711   0.21706   0.06655   0.00000  Uiso   1.00
H174   H     0.39143   0.21772   0.08621   0.00000  Uiso   1.00
C175   C     0.44926   0.25630   0.07130   0.00000  Uiso   1.00
H176   H     0.43946   0.26576   0.11314   0.00000  Uiso   1.00
H177   H     0.43710   0.28127   0.04907   0.00000  Uiso   1.00
H178   H     0.48833   0.25300   0.05651   0.00000  Uiso   1.00
N179   N     0.53737   0.28857   0.32380   0.00000  Uiso   1.00
H180   H     0.51630   0.26451   0.34265   0.00000  Uiso   1.00
C181   C     0.56157   0.30993   0.35571   0.00000  Uiso   1.00
H182   H     0.53689   0.33203   0.38332   0.00000  Uiso   1.00
H183   H     0.59242   0.32687   0.33053   0.00000  Uiso   1.00
H184   H     0.57482   0.28650   0.37892   0.00000  Uiso   1.00
C185   C     0.83249   0.24657   0.25178   0.00000  Uiso   1.00
C186   C     0.81897   0.18558   0.48766   0.00000  Uiso   1.00
C187   C     0.83242   0.18539   0.43268   0.00000  Uiso   1.00
C188   C     0.85363   0.17400   0.01243   0.00000  Uiso   1.00
C189   C     0.90232   0.17143   0.48321   0.00000  Uiso   1.00
C190   C     0.91551   0.17852   0.42933   0.00000  Uiso   1.00
C191   C     0.88103   0.18902   0.40590   0.00000  Uiso   1.00
C192   C     0.84118   0.16162   0.06482   0.00000  Uiso   1.00
C193   C     0.92323   0.16706   0.06366   0.00000  Uiso   1.00
C194   C     0.79670   0.18237   0.40701   0.00000  Uiso   1.00
C195   C     0.85268   0.31172   0.28766   0.00000  Uiso   1.00
C196   C     0.80838   0.17077   0.35109   0.00000  Uiso   1.00
C197   C     0.85458   0.02182   0.28435   0.00000  Uiso   1.00
C198   C     0.83372   0.04262   0.25090   0.00000  Uiso   1.00
C199   C     0.81034   0.02161   0.22074   0.00000  Uiso   1.00
C200   C     0.80908   0.31211   0.22259   0.00000  Uiso   1.00
C201   C     0.83085   0.29081   0.25491   0.00000  Uiso   1.00
C202   C     0.98077   0.13132   0.23512   0.00000  Uiso   1.00
C203   C     0.69581   0.13194   0.23465   0.00000  Uiso   1.00
C204   C     0.68584   0.20219   0.26310   0.00000  Uiso   1.00
C205   C     0.97146   0.20188   0.26306   0.00000  Uiso   1.00
C206   C     0.83370   0.08675   0.24979   0.00000  Uiso   1.00
C207   C     0.85906   0.16575   0.14877   0.00000  Uiso   1.00
C208   C     0.93661   0.16359   0.00927   0.00000  Uiso   1.00
C209   C     0.87491   0.16442   0.09182   0.00000  Uiso   1.00
C210   C     0.74978   0.19082   0.43566   0.00000  Uiso   1.00
C211   C     0.73847   0.20267   0.48791   0.00000  Uiso   1.00
C212   C     0.77236   0.20031   0.01474   0.00000  Uiso   1.00
H213   H     0.87069   0.03990   0.30842   0.00000  Uiso   1.00
H214   H     0.79389   0.03833   0.19528   0.00000  Uiso   1.00
H215   H     0.79226   0.29550   0.19785   0.00000  Uiso   1.00
H216   H     0.71894   0.10506   0.22102   0.00000  Uiso   1.00
H217   H     0.94978   0.23007   0.27366   0.00000  Uiso   1.00
H218   H     0.72217   0.19048   0.41704   0.00000  Uiso   1.00
H219   H     0.70321   0.21428   0.00731   0.00000  Uiso   1.00
H220   H     0.89399   0.20153   0.36699   0.00000  Uiso   1.00
N221   N     0.71426   0.16668   0.25002   0.00000  Uiso   1.00
N222   N     0.95239   0.16665   0.25001   0.00000  Uiso   1.00
O223   O     0.79512   0.22775   0.25001   0.00000  Uiso   1.00
O224   O     0.87157   0.22774   0.25001   0.00000  Uiso   1.00
O225   O     0.77613   0.16666   0.32681   0.00000  Uiso   1.00
O226   O     0.85258   0.16665   0.32681   0.00000  Uiso   1.00
O227   O     0.79510   0.10559   0.25000   0.00000  Uiso   1.00
O228   O     0.87154   0.10558   0.25000   0.00000  Uiso   1.00
O229   O     0.81409   0.16668   0.17319   0.00000  Uiso   1.00
O230   O     0.89053   0.16667   0.17319   0.00000  Uiso   1.00
Zn231  Zn    0.78229   0.16667   0.25000   0.00000  Uiso   1.00
Zn232  Zn    0.88438   0.16666   0.25000   0.00000  Uiso   1.00
N233   N     0.95694   0.17942   0.08889   0.00000  Uiso   1.00
H234   H     0.97319   0.20730   0.07598   0.00000  Uiso   1.00
C235   C     0.98761   0.14730   0.09996   0.00000  Uiso   1.00
H236   H     0.68712   0.14390   0.06681   0.00000  Uiso   1.00
H237   H     0.96937   0.11683   0.10872   0.00000  Uiso   1.00
H238   H     0.99819   0.15721   0.13438   0.00000  Uiso   1.00
O239   O     0.96266   0.09712   0.21601   0.00000  Uiso   1.00
C240   C     0.97587   0.05881   0.23477   0.00000  Uiso   1.00
H241   H     0.97319   0.06045   0.27714   0.00000  Uiso   1.00
H242   H     0.67854   0.04852   0.21098   0.00000  Uiso   1.00
H243   H     0.95146   0.03428   0.23005   0.00000  Uiso   1.00
N244   N     0.70451   0.24047   0.27416   0.00000  Uiso   1.00
H245   H     0.69586   0.26562   0.25430   0.00000  Uiso   1.00
C246   C     0.69467   0.24958   0.32921   0.00000  Uiso   1.00
H247   H     0.98942   0.25432   0.34789   0.00000  Uiso   1.00
H248   H     0.71303   0.27858   0.33426   0.00000  Uiso   1.00
H249   H     0.70780   0.22352   0.34863   0.00000  Uiso   1.00
O250   O     0.96231   0.17660   0.39926   0.00000  Uiso   1.00
C251   C     0.96981   0.13921   0.36932   0.00000  Uiso   1.00
H252   H     0.95020   0.14015   0.34018   0.00000  Uiso   1.00
H253   H     0.95842   0.11098   0.39369   0.00000  Uiso   1.00
H254   H     0.67475   0.13533   0.34881   0.00000  Uiso   1.00
O255   O     0.98343   0.15575   0.48206   0.00000  Uiso   1.00
C256   C     0.99170   0.11176   0.47845   0.00000  Uiso   1.00
H257   H     0.96153   0.09377   0.47334   0.00000  Uiso   1.00
H258   H     0.99988   0.09951   0.01342   0.00000  Uiso   1.00
H259   H     0.68959   0.10496   0.44420   0.00000  Uiso   1.00
O260   O     0.79624   0.14746   0.08974   0.00000  Uiso   1.00
C261   C     0.79571   0.10391   0.08101   0.00000  Uiso   1.00
H262   H     0.75985   0.09248   0.10147   0.00000  Uiso   1.00
H263   H     0.80324   0.09662   0.03862   0.00000  Uiso   1.00
H264   H     0.82113   0.08676   0.09735   0.00000  Uiso   1.00
N265   N     0.76045   0.21706   0.06655   0.00000  Uiso   1.00
H266   H     0.72476   0.21772   0.08621   0.00000  Uiso   1.00
C267   C     0.78259   0.25630   0.07130   0.00000  Uiso   1.00
H268   H     0.77279   0.26576   0.11314   0.00000  Uiso   1.00
H269   H     0.77043   0.28127   0.04907   0.00000  Uiso   1.00
H270   H     0.82167   0.25300   0.05651   0.00000  Uiso   1.00
N271   N     0.87070   0.28857   0.32380   0.00000  Uiso   1.00
H272   H     0.84963   0.26451   0.34265   0.00000  Uiso   1.00
C273   C     0.89491   0.30993   0.35571   0.00000  Uiso   1.00
H274   H     0.87022   0.33203   0.38332   0.00000  Uiso   1.00
H275   H     0.92576   0.32687   0.33053   0.00000  Uiso   1.00
H276   H     0.90815   0.28650   0.37892   0.00000  Uiso   1.00
C277   C     0.16582   0.57991   0.25178   0.00000  Uiso   1.00
C278   C     0.15230   0.51891   0.48766   0.00000  Uiso   1.00
C279   C     0.16575   0.51873   0.43268   0.00000  Uiso   1.00
C280   C     0.18697   0.50733   0.01243   0.00000  Uiso   1.00
C281   C     0.23566   0.50476   0.48321   0.00000  Uiso   1.00
C282   C     0.24884   0.51185   0.42933   0.00000  Uiso   1.00
C283   C     0.21436   0.52235   0.40590   0.00000  Uiso   1.00
C284   C     0.17452   0.49495   0.06482   0.00000  Uiso   1.00
C285   C     0.25657   0.50039   0.06366   0.00000  Uiso   1.00
C286   C     0.13003   0.51570   0.40701   0.00000  Uiso   1.00
C287   C     0.18601   0.64505   0.28766   0.00000  Uiso   1.00
C288   C     0.14172   0.50410   0.35109   0.00000  Uiso   1.00
C289   C     0.18791   0.35515   0.28435   0.00000  Uiso   1.00
C290   C     0.16705   0.37595   0.25090   0.00000  Uiso   1.00
C291   C     0.14368   0.35494   0.22074   0.00000  Uiso   1.00
C292   C     0.14241   0.64544   0.22259   0.00000  Uiso   1.00
C293   C     0.16418   0.62415   0.25491   0.00000  Uiso   1.00
C294   C     0.31410   0.46466   0.23512   0.00000  Uiso   1.00
C295   C     0.02914   0.46527   0.23465   0.00000  Uiso   1.00
C296   C     0.01918   0.53553   0.26310   0.00000  Uiso   1.00
C297   C     0.30479   0.53522   0.26306   0.00000  Uiso   1.00
C298   C     0.16703   0.42008   0.24979   0.00000  Uiso   1.00
C299   C     0.19239   0.49908   0.14877   0.00000  Uiso   1.00
C300   C     0.26995   0.49692   0.00927   0.00000  Uiso   1.00
C301   C     0.20825   0.49776   0.09182   0.00000  Uiso   1.00
C302   C     0.08312   0.52416   0.43566   0.00000  Uiso   1.00
C303   C     0.07180   0.53600   0.48791   0.00000  Uiso   1.00
C304   C     0.10569   0.53364   0.01474   0.00000  Uiso   1.00
H305   H     0.20403   0.37324   0.30842   0.00000  Uiso   1.00
H306   H     0.12722   0.37166   0.19528   0.00000  Uiso   1.00
H307   H     0.12560   0.62884   0.19785   0.00000  Uiso   1.00
H308   H     0.05227   0.43840   0.22102   0.00000  Uiso   1.00
H309   H     0.28311   0.56340   0.27366   0.00000  Uiso   1.00
H310   H     0.05550   0.52381   0.41704   0.00000  Uiso   1.00
H311   H     0.03655   0.54761   0.00731   0.00000  Uiso   1.00
H312   H     0.22732   0.53486   0.36699   0.00000  Uiso   1.00
N313   N     0.04760   0.50001   0.25002   0.00000  Uiso   1.00
N314   N     0.28573   0.49998   0.25001   0.00000  Uiso   1.00
O315   O     0.12846   0.56108   0.25001   0.00000  Uiso   1.00
O316   O     0.20490   0.56107   0.25001   0.00000  Uiso   1.00
O317   O     0.10947   0.50000   0.32681   0.00000  Uiso   1.00
O318   O     0.18591   0.49999   0.32681   0.00000  Uiso   1.00
O319   O     0.12843   0.43893   0.25000   0.00000  Uiso   1.00
O320   O     0.20488   0.43892   0.25000   0.00000  Uiso   1.00
O321   O     0.14742   0.50001   0.17319   0.00000  Uiso   1.00
O322   O     0.22387   0.50000   0.17319   0.00000  Uiso   1.00
Zn323  Zn    0.11562   0.50001   0.25000   0.00000  Uiso   1.00
Zn324  Zn    0.21771   0.49999   0.25000   0.00000  Uiso   1.00
N325   N     0.29027   0.51276   0.08889   0.00000  Uiso   1.00
H326   H     0.30652   0.54063   0.07598   0.00000  Uiso   1.00
C327   C     0.32094   0.48063   0.09996   0.00000  Uiso   1.00
H328   H     0.02045   0.47724   0.06681   0.00000  Uiso   1.00
H329   H     0.30271   0.45016   0.10872   0.00000  Uiso   1.00
H330   H     0.33152   0.49054   0.13438   0.00000  Uiso   1.00
O331   O     0.29600   0.43046   0.21601   0.00000  Uiso   1.00
C332   C     0.30921   0.39214   0.23477   0.00000  Uiso   1.00
H333   H     0.30653   0.39379   0.27714   0.00000  Uiso   1.00
H334   H     0.01187   0.38185   0.21098   0.00000  Uiso   1.00
H335   H     0.28480   0.36761   0.23005   0.00000  Uiso   1.00
N336   N     0.03784   0.57380   0.27416   0.00000  Uiso   1.00
H337   H     0.02919   0.59896   0.25430   0.00000  Uiso   1.00
C338   C     0.02800   0.58291   0.32921   0.00000  Uiso   1.00
H339   H     0.32276   0.58766   0.34789   0.00000  Uiso   1.00
H340   H     0.04636   0.61191   0.33426   0.00000  Uiso   1.00
H341   H     0.04113   0.55685   0.34863   0.00000  Uiso   1.00
O342   O     0.29564   0.50993   0.39926   0.00000  Uiso   1.00
C343   C     0.30314   0.47255   0.36932   0.00000  Uiso   1.00
H344   H     0.28354   0.47348   0.34018   0.00000  Uiso   1.00
H345   H     0.29175   0.44432   0.39369   0.00000  Uiso   1.00
H346   H     0.00809   0.46866   0.34881   0.00000  Uiso   1.00
O347   O     0.31677   0.48908   0.48206   0.00000  Uiso   1.00
C348   C     0.32503   0.44510   0.47845   0.00000  Uiso   1.00
H349   H     0.29486   0.42711   0.47334   0.00000  Uiso   1.00
H350   H     0.33321   0.43284   0.01342   0.00000  Uiso   1.00
H351   H     0.02293   0.43830   0.44420   0.00000  Uiso   1.00
O352   O     0.12958   0.48080   0.08974   0.00000  Uiso   1.00
C353   C     0.12904   0.43724   0.08101   0.00000  Uiso   1.00
H354   H     0.09318   0.42581   0.10147   0.00000  Uiso   1.00
H355   H     0.13657   0.42995   0.03862   0.00000  Uiso   1.00
H356   H     0.15446   0.42009   0.09735   0.00000  Uiso   1.00
N357   N     0.09378   0.55039   0.06655   0.00000  Uiso   1.00
H358   H     0.05810   0.55105   0.08621   0.00000  Uiso   1.00
C359   C     0.11592   0.58963   0.07130   0.00000  Uiso   1.00
H360   H     0.10613   0.59910   0.11314   0.00000  Uiso   1.00
H361   H     0.10376   0.61461   0.04907   0.00000  Uiso   1.00
H362   H     0.15500   0.58633   0.05651   0.00000  Uiso   1.00
N363   N     0.20404   0.62191   0.32380   0.00000  Uiso   1.00
H364   H     0.18297   0.59784   0.34265   0.00000  Uiso   1.00
C365   C     0.22824   0.64327   0.35571   0.00000  Uiso   1.00
H366   H     0.20356   0.66536   0.38332   0.00000  Uiso   1.00
H367   H     0.25909   0.66020   0.33053   0.00000  Uiso   1.00
H368   H     0.24148   0.61984   0.37892   0.00000  Uiso   1.00
C369   C     0.49915   0.57991   0.25178   0.00000  Uiso   1.00
C370   C     0.48564   0.51891   0.48766   0.00000  Uiso   1.00
C371   C     0.49908   0.51873   0.43268   0.00000  Uiso   1.00
C372   C     0.52030   0.50733   0.01243   0.00000  Uiso   1.00
C373   C     0.56899   0.50476   0.48321   0.00000  Uiso   1.00
C374   C     0.58217   0.51185   0.42933   0.00000  Uiso   1.00
C375   C     0.54769   0.52235   0.40590   0.00000  Uiso   1.00
C376   C     0.50785   0.49495   0.06482   0.00000  Uiso   1.00
C377   C     0.58990   0.50039   0.06366   0.00000  Uiso   1.00
C378   C     0.46336   0.51570   0.40701   0.00000  Uiso   1.00
C379   C     0.51934   0.64505   0.28766   0.00000  Uiso   1.00
C380   C     0.47505   0.50410   0.35109   0.00000  Uiso   1.00
C381   C     0.52125   0.35515   0.28435   0.00000  Uiso   1.00
C382   C     0.50039   0.37595   0.25090   0.00000  Uiso   1.00
C383   C     0.47701   0.35494   0.22074   0.00000  Uiso   1.00
C384   C     0.47575   0.64544   0.22259   0.00000  Uiso   1.00
C385   C     0.49751   0.62415   0.25491   0.00000  Uiso   1.00
C386   C     0.64744   0.46466   0.23512   0.00000  Uiso   1.00
C387   C     0.36248   0.46527   0.23465   0.00000  Uiso   1.00
C388   C     0.35251   0.53553   0.26310   0.00000  Uiso   1.00
C389   C     0.63813   0.53522   0.26306   0.00000  Uiso   1.00
C390   C     0.50037   0.42008   0.24979   0.00000  Uiso   1.00
C391   C     0.52573   0.49908   0.14877   0.00000  Uiso   1.00
C392   C     0.60328   0.49692   0.00927   0.00000  Uiso   1.00
C393   C     0.54158   0.49776   0.09182   0.00000  Uiso   1.00
C394   C     0.41645   0.52416   0.43566   0.00000  Uiso   1.00
C395   C     0.40514   0.53600   0.48791   0.00000  Uiso   1.00
C396   C     0.43903   0.53364   0.01474   0.00000  Uiso   1.00
H397   H     0.53736   0.37324   0.30842   0.00000  Uiso   1.00
H398   H     0.46055   0.37166   0.19528   0.00000  Uiso   1.00
H399   H     0.45893   0.62884   0.19785   0.00000  Uiso   1.00
H400   H     0.38560   0.43840   0.22102   0.00000  Uiso   1.00
H401   H     0.61645   0.56340   0.27366   0.00000  Uiso   1.00
H402   H     0.38884   0.52381   0.41704   0.00000  Uiso   1.00
H403   H     0.36988   0.54761   0.00731   0.00000  Uiso   1.00
H404   H     0.56066   0.53486   0.36699   0.00000  Uiso   1.00
N405   N     0.38093   0.50001   0.25002   0.00000  Uiso   1.00
N406   N     0.61906   0.49998   0.25001   0.00000  Uiso   1.00
O407   O     0.46179   0.56108   0.25001   0.00000  Uiso   1.00
O408   O     0.53823   0.56107   0.25001   0.00000  Uiso   1.00
O409   O     0.44280   0.50000   0.32681   0.00000  Uiso   1.00
O410   O     0.51924   0.49999   0.32681   0.00000  Uiso   1.00
O411   O     0.46177   0.43893   0.25000   0.00000  Uiso   1.00
O412   O     0.53821   0.43892   0.25000   0.00000  Uiso   1.00
O413   O     0.48076   0.50001   0.17319   0.00000  Uiso   1.00
O414   O     0.55720   0.50000   0.17319   0.00000  Uiso   1.00
Zn415  Zn    0.44896   0.50001   0.25000   0.00000  Uiso   1.00
Zn416  Zn    0.55104   0.49999   0.25000   0.00000  Uiso   1.00
N417   N     0.62361   0.51276   0.08889   0.00000  Uiso   1.00
H418   H     0.63986   0.54063   0.07598   0.00000  Uiso   1.00
C419   C     0.65427   0.48063   0.09996   0.00000  Uiso   1.00
H420   H     0.35379   0.47724   0.06681   0.00000  Uiso   1.00
H421   H     0.63604   0.45016   0.10872   0.00000  Uiso   1.00
H422   H     0.66485   0.49054   0.13438   0.00000  Uiso   1.00
O423   O     0.62933   0.43046   0.21601   0.00000  Uiso   1.00
C424   C     0.64254   0.39214   0.23477   0.00000  Uiso   1.00
H425   H     0.63986   0.39379   0.27714   0.00000  Uiso   1.00
H426   H     0.34521   0.38185   0.21098   0.00000  Uiso   1.00
H427   H     0.61813   0.36761   0.23005   0.00000  Uiso   1.00
N428   N     0.37118   0.57380   0.27416   0.00000  Uiso   1.00
H429   H     0.36253   0.59896   0.25430   0.00000  Uiso   1.00
C430   C     0.36133   0.58291   0.32921   0.00000  Uiso   1.00
H431   H     0.65609   0.58766   0.34789   0.00000  Uiso   1.00
H432   H     0.37970   0.61191   0.33426   0.00000  Uiso   1.00
H433   H     0.37447   0.55685   0.34863   0.00000  Uiso   1.00
O434   O     0.62898   0.50993   0.39926   0.00000  Uiso   1.00
C435   C     0.63648   0.47255   0.36932   0.00000  Uiso   1.00
H436   H     0.61687   0.47348   0.34018   0.00000  Uiso   1.00
H437   H     0.62509   0.44432   0.39369   0.00000  Uiso   1.00
H438   H     0.34142   0.46866   0.34881   0.00000  Uiso   1.00
O439   O     0.65010   0.48908   0.48206   0.00000  Uiso   1.00
C440   C     0.65837   0.44510   0.47845   0.00000  Uiso   1.00
H441   H     0.62819   0.42711   0.47334   0.00000  Uiso   1.00
H442   H     0.66655   0.43284   0.01342   0.00000  Uiso   1.00
H443   H     0.35626   0.43830   0.44420   0.00000  Uiso   1.00
O444   O     0.46291   0.48080   0.08974   0.00000  Uiso   1.00
C445   C     0.46237   0.43724   0.08101   0.00000  Uiso   1.00
H446   H     0.42652   0.42581   0.10147   0.00000  Uiso   1.00
H447   H     0.46991   0.42995   0.03862   0.00000  Uiso   1.00
H448   H     0.48780   0.42009   0.09735   0.00000  Uiso   1.00
N449   N     0.42711   0.55039   0.06655   0.00000  Uiso   1.00
H450   H     0.39143   0.55105   0.08621   0.00000  Uiso   1.00
C451   C     0.44926   0.58963   0.07130   0.00000  Uiso   1.00
H452   H     0.43946   0.59910   0.11314   0.00000  Uiso   1.00
H453   H     0.43710   0.61461   0.04907   0.00000  Uiso   1.00
H454   H     0.48833   0.58633   0.05651   0.00000  Uiso   1.00
N455   N     0.53737   0.62191   0.32380   0.00000  Uiso   1.00
H456   H     0.51630   0.59784   0.34265   0.00000  Uiso   1.00
C457   C     0.56157   0.64327   0.35571   0.00000  Uiso   1.00
H458   H     0.53689   0.66536   0.38332   0.00000  Uiso   1.00
H459   H     0.59242   0.66020   0.33053   0.00000  Uiso   1.00
H460   H     0.57482   0.61984   0.37892   0.00000  Uiso   1.00
C461   C     0.83249   0.57991   0.25178   0.00000  Uiso   1.00
C462   C     0.81897   0.51891   0.48766   0.00000  Uiso   1.00
C463   C     0.83242   0.51873   0.43268   0.00000  Uiso   1.00
C464   C     0.85363   0.50733   0.01243   0.00000  Uiso   1.00
C465   C     0.90232   0.50476   0.48321   0.00000  Uiso   1.00
C466   C     0.91551   0.51185   0.42933   0.00000  Uiso   1.00
C467   C     0.88103   0.52235   0.40590   0.00000  Uiso   1.00
C468   C     0.84118   0.49495   0.06482   0.00000  Uiso   1.00
C469   C     0.92323   0.50039   0.06366   0.00000  Uiso   1.00
C470   C     0.79670   0.51570   0.40701   0.00000  Uiso   1.00
C471   C     0.85268   0.64505   0.28766   0.00000  Uiso   1.00
C472   C     0.80838   0.50410   0.35109   0.00000  Uiso   1.00
C473   C     0.85458   0.35515   0.28435   0.00000  Uiso   1.00
C474   C     0.83372   0.37595   0.25090   0.00000  Uiso   1.00
C475   C     0.81034   0.35494   0.22074   0.00000  Uiso   1.00
C476   C     0.80908   0.64544   0.22259   0.00000  Uiso   1.00
C477   C     0.83085   0.62415   0.25491   0.00000  Uiso   1.00
C478   C     0.98077   0.46466   0.23512   0.00000  Uiso   1.00
C479   C     0.69581   0.46527   0.23465   0.00000  Uiso   1.00
C480   C     0.68584   0.53553   0.26310   0.00000  Uiso   1.00
C481   C     0.97146   0.53522   0.26306   0.00000  Uiso   1.00
C482   C     0.83370   0.42008   0.24979   0.00000  Uiso   1.00
C483   C     0.85906   0.49908   0.14877   0.00000  Uiso   1.00
C484   C     0.93661   0.49692   0.00927   0.00000  Uiso   1.00
C485   C     0.87491   0.49776   0.09182   0.00000  Uiso   1.00
C486   C     0.74978   0.52416   0.43566   0.00000  Uiso   1.00
C487   C     0.73847   0.53600   0.48791   0.00000  Uiso   1.00
C488   C     0.77236   0.53364   0.01474   0.00000  Uiso   1.00
H489   H     0.87069   0.37324   0.30842   0.00000  Uiso   1.00
H490   H     0.79389   0.37166   0.19528   0.00000  Uiso   1.00
H491   H     0.79226   0.62884   0.19785   0.00000  Uiso   1.00
H492   H     0.71894   0.43840   0.22102   0.00000  Uiso   1.00
H493   H     0.94978   0.56340   0.27366   0.00000  Uiso   1.00
H494   H     0.72217   0.52381   0.41704   0.00000  Uiso   1.00
H495   H     0.70321   0.54761   0.00731   0.00000  Uiso   1.00
H496   H     0.89399   0.53486   0.36699   0.00000  Uiso   1.00
N497   N     0.71426   0.50001   0.25002   0.00000  Uiso   1.00
N498   N     0.95239   0.49998   0.25001   0.00000  Uiso   1.00
O499   O     0.79512   0.56108   0.25001   0.00000  Uiso   1.00
O500   O     0.87157   0.56107   0.25001   0.00000  Uiso   1.00
O501   O     0.77613   0.50000   0.32681   0.00000  Uiso   1.00
O502   O     0.85258   0.49999   0.32681   0.00000  Uiso   1.00
O503   O     0.79510   0.43893   0.25000   0.00000  Uiso   1.00
O504   O     0.87154   0.43892   0.25000   0.00000  Uiso   1.00
O505   O     0.81409   0.50001   0.17319   0.00000  Uiso   1.00
O506   O     0.89053   0.50000   0.17319   0.00000  Uiso   1.00
Zn507  Zn    0.78229   0.50001   0.25000   0.00000  Uiso   1.00
Zn508  Zn    0.88438   0.49999   0.25000   0.00000  Uiso   1.00
N509   N     0.95694   0.51276   0.08889   0.00000  Uiso   1.00
H510   H     0.97319   0.54063   0.07598   0.00000  Uiso   1.00
C511   C     0.98761   0.48063   0.09996   0.00000  Uiso   1.00
H512   H     0.68712   0.47724   0.06681   0.00000  Uiso   1.00
H513   H     0.96937   0.45016   0.10872   0.00000  Uiso   1.00
H514   H     0.99819   0.49054   0.13438   0.00000  Uiso   1.00
O515   O     0.96266   0.43046   0.21601   0.00000  Uiso   1.00
C516   C     0.97587   0.39214   0.23477   0.00000  Uiso   1.00
H517   H     0.97319   0.39379   0.27714   0.00000  Uiso   1.00
H518   H     0.67854   0.38185   0.21098   0.00000  Uiso   1.00
H519   H     0.95146   0.36761   0.23005   0.00000  Uiso   1.00
N520   N     0.70451   0.57380   0.27416   0.00000  Uiso   1.00
H521   H     0.69586   0.59896   0.25430   0.00000  Uiso   1.00
C522   C     0.69467   0.58291   0.32921   0.00000  Uiso   1.00
H523   H     0.98942   0.58766   0.34789   0.00000  Uiso   1.00
H524   H     0.71303   0.61191   0.33426   0.00000  Uiso   1.00
H525   H     0.70780   0.55685   0.34863   0.00000  Uiso   1.00
O526   O     0.96231   0.50993   0.39926   0.00000  Uiso   1.00
C527   C     0.96981   0.47255   0.36932   0.00000  Uiso   1.00
H528   H     0.95020   0.47348   0.34018   0.00000  Uiso   1.00
H529   H     0.95842   0.44432   0.39369   0.00000  Uiso   1.00
H530   H     0.67475   0.46866   0.34881   0.00000  Uiso   1.00
O531   O     0.98343   0.48908   0.48206   0.00000  Uiso   1.00
C532   C     0.99170   0.44510   0.47845   0.00000  Uiso   1.00
H533   H     0.96153   0.42711   0.47334   0.00000  Uiso   1.00
H534   H     0.99988   0.43284   0.01342   0.00000  Uiso   1.00
H535   H     0.68959   0.43830   0.44420   0.00000  Uiso   1.00
O536   O     0.79624   0.48080   0.08974   0.00000  Uiso   1.00
C537   C     0.79571   0.43724   0.08101   0.00000  Uiso   1.00
H538   H     0.75985   0.42581   0.10147   0.00000  Uiso   1.00
H539   H     0.80324   0.42995   0.03862   0.00000  Uiso   1.00
H540   H     0.82113   0.42009   0.09735   0.00000  Uiso   1.00
N541   N     0.76045   0.55039   0.06655   0.00000  Uiso   1.00
H542   H     0.72476   0.55105   0.08621   0.00000  Uiso   1.00
C543   C     0.78259   0.58963   0.07130   0.00000  Uiso   1.00
H544   H     0.77279   0.59910   0.11314   0.00000  Uiso   1.00
H545   H     0.77043   0.61461   0.04907   0.00000  Uiso   1.00
H546   H     0.82167   0.58633   0.05651   0.00000  Uiso   1.00
N547   N     0.87070   0.62191   0.32380   0.00000  Uiso   1.00
H548   H     0.84963   0.59784   0.34265   0.00000  Uiso   1.00
C549   C     0.89491   0.64327   0.35571   0.00000  Uiso   1.00
H550   H     0.87022   0.66536   0.38332   0.00000  Uiso   1.00
H551   H     0.92576   0.66020   0.33053   0.00000  Uiso   1.00
H552   H     0.90815   0.61984   0.37892   0.00000  Uiso   1.00
C553   C     0.16582   0.91324   0.25178   0.00000  Uiso   1.00
C554   C     0.15230   0.85224   0.48766   0.00000  Uiso   1.00
C555   C     0.16575   0.85206   0.43268   0.00000  Uiso   1.00
C556   C     0.18697   0.84066   0.01243   0.00000  Uiso   1.00
C557   C     0.23566   0.83810   0.48321   0.00000  Uiso   1.00
C558   C     0.24884   0.84518   0.42933   0.00000  Uiso   1.00
C559   C     0.21436   0.85569   0.40590   0.00000  Uiso   1.00
C560   C     0.17452   0.82828   0.06482   0.00000  Uiso   1.00
C561   C     0.25657   0.83372   0.06366   0.00000  Uiso   1.00
C562   C     0.13003   0.84904   0.40701   0.00000  Uiso   1.00
C563   C     0.18601   0.97839   0.28766   0.00000  Uiso   1.00
C564   C     0.14172   0.83743   0.35109   0.00000  Uiso   1.00
C565   C     0.18791   0.68849   0.28435   0.00000  Uiso   1.00
C566   C     0.16705   0.70928   0.25090   0.00000  Uiso   1.00
C567   C     0.14368   0.68827   0.22074   0.00000  Uiso   1.00
C568   C     0.14241   0.97877   0.22259   0.00000  Uiso   1.00
C569   C     0.16418   0.95748   0.25491   0.00000  Uiso   1.00
C570   C     0.31410   0.79799   0.23512   0.00000  Uiso   1.00
C571   C     0.02914   0.79860   0.23465   0.00000  Uiso   1.00
C572   C     0.01918   0.86886   0.26310   0.00000  Uiso   1.00
C573   C     0.30479   0.86855   0.26306   0.00000  Uiso   1.00
C574   C     0.16703   0.75341   0.24979   0.00000  Uiso   1.00
C575   C     0.19239   0.83242   0.14877   0.00000  Uiso   1.00
C576   C     0.26995   0.83026   0.00927   0.00000  Uiso   1.00
C577   C     0.20825   0.83109   0.09182   0.00000  Uiso   1.00
C578   C     0.08312   0.85749   0.43566   0.00000  Uiso   1.00
C579   C     0.07180   0.86933   0.48791   0.00000  Uiso   1.00
C580   C     0.10569   0.86697   0.01474   0.00000  Uiso   1.00
H581   H     0.20403   0.70657   0.30842   0.00000  Uiso   1.00
H582   H     0.12722   0.70500   0.19528   0.00000  Uiso   1.00
H583   H     0.12560   0.96217   0.19785   0.00000  Uiso   1.00
H584   H     0.05227   0.77173   0.22102   0.00000  Uiso   1.00
H585   H     0.28311   0.89673   0.27366   0.00000  Uiso   1.00
H586   H     0.05550   0.85714   0.41704   0.00000  Uiso   1.00
H587   H     0.03655   0.88094   0.00731   0.00000  Uiso   1.00
H588   H     0.22732   0.86819   0.36699   0.00000  Uiso   1.00
N589   N     0.04760   0.83334   0.25002   0.00000  Uiso   1.00
N590   N     0.28573   0.83331   0.25001   0.00000  Uiso   1.00
O591   O     0.12846   0.89442   0.25001   0.00000  Uiso   1.00
O592   O     0.20490   0.89441   0.25001   0.00000  Uiso   1.00
O593   O     0.10947   0.83333   0.32681   0.00000  Uiso   1.00
O594   O     0.18591   0.83332   0.32681   0.00000  Uiso   1.00
O595   O     0.12843   0.77226   0.25000   0.00000  Uiso   1.00
O596   O     0.20488   0.77225   0.25000   0.00000  Uiso   1.00
O597   O     0.14742   0.83335   0.17319   0.00000  Uiso   1.00
O598   O     0.22387   0.83334   0.17319   0.00000  Uiso   1.00
Zn599  Zn    0.11562   0.83334   0.25000   0.00000  Uiso   1.00
Zn600  Zn    0.21771   0.83333   0.25000   0.00000  Uiso   1.00
N601   N     0.29027   0.84609   0.08889   0.00000  Uiso   1.00
H602   H     0.30652   0.87397   0.07598   0.00000  Uiso   1.00
C603   C     0.32094   0.81397   0.09996   0.00000  Uiso   1.00
H604   H     0.02045   0.81057   0.06681   0.00000  Uiso   1.00
H605   H     0.30271   0.78349   0.10872   0.00000  Uiso   1.00
H606   H     0.33152   0.82387   0.13438   0.00000  Uiso   1.00
O607   O     0.29600   0.76379   0.21601   0.00000  Uiso   1.00
C608   C     0.30921   0.72547   0.23477   0.00000  Uiso   1.00
H609   H     0.30653   0.72712   0.27714   0.00000  Uiso   1.00
H610   H     0.01187   0.71518   0.21098   0.00000  Uiso   1.00
H611   H     0.28480   0.70095   0.23005   0.00000  Uiso   1.00
N612   N     0.03784   0.90713   0.27416   0.00000  Uiso   1.00
H613   H     0.02919   0.93229   0.25430   0.00000  Uiso   1.00
C614   C     0.02800   0.91625   0.32921   0.00000  Uiso   1.00
H615   H     0.32276   0.92099   0.34789   0.00000  Uiso   1.00
H616   H     0.04636   0.94524   0.33426   0.00000  Uiso   1.00
H617   H     0.04113   0.89018   0.34863   0.00000  Uiso   1.00
O618   O     0.29564   0.84326   0.39926   0.00000  Uiso   1.00
C619   C     0.30314   0.80588   0.36932   0.00000  Uiso   1.00
H620   H     0.28354   0.80681   0.34018   0.00000  Uiso   1.00
H621   H     0.29175   0.77765   0.39369   0.00000  Uiso   1.00
H622   H     0.00809   0.80199   0.34881   0.00000  Uiso   1.00
O623   O     0.31677   0.82241   0.48206   0.00000  Uiso   1.00
C624   C     0.32503   0.77843   0.47845   0.00000  Uiso   1.00
H625   H     0.29486   0.76044   0.47334   0.00000  Uiso   1.00
H626   H     0.33321   0.76617   0.01342   0.00000  Uiso   1.00
H627   H     0.02293   0.77163   0.44420   0.00000  Uiso   1.00
O628   O     0.12958   0.81413   0.08974   0.00000  Uiso   1.00
C629   C     0.12904   0.77058   0.08101   0.00000  Uiso   1.00
H630   H     0.09318   0.75915   0.10147   0.00000  Uiso   1.00
H631   H     0.13657   0.76329   0.03862   0.00000  Uiso   1.00
H632   H     0.15446   0.75342   0.09735   0.00000  Uiso   1.00
N633   N     0.09378   0.88372   0.06655   0.00000  Uiso   1.00
H634   H     0.05810   0.88439   0.08621   0.00000  Uiso   1.00
C635   C     0.11592   0.92297   0.07130   0.00000  Uiso   1.00
H636   H     0.10613   0.93243   0.11314   0.00000  Uiso   1.00
H637   H     0.10376   0.94794   0.04907   0.00000  Uiso   1.00
H638   H     0.15500   0.91967   0.05651   0.00000  Uiso   1.00
N639   N     0.20404   0.95524   0.32380   0.00000  Uiso   1.00
H640   H     0.18297   0.93117   0.34265   0.00000  Uiso   1.00
C641   C     0.22824   0.97660   0.35571   0.00000  Uiso   1.00
H642   H     0.20356   0.99870   0.38332   0.00000  Uiso   1.00
H643   H     0.25909   0.99353   0.33053   0.00000  Uiso   1.00
H644   H     0.24148   0.95317   0.37892   0.00000  Uiso   1.00
C645   C     0.49915   0.91324   0.25178   0.00000  Uiso   1.00
C646   C     0.48564   0.85224   0.48766   0.00000  Uiso   1.00
C647   C     0.49908   0.85206   0.43268   0.00000  Uiso   1.00
C648   C     0.52030   0.84066   0.01243   0.00000  Uiso   1.00
C649   C     0.56899   0.83810   0.48321   0.00000  Uiso   1.00
C650   C     0.58217   0.84518   0.42933   0.00000  Uiso   1.00
C651   C     0.54769   0.85569   0.40590   0.00000  Uiso   1.00
C652   C     0.50785   0.82828   0.06482   0.00000  Uiso   1.00
C653   C     0.58990   0.83372   0.06366   0.00000  Uiso   1.00
C654   C     0.46336   0.84904   0.40701   0.00000  Uiso   1.00
C655   C     0.51934   0.97839   0.28766   0.00000  Uiso   1.00
C656   C     0.47505   0.83743   0.35109   0.00000  Uiso   1.00
C657   C     0.52125   0.68849   0.28435   0.00000  Uiso   1.00
C658   C     0.50039   0.70928   0.25090   0.00000  Uiso   1.00
C659   C     0.47701   0.68827   0.22074   0.00000  Uiso   1.00
C660   C     0.47575   0.97877   0.22259   0.00000  Uiso   1.00
C661   C     0.49751   0.95748   0.25491   0.00000  Uiso   1.00
C662   C     0.64744   0.79799   0.23512   0.00000  Uiso   1.00
C663   C     0.36248   0.79860   0.23465   0.00000  Uiso   1.00
C664   C     0.35251   0.86886   0.26310   0.00000  Uiso   1.00
C665   C     0.63813   0.86855   0.26306   0.00000  Uiso   1.00
C666   C     0.50037   0.75341   0.24979   0.00000  Uiso   1.00
C667   C     0.52573   0.83242   0.14877   0.00000  Uiso   1.00
C668   C     0.60328   0.83026   0.00927   0.00000  Uiso   1.00
C669   C     0.54158   0.83109   0.09182   0.00000  Uiso   1.00
C670   C     0.41645   0.85749   0.43566   0.00000  Uiso   1.00
C671   C     0.40514   0.86933   0.48791   0.00000  Uiso   1.00
C672   C     0.43903   0.86697   0.01474   0.00000  Uiso   1.00
H673   H     0.53736   0.70657   0.30842   0.00000  Uiso   1.00
H674   H     0.46055   0.70500   0.19528   0.00000  Uiso   1.00
H675   H     0.45893   0.96217   0.19785   0.00000  Uiso   1.00
H676   H     0.38560   0.77173   0.22102   0.00000  Uiso   1.00
H677   H     0.61645   0.89673   0.27366   0.00000  Uiso   1.00
H678   H     0.38884   0.85714   0.41704   0.00000  Uiso   1.00
H679   H     0.36988   0.88094   0.00731   0.00000  Uiso   1.00
H680   H     0.56066   0.86819   0.36699   0.00000  Uiso   1.00
N681   N     0.38093   0.83334   0.25002   0.00000  Uiso   1.00
N682   N     0.61906   0.83331   0.25001   0.00000  Uiso   1.00
O683   O     0.46179   0.89442   0.25001   0.00000  Uiso   1.00
O684   O     0.53823   0.89441   0.25001   0.00000  Uiso   1.00
O685   O     0.44280   0.83333   0.32681   0.00000  Uiso   1.00
O686   O     0.51924   0.83332   0.32681   0.00000  Uiso   1.00
O687   O     0.46177   0.77226   0.25000   0.00000  Uiso   1.00
O688   O     0.53821   0.77225   0.25000   0.00000  Uiso   1.00
O689   O     0.48076   0.83335   0.17319   0.00000  Uiso   1.00
O690   O     0.55720   0.83334   0.17319   0.00000  Uiso   1.00
Zn691  Zn    0.44896   0.83334   0.25000   0.00000  Uiso   1.00
Zn692  Zn    0.55104   0.83333   0.25000   0.00000  Uiso   1.00
N693   N     0.62361   0.84609   0.08889   0.00000  Uiso   1.00
H694   H     0.63986   0.87397   0.07598   0.00000  Uiso   1.00
C695   C     0.65427   0.81397   0.09996   0.00000  Uiso   1.00
H696   H     0.35379   0.81057   0.06681   0.00000  Uiso   1.00
H697   H     0.63604   0.78349   0.10872   0.00000  Uiso   1.00
H698   H     0.66485   0.82387   0.13438   0.00000  Uiso   1.00
O699   O     0.62933   0.76379   0.21601   0.00000  Uiso   1.00
C700   C     0.64254   0.72547   0.23477   0.00000  Uiso   1.00
H701   H     0.63986   0.72712   0.27714   0.00000  Uiso   1.00
H702   H     0.34521   0.71518   0.21098   0.00000  Uiso   1.00
H703   H     0.61813   0.70095   0.23005   0.00000  Uiso   1.00
N704   N     0.37118   0.90713   0.27416   0.00000  Uiso   1.00
H705   H     0.36253   0.93229   0.25430   0.00000  Uiso   1.00
C706   C     0.36133   0.91625   0.32921   0.00000  Uiso   1.00
H707   H     0.65609   0.92099   0.34789   0.00000  Uiso   1.00
H708   H     0.37970   0.94524   0.33426   0.00000  Uiso   1.00
H709   H     0.37447   0.89018   0.34863   0.00000  Uiso   1.00
O710   O     0.62898   0.84326   0.39926   0.00000  Uiso   1.00
C711   C     0.63648   0.80588   0.36932   0.00000  Uiso   1.00
H712   H     0.61687   0.80681   0.34018   0.00000  Uiso   1.00
H713   H     0.62509   0.77765   0.39369   0.00000  Uiso   1.00
H714   H     0.34142   0.80199   0.34881   0.00000  Uiso   1.00
O715   O     0.65010   0.82241   0.48206   0.00000  Uiso   1.00
C716   C     0.65837   0.77843   0.47845   0.00000  Uiso   1.00
H717   H     0.62819   0.76044   0.47334   0.00000  Uiso   1.00
H718   H     0.66655   0.76617   0.01342   0.00000  Uiso   1.00
H719   H     0.35626   0.77163   0.44420   0.00000  Uiso   1.00
O720   O     0.46291   0.81413   0.08974   0.00000  Uiso   1.00
C721   C     0.46237   0.77058   0.08101   0.00000  Uiso   1.00
H722   H     0.42652   0.75915   0.10147   0.00000  Uiso   1.00
H723   H     0.46991   0.76329   0.03862   0.00000  Uiso   1.00
H724   H     0.48780   0.75342   0.09735   0.00000  Uiso   1.00
N725   N     0.42711   0.88372   0.06655   0.00000  Uiso   1.00
H726   H     0.39143   0.88439   0.08621   0.00000  Uiso   1.00
C727   C     0.44926   0.92297   0.07130   0.00000  Uiso   1.00
H728   H     0.43946   0.93243   0.11314   0.00000  Uiso   1.00
H729   H     0.43710   0.94794   0.04907   0.00000  Uiso   1.00
H730   H     0.48833   0.91967   0.05651   0.00000  Uiso   1.00
N731   N     0.53737   0.95524   0.32380   0.00000  Uiso   1.00
H732   H     0.51630   0.93117   0.34265   0.00000  Uiso   1.00
C733   C     0.56157   0.97660   0.35571   0.00000  Uiso   1.00
H734   H     0.53689   0.99870   0.38332   0.00000  Uiso   1.00
H735   H     0.59242   0.99353   0.33053   0.00000  Uiso   1.00
H736   H     0.57482   0.95317   0.37892   0.00000  Uiso   1.00
C737   C     0.83249   0.91324   0.25178   0.00000  Uiso   1.00
C738   C     0.81897   0.85224   0.48766   0.00000  Uiso   1.00
C739   C     0.83242   0.85206   0.43268   0.00000  Uiso   1.00
C740   C     0.85363   0.84066   0.01243   0.00000  Uiso   1.00
C741   C     0.90232   0.83810   0.48321   0.00000  Uiso   1.00
C742   C     0.91551   0.84518   0.42933   0.00000  Uiso   1.00
C743   C     0.88103   0.85569   0.40590   0.00000  Uiso   1.00
C744   C     0.84118   0.82828   0.06482   0.00000  Uiso   1.00
C745   C     0.92323   0.83372   0.06366   0.00000  Uiso   1.00
C746   C     0.79670   0.84904   0.40701   0.00000  Uiso   1.00
C747   C     0.85268   0.97839   0.28766   0.00000  Uiso   1.00
C748   C     0.80838   0.83743   0.35109   0.00000  Uiso   1.00
C749   C     0.85458   0.68849   0.28435   0.00000  Uiso   1.00
C750   C     0.83372   0.70928   0.25090   0.00000  Uiso   1.00
C751   C     0.81034   0.68827   0.22074   0.00000  Uiso   1.00
C752   C     0.80908   0.97877   0.22259   0.00000  Uiso   1.00
C753   C     0.83085   0.95748   0.25491   0.00000  Uiso   1.00
C754   C     0.98077   0.79799   0.23512   0.00000  Uiso   1.00
C755   C     0.69581   0.79860   0.23465   0.00000  Uiso   1.00
C756   C     0.68584   0.86886   0.26310   0.00000  Uiso   1.00
C757   C     0.97146   0.86855   0.26306   0.00000  Uiso   1.00
C758   C     0.83370   0.75341   0.24979   0.00000  Uiso   1.00
C759   C     0.85906   0.83242   0.14877   0.00000  Uiso   1.00
C760   C     0.93661   0.83026   0.00927   0.00000  Uiso   1.00
C761   C     0.87491   0.83109   0.09182   0.00000  Uiso   1.00
C762   C     0.74978   0.85749   0.43566   0.00000  Uiso   1.00
C763   C     0.73847   0.86933   0.48791   0.00000  Uiso   1.00
C764   C     0.77236   0.86697   0.01474   0.00000  Uiso   1.00
H765   H     0.87069   0.70657   0.30842   0.00000  Uiso   1.00
H766   H     0.79389   0.70500   0.19528   0.00000  Uiso   1.00
H767   H     0.79226   0.96217   0.19785   0.00000  Uiso   1.00
H768   H     0.71894   0.77173   0.22102   0.00000  Uiso   1.00
H769   H     0.94978   0.89673   0.27366   0.00000  Uiso   1.00
H770   H     0.72217   0.85714   0.41704   0.00000  Uiso   1.00
H771   H     0.70321   0.88094   0.00731   0.00000  Uiso   1.00
H772   H     0.89399   0.86819   0.36699   0.00000  Uiso   1.00
N773   N     0.71426   0.83334   0.25002   0.00000  Uiso   1.00
N774   N     0.95239   0.83331   0.25001   0.00000  Uiso   1.00
O775   O     0.79512   0.89442   0.25001   0.00000  Uiso   1.00
O776   O     0.87157   0.89441   0.25001   0.00000  Uiso   1.00
O777   O     0.77613   0.83333   0.32681   0.00000  Uiso   1.00
O778   O     0.85258   0.83332   0.32681   0.00000  Uiso   1.00
O779   O     0.79510   0.77226   0.25000   0.00000  Uiso   1.00
O780   O     0.87154   0.77225   0.25000   0.00000  Uiso   1.00
O781   O     0.81409   0.83335   0.17319   0.00000  Uiso   1.00
O782   O     0.89053   0.83334   0.17319   0.00000  Uiso   1.00
Zn783  Zn    0.78229   0.83334   0.25000   0.00000  Uiso   1.00
Zn784  Zn    0.88438   0.83333   0.25000   0.00000  Uiso   1.00
N785   N     0.95694   0.84609   0.08889   0.00000  Uiso   1.00
H786   H     0.97319   0.87397   0.07598   0.00000  Uiso   1.00
C787   C     0.98761   0.81397   0.09996   0.00000  Uiso   1.00
H788   H     0.68712   0.81057   0.06681   0.00000  Uiso   1.00
H789   H     0.96937   0.78349   0.10872   0.00000  Uiso   1.00
H790   H     0.99819   0.82387   0.13438   0.00000  Uiso   1.00
O791   O     0.96266   0.76379   0.21601   0.00000  Uiso   1.00
C792   C     0.97587   0.72547   0.23477   0.00000  Uiso   1.00
H793   H     0.97319   0.72712   0.27714   0.00000  Uiso   1.00
H794   H     0.67854   0.71518   0.21098   0.00000  Uiso   1.00
H795   H     0.95146   0.70095   0.23005   0.00000  Uiso   1.00
N796   N     0.70451   0.90713   0.27416   0.00000  Uiso   1.00
H797   H     0.69586   0.93229   0.25430   0.00000  Uiso   1.00
C798   C     0.69467   0.91625   0.32921   0.00000  Uiso   1.00
H799   H     0.98942   0.92099   0.34789   0.00000  Uiso   1.00
H800   H     0.71303   0.94524   0.33426   0.00000  Uiso   1.00
H801   H     0.70780   0.89018   0.34863   0.00000  Uiso   1.00
O802   O     0.96231   0.84326   0.39926   0.00000  Uiso   1.00
C803   C     0.96981   0.80588   0.36932   0.00000  Uiso   1.00
H804   H     0.95020   0.80681   0.34018   0.00000  Uiso   1.00
H805   H     0.95842   0.77765   0.39369   0.00000  Uiso   1.00
H806   H     0.67475   0.80199   0.34881   0.00000  Uiso   1.00
O807   O     0.98343   0.82241   0.48206   0.00000  Uiso   1.00
C808   C     0.99170   0.77843   0.47845   0.00000  Uiso   1.00
H809   H     0.96153   0.76044   0.47334   0.00000  Uiso   1.00
H810   H     0.99988   0.76617   0.01342   0.00000  Uiso   1.00
H811   H     0.68959   0.77163   0.44420   0.00000  Uiso   1.00
O812   O     0.79624   0.81413   0.08974   0.00000  Uiso   1.00
C813   C     0.79571   0.77058   0.08101   0.00000  Uiso   1.00
H814   H     0.75985   0.75915   0.10147   0.00000  Uiso   1.00
H815   H     0.80324   0.76329   0.03862   0.00000  Uiso   1.00
H816   H     0.82113   0.75342   0.09735   0.00000  Uiso   1.00
N817   N     0.76045   0.88372   0.06655   0.00000  Uiso   1.00
H818   H     0.72476   0.88439   0.08621   0.00000  Uiso   1.00
C819   C     0.78259   0.92297   0.07130   0.00000  Uiso   1.00
H820   H     0.77279   0.93243   0.11314   0.00000  Uiso   1.00
H821   H     0.77043   0.94794   0.04907   0.00000  Uiso   1.00
H822   H     0.82167   0.91967   0.05651   0.00000  Uiso   1.00
N823   N     0.87070   0.95524   0.32380   0.00000  Uiso   1.00
H824   H     0.84963   0.93117   0.34265   0.00000  Uiso   1.00
C825   C     0.89491   0.97660   0.35571   0.00000  Uiso   1.00
H826   H     0.87022   0.99870   0.38332   0.00000  Uiso   1.00
H827   H     0.92576   0.99353   0.33053   0.00000  Uiso   1.00
H828   H     0.90815   0.95317   0.37892   0.00000  Uiso   1.00
C829   C     0.16582   0.24657   0.75178   0.00000  Uiso   1.00
C830   C     0.15230   0.18558   0.98766   0.00000  Uiso   1.00
C831   C     0.16575   0.18539   0.93268   0.00000  Uiso   1.00
C832   C     0.18697   0.17400   0.51243   0.00000  Uiso   1.00
C833   C     0.23566   0.17143   0.98321   0.00000  Uiso   1.00
C834   C     0.24884   0.17852   0.92933   0.00000  Uiso   1.00
C835   C     0.21436   0.18902   0.90590   0.00000  Uiso   1.00
C836   C     0.17452   0.16162   0.56482   0.00000  Uiso   1.00
C837   C     0.25657   0.16706   0.56366   0.00000  Uiso   1.00
C838   C     0.13003   0.18237   0.90701   0.00000  Uiso   1.00
C839   C     0.18601   0.31172   0.78766   0.00000  Uiso   1.00
C840   C     0.14172   0.17077   0.85109   0.00000  Uiso   1.00
C841   C     0.18791   0.02182   0.78435   0.00000  Uiso   1.00
C842   C     0.16705   0.04262   0.75090   0.00000  Uiso   1.00
C843   C     0.14368   0.02161   0.72074   0.00000  Uiso   1.00
C844   C     0.14241   0.31211   0.72259   0.00000  Uiso   1.00
C845   C     0.16418   0.29081   0.75491   0.00000  Uiso   1.00
C846   C     0.31410   0.13132   0.73512   0.00000  Uiso   1.00
C847   C     0.02914   0.13194   0.73465   0.00000  Uiso   1.00
C848   C     0.01918   0.20219   0.76310   0.00000  Uiso   1.00
C849   C     0.30479   0.20188   0.76306   0.00000  Uiso   1.00
C850   C     0.16703   0.08675   0.74979   0.00000  Uiso   1.00
C851   C     0.19239   0.16575   0.64877   0.00000  Uiso   1.00
C852   C     0.26995   0.16359   0.50927   0.00000  Uiso   1.00
C853   C     0.20825   0.16442   0.59182   0.00000  Uiso   1.00
C854   C     0.08312   0.19082   0.93566   0.00000  Uiso   1.00
C855   C     0.07180   0.20267   0.98791   0.00000  Uiso   1.00
C856   C     0.10569   0.20031   0.51474   0.00000  Uiso   1.00
H857   H     0.20403   0.03990   0.80842   0.00000  Uiso   1.00
H858   H     0.12722   0.03833   0.69528   0.00000  Uiso   1.00
H859   H     0.12560   0.29550   0.69785   0.00000  Uiso   1.00
H860   H     0.05227   0.10506   0.72102   0.00000  Uiso   1.00
H861   H     0.28311   0.23007   0.77366   0.00000  Uiso   1.00
H862   H     0.05550   0.19048   0.91704   0.00000  Uiso   1.00
H863   H     0.03655   0.21428   0.50731   0.00000  Uiso   1.00
H864   H     0.22732   0.20153   0.86699   0.00000  Uiso   1.00
N865   N     0.04760   0.16668   0.75002   0.00000  Uiso   1.00
N866   N     0.28573   0.16665   0.75001   0.00000  Uiso   1.00
O867   O     0.12846   0.22775   0.75001   0.00000  Uiso   1.00
O868   O     0.20490   0.22774   0.75001   0.00000  Uiso   1.00
O869   O     0.10947   0.16666   0.82681   0.00000  Uiso   1.00
O870   O     0.18591   0.16665   0.82681   0.00000  Uiso   1.00
O871   O     0.12843   0.10559   0.75000   0.00000  Uiso   1.00
O872   O     0.20488   0.10558   0.75000   0.00000  Uiso   1.00
O873   O     0.14742   0.16668   0.67319   0.00000  Uiso   1.00
O874   O     0.22387   0.16667   0.67319   0.00000  Uiso   1.00
Zn875  Zn    0.11562   0.16667   0.75000   0.00000  Uiso   1.00
Zn876  Zn    0.21771   0.16666   0.75000   0.00000  Uiso   1.00
N877   N     0.29027   0.17942   0.58889   0.00000  Uiso   1.00
H878   H     0.30652   0.20730   0.57598   0.00000  Uiso   1.00
C879   C     0.32094   0.14730   0.59996   0.00000  Uiso   1.00
H880   H     0.02045   0.14390   0.56681   0.00000  Uiso   1.00
H881   H     0.30271   0.11683   0.60872   0.00000  Uiso   1.00
H882   H     0.33152   0.15721   0.63438   0.00000  Uiso   1.00
O883   O     0.29600   0.09712   0.71601   0.00000  Uiso   1.00
C884   C     0.30921   0.05881   0.73477   0.00000  Uiso   1.00
H885   H     0.30653   0.06045   0.77714   0.00000  Uiso   1.00
H886   H     0.01187   0.04852   0.71098   0.00000  Uiso   1.00
H887   H     0.28480   0.03428   0.73005   0.00000  Uiso   1.00
N888   N     0.03784   0.24047   0.77416   0.00000  Uiso   1.00
H889   H     0.02919   0.26562   0.75430   0.00000  Uiso   1.00
C890   C     0.02800   0.24958   0.82921   0.00000  Uiso   1.00
H891   H     0.32276   0.25432   0.84789   0.00000  Uiso   1.00
H892   H     0.04636   0.27858   0.83426   0.00000  Uiso   1.00
H893   H     0.04113   0.22352   0.84863   0.00000  Uiso   1.00
O894   O     0.29564   0.17660   0.89926   0.00000  Uiso   1.00
C895   C     0.30314   0.13921   0.86932   0.00000  Uiso   1.00
H896   H     0.28354   0.14015   0.84018   0.00000  Uiso   1.00
H897   H     0.29175   0.11098   0.89369   0.00000  Uiso   1.00
H898   H     0.00809   0.13533   0.84881   0.00000  Uiso   1.00
O899   O     0.31677   0.15575   0.98206   0.00000  Uiso   1.00
C900   C     0.32503   0.11176   0.97845   0.00000  Uiso   1.00
H901   H     0.29486   0.09377   0.97334   0.00000  Uiso   1.00
H902   H     0.33321   0.09951   0.51342   0.00000  Uiso   1.00
H903   H     0.02293   0.10496   0.94420   0.00000  Uiso   1.00
O904   O     0.12958   0.14746   0.58974   0.00000  Uiso   1.00
C905   C     0.12904   0.10391   0.58101   0.00000  Uiso   1.00
H906   H     0.09318   0.09248   0.60147   0.00000  Uiso   1.00
H907   H     0.13657   0.09662   0.53862   0.00000  Uiso   1.00
H908   H     0.15446   0.08676   0.59735   0.00000  Uiso   1.00
N909   N     0.09378   0.21706   0.56655   0.00000  Uiso   1.00
H910   H     0.05810   0.21772   0.58621   0.00000  Uiso   1.00
C911   C     0.11592   0.25630   0.57130   0.00000  Uiso   1.00
H912   H     0.10613   0.26576   0.61314   0.00000  Uiso   1.00
H913   H     0.10376   0.28127   0.54907   0.00000  Uiso   1.00
H914   H     0.15500   0.25300   0.55651   0.00000  Uiso   1.00
N915   N     0.20404   0.28857   0.82380   0.00000  Uiso   1.00
H916   H     0.18297   0.26451   0.84265   0.00000  Uiso   1.00
C917   C     0.22824   0.30993   0.85571   0.00000  Uiso   1.00
H918   H     0.20356   0.33203   0.88332   0.00000  Uiso   1.00
H919   H     0.25909   0.32687   0.83053   0.00000  Uiso   1.00
H920   H     0.24148   0.28650   0.87892   0.00000  Uiso   1.00
C921   C     0.49915   0.24657   0.75178   0.00000  Uiso   1.00
C922   C     0.48564   0.18558   0.98766   0.00000  Uiso   1.00
C923   C     0.49908   0.18539   0.93268   0.00000  Uiso   1.00
C924   C     0.52030   0.17400   0.51243   0.00000  Uiso   1.00
C925   C     0.56899   0.17143   0.98321   0.00000  Uiso   1.00
C926   C     0.58217   0.17852   0.92933   0.00000  Uiso   1.00
C927   C     0.54769   0.18902   0.90590   0.00000  Uiso   1.00
C928   C     0.50785   0.16162   0.56482   0.00000  Uiso   1.00
C929   C     0.58990   0.16706   0.56366   0.00000  Uiso   1.00
C930   C     0.46336   0.18237   0.90701   0.00000  Uiso   1.00
C931   C     0.51934   0.31172   0.78766   0.00000  Uiso   1.00
C932   C     0.47505   0.17077   0.85109   0.00000  Uiso   1.00
C933   C     0.52125   0.02182   0.78435   0.00000  Uiso   1.00
C934   C     0.50039   0.04262   0.75090   0.00000  Uiso   1.00
C935   C     0.47701   0.02161   0.72074   0.00000  Uiso   1.00
C936   C     0.47575   0.31211   0.72259   0.00000  Uiso   1.00
C937   C     0.49751   0.29081   0.75491   0.00000  Uiso   1.00
C938   C     0.64744   0.13132   0.73512   0.00000  Uiso   1.00
C939   C     0.36248   0.13194   0.73465   0.00000  Uiso   1.00
C940   C     0.35251   0.20219   0.76310   0.00000  Uiso   1.00
C941   C     0.63813   0.20188   0.76306   0.00000  Uiso   1.00
C942   C     0.50037   0.08675   0.74979   0.00000  Uiso   1.00
C943   C     0.52573   0.16575   0.64877   0.00000  Uiso   1.00
C944   C     0.60328   0.16359   0.50927   0.00000  Uiso   1.00
C945   C     0.54158   0.16442   0.59182   0.00000  Uiso   1.00
C946   C     0.41645   0.19082   0.93566   0.00000  Uiso   1.00
C947   C     0.40514   0.20267   0.98791   0.00000  Uiso   1.00
C948   C     0.43903   0.20031   0.51474   0.00000  Uiso   1.00
H949   H     0.53736   0.03990   0.80842   0.00000  Uiso   1.00
H950   H     0.46055   0.03833   0.69528   0.00000  Uiso   1.00
H951   H     0.45893   0.29550   0.69785   0.00000  Uiso   1.00
H952   H     0.38560   0.10506   0.72102   0.00000  Uiso   1.00
H953   H     0.61645   0.23007   0.77366   0.00000  Uiso   1.00
H954   H     0.38884   0.19048   0.91704   0.00000  Uiso   1.00
H955   H     0.36988   0.21428   0.50731   0.00000  Uiso   1.00
H956   H     0.56066   0.20153   0.86699   0.00000  Uiso   1.00
N957   N     0.38093   0.16668   0.75002   0.00000  Uiso   1.00
N958   N     0.61906   0.16665   0.75001   0.00000  Uiso   1.00
O959   O     0.46179   0.22775   0.75001   0.00000  Uiso   1.00
O960   O     0.53823   0.22774   0.75001   0.00000  Uiso   1.00
O961   O     0.44280   0.16666   0.82681   0.00000  Uiso   1.00
O962   O     0.51924   0.16665   0.82681   0.00000  Uiso   1.00
O963   O     0.46177   0.10559   0.75000   0.00000  Uiso   1.00
O964   O     0.53821   0.10558   0.75000   0.00000  Uiso   1.00
O965   O     0.48076   0.16668   0.67319   0.00000  Uiso   1.00
O966   O     0.55720   0.16667   0.67319   0.00000  Uiso   1.00
Zn967  Zn    0.44896   0.16667   0.75000   0.00000  Uiso   1.00
Zn968  Zn    0.55104   0.16666   0.75000   0.00000  Uiso   1.00
N969   N     0.62361   0.17942   0.58889   0.00000  Uiso   1.00
H970   H     0.63986   0.20730   0.57598   0.00000  Uiso   1.00
C971   C     0.65427   0.14730   0.59996   0.00000  Uiso   1.00
H972   H     0.35379   0.14390   0.56681   0.00000  Uiso   1.00
H973   H     0.63604   0.11683   0.60872   0.00000  Uiso   1.00
H974   H     0.66485   0.15721   0.63438   0.00000  Uiso   1.00
O975   O     0.62933   0.09712   0.71601   0.00000  Uiso   1.00
C976   C     0.64254   0.05881   0.73477   0.00000  Uiso   1.00
H977   H     0.63986   0.06045   0.77714   0.00000  Uiso   1.00
H978   H     0.34521   0.04852   0.71098   0.00000  Uiso   1.00
H979   H     0.61813   0.03428   0.73005   0.00000  Uiso   1.00
N980   N     0.37118   0.24047   0.77416   0.00000  Uiso   1.00
H981   H     0.36253   0.26562   0.75430   0.00000  Uiso   1.00
C982   C     0.36133   0.24958   0.82921   0.00000  Uiso   1.00
H983   H     0.65609   0.25432   0.84789   0.00000  Uiso   1.00
H984   H     0.37970   0.27858   0.83426   0.00000  Uiso   1.00
H985   H     0.37447   0.22352   0.84863   0.00000  Uiso   1.00
O986   O     0.62898   0.17660   0.89926   0.00000  Uiso   1.00
C987   C     0.63648   0.13921   0.86932   0.00000  Uiso   1.00
H988   H     0.61687   0.14015   0.84018   0.00000  Uiso   1.00
H989   H     0.62509   0.11098   0.89369   0.00000  Uiso   1.00
H990   H     0.34142   0.13533   0.84881   0.00000  Uiso   1.00
O991   O     0.65010   0.15575   0.98206   0.00000  Uiso   1.00
C992   C     0.65837   0.11176   0.97845   0.00000  Uiso   1.00
H993   H     0.62819   0.09377   0.97334   0.00000  Uiso   1.00
H994   H     0.66655   0.09951   0.51342   0.00000  Uiso   1.00
H995   H     0.35626   0.10496   0.94420   0.00000  Uiso   1.00
O996   O     0.46291   0.14746   0.58974   0.00000  Uiso   1.00
C997   C     0.46237   0.10391   0.58101   0.00000  Uiso   1.00
H998   H     0.42652   0.09248   0.60147   0.00000  Uiso   1.00
H999   H     0.46991   0.09662   0.53862   0.00000  Uiso   1.00
H1000  H     0.48780   0.08676   0.59735   0.00000  Uiso   1.00
N1001  N     0.42711   0.21706   0.56655   0.00000  Uiso   1.00
H1002  H     0.39143   0.21772   0.58621   0.00000  Uiso   1.00
C1003  C     0.44926   0.25630   0.57130   0.00000  Uiso   1.00
H1004  H     0.43946   0.26576   0.61314   0.00000  Uiso   1.00
H1005  H     0.43710   0.28127   0.54907   0.00000  Uiso   1.00
H1006  H     0.48833   0.25300   0.55651   0.00000  Uiso   1.00
N1007  N     0.53737   0.28857   0.82380   0.00000  Uiso   1.00
H1008  H     0.51630   0.26451   0.84265   0.00000  Uiso   1.00
C1009  C     0.56157   0.30993   0.85571   0.00000  Uiso   1.00
H1010  H     0.53689   0.33203   0.88332   0.00000  Uiso   1.00
H1011  H     0.59242   0.32687   0.83053   0.00000  Uiso   1.00
H1012  H     0.57482   0.28650   0.87892   0.00000  Uiso   1.00
C1013  C     0.83249   0.24657   0.75178   0.00000  Uiso   1.00
C1014  C     0.81897   0.18558   0.98766   0.00000  Uiso   1.00
C1015  C     0.83242   0.18539   0.93268   0.00000  Uiso   1.00
C1016  C     0.85363   0.17400   0.51243   0.00000  Uiso   1.00
C1017  C     0.90232   0.17143   0.98321   0.00000  Uiso   1.00
C1018  C     0.91551   0.17852   0.92933   0.00000  Uiso   1.00
C1019  C     0.88103   0.18902   0.90590   0.00000  Uiso   1.00
C1020  C     0.84118   0.16162   0.56482   0.00000  Uiso   1.00
C1021  C     0.92323   0.16706   0.56366   0.00000  Uiso   1.00
C1022  C     0.79670   0.18237   0.90701   0.00000  Uiso   1.00
C1023  C     0.85268   0.31172   0.78766   0.00000  Uiso   1.00
C1024  C     0.80838   0.17077   0.85109   0.00000  Uiso   1.00
C1025  C     0.85458   0.02182   0.78435   0.00000  Uiso   1.00
C1026  C     0.83372   0.04262   0.75090   0.00000  Uiso   1.00
C1027  C     0.81034   0.02161   0.72074   0.00000  Uiso   1.00
C1028  C     0.80908   0.31211   0.72259   0.00000  Uiso   1.00
C1029  C     0.83085   0.29081   0.75491   0.00000  Uiso   1.00
C1030  C     0.98077   0.13132   0.73512   0.00000  Uiso   1.00
C1031  C     0.69581   0.13194   0.73465   0.00000  Uiso   1.00
C1032  C     0.68584   0.20219   0.76310   0.00000  Uiso   1.00
C1033  C     0.97146   0.20188   0.76306   0.00000  Uiso   1.00
C1034  C     0.83370   0.08675   0.74979   0.00000  Uiso   1.00
C1035  C     0.85906   0.16575   0.64877   0.00000  Uiso   1.00
C1036  C     0.93661   0.16359   0.50927   0.00000  Uiso   1.00
C1037  C     0.87491   0.16442   0.59182   0.00000  Uiso   1.00
C1038  C     0.74978   0.19082   0.93566   0.00000  Uiso   1.00
C1039  C     0.73847   0.20267   0.98791   0.00000  Uiso   1.00
C1040  C     0.77236   0.20031   0.51474   0.00000  Uiso   1.00
H1041  H     0.87069   0.03990   0.80842   0.00000  Uiso   1.00
H1042  H     0.79389   0.03833   0.69528   0.00000  Uiso   1.00
H1043  H     0.79226   0.29550   0.69785   0.00000  Uiso   1.00
H1044  H     0.71894   0.10506   0.72102   0.00000  Uiso   1.00
H1045  H     0.94978   0.23007   0.77366   0.00000  Uiso   1.00
H1046  H     0.72217   0.19048   0.91704   0.00000  Uiso   1.00
H1047  H     0.70321   0.21428   0.50731   0.00000  Uiso   1.00
H1048  H     0.89399   0.20153   0.86699   0.00000  Uiso   1.00
N1049  N     0.71426   0.16668   0.75002   0.00000  Uiso   1.00
N1050  N     0.95239   0.16665   0.75001   0.00000  Uiso   1.00
O1051  O     0.79512   0.22775   0.75001   0.00000  Uiso   1.00
O1052  O     0.87157   0.22774   0.75001   0.00000  Uiso   1.00
O1053  O     0.77613   0.16666   0.82681   0.00000  Uiso   1.00
O1054  O     0.85258   0.16665   0.82681   0.00000  Uiso   1.00
O1055  O     0.79510   0.10559   0.75000   0.00000  Uiso   1.00
O1056  O     0.87154   0.10558   0.75000   0.00000  Uiso   1.00
O1057  O     0.81409   0.16668   0.67319   0.00000  Uiso   1.00
O1058  O     0.89053   0.16667   0.67319   0.00000  Uiso   1.00
Zn1059 Zn    0.78229   0.16667   0.75000   0.00000  Uiso   1.00
Zn1060 Zn    0.88438   0.16666   0.75000   0.00000  Uiso   1.00
N1061  N     0.95694   0.17942   0.58889   0.00000  Uiso   1.00
H1062  H     0.97319   0.20730   0.57598   0.00000  Uiso   1.00
C1063  C     0.98761   0.14730   0.59996   0.00000  Uiso   1.00
H1064  H     0.68712   0.14390   0.56681   0.00000  Uiso   1.00
H1065  H     0.96937   0.11683   0.60872   0.00000  Uiso   1.00
H1066  H     0.99819   0.15721   0.63438   0.00000  Uiso   1.00
O1067  O     0.96266   0.09712   0.71601   0.00000  Uiso   1.00
C1068  C     0.97587   0.05881   0.73477   0.00000  Uiso   1.00
H1069  H     0.97319   0.06045   0.77714   0.00000  Uiso   1.00
H1070  H     0.67854   0.04852   0.71098   0.00000  Uiso   1.00
H1071  H     0.95146   0.03428   0.73005   0.00000  Uiso   1.00
N1072  N     0.70451   0.24047   0.77416   0.00000  Uiso   1.00
H1073  H     0.69586   0.26562   0.75430   0.00000  Uiso   1.00
C1074  C     0.69467   0.24958   0.82921   0.00000  Uiso   1.00
H1075  H     0.98942   0.25432   0.84789   0.00000  Uiso   1.00
H1076  H     0.71303   0.27858   0.83426   0.00000  Uiso   1.00
H1077  H     0.70780   0.22352   0.84863   0.00000  Uiso   1.00
O1078  O     0.96231   0.17660   0.89926   0.00000  Uiso   1.00
C1079  C     0.96981   0.13921   0.86932   0.00000  Uiso   1.00
H1080  H     0.95020   0.14015   0.84018   0.00000  Uiso   1.00
H1081  H     0.95842   0.11098   0.89369   0.00000  Uiso   1.00
H1082  H     0.67475   0.13533   0.84881   0.00000  Uiso   1.00
O1083  O     0.98343   0.15575   0.98206   0.00000  Uiso   1.00
C1084  C     0.99170   0.11176   0.97845   0.00000  Uiso   1.00
H1085  H     0.96153   0.09377   0.97334   0.00000  Uiso   1.00
H1086  H     0.99988   0.09951   0.51342   0.00000  Uiso   1.00
H1087  H     0.68959   0.10496   0.94420   0.00000  Uiso   1.00
O1088  O     0.79624   0.14746   0.58974   0.00000  Uiso   1.00
C1089  C     0.79571   0.10391   0.58101   0.00000  Uiso   1.00
H1090  H     0.75985   0.09248   0.60147   0.00000  Uiso   1.00
H1091  H     0.80324   0.09662   0.53862   0.00000  Uiso   1.00
H1092  H     0.82113   0.08676   0.59735   0.00000  Uiso   1.00
N1093  N     0.76045   0.21706   0.56655   0.00000  Uiso   1.00
H1094  H     0.72476   0.21772   0.58621   0.00000  Uiso   1.00
C1095  C     0.78259   0.25630   0.57130   0.00000  Uiso   1.00
H1096  H     0.77279   0.26576   0.61314   0.00000  Uiso   1.00
H1097  H     0.77043   0.28127   0.54907   0.00000  Uiso   1.00
H1098  H     0.82167   0.25300   0.55651   0.00000  Uiso   1.00
N1099  N     0.87070   0.28857   0.82380   0.00000  Uiso   1.00
H1100  H     0.84963   0.26451   0.84265   0.00000  Uiso   1.00
C1101  C     0.89491   0.30993   0.85571   0.00000  Uiso   1.00
H1102  H     0.87022   0.33203   0.88332   0.00000  Uiso   1.00
H1103  H     0.92576   0.32687   0.83053   0.00000  Uiso   1.00
H1104  H     0.90815   0.28650   0.87892   0.00000  Uiso   1.00
C1105  C     0.16582   0.57991   0.75178   0.00000  Uiso   1.00
C1106  C     0.15230   0.51891   0.98766   0.00000  Uiso   1.00
C1107  C     0.16575   0.51873   0.93268   0.00000  Uiso   1.00
C1108  C     0.18697   0.50733   0.51243   0.00000  Uiso   1.00
C1109  C     0.23566   0.50476   0.98321   0.00000  Uiso   1.00
C1110  C     0.24884   0.51185   0.92933   0.00000  Uiso   1.00
C1111  C     0.21436   0.52235   0.90590   0.00000  Uiso   1.00
C1112  C     0.17452   0.49495   0.56482   0.00000  Uiso   1.00
C1113  C     0.25657   0.50039   0.56366   0.00000  Uiso   1.00
C1114  C     0.13003   0.51570   0.90701   0.00000  Uiso   1.00
C1115  C     0.18601   0.64505   0.78766   0.00000  Uiso   1.00
C1116  C     0.14172   0.50410   0.85109   0.00000  Uiso   1.00
C1117  C     0.18791   0.35515   0.78435   0.00000  Uiso   1.00
C1118  C     0.16705   0.37595   0.75090   0.00000  Uiso   1.00
C1119  C     0.14368   0.35494   0.72074   0.00000  Uiso   1.00
C1120  C     0.14241   0.64544   0.72259   0.00000  Uiso   1.00
C1121  C     0.16418   0.62415   0.75491   0.00000  Uiso   1.00
C1122  C     0.31410   0.46466   0.73512   0.00000  Uiso   1.00
C1123  C     0.02914   0.46527   0.73465   0.00000  Uiso   1.00
C1124  C     0.01918   0.53553   0.76310   0.00000  Uiso   1.00
C1125  C     0.30479   0.53522   0.76306   0.00000  Uiso   1.00
C1126  C     0.16703   0.42008   0.74979   0.00000  Uiso   1.00
C1127  C     0.19239   0.49908   0.64877   0.00000  Uiso   1.00
C1128  C     0.26995   0.49692   0.50927   0.00000  Uiso   1.00
C1129  C     0.20825   0.49776   0.59182   0.00000  Uiso   1.00
C1130  C     0.08312   0.52416   0.93566   0.00000  Uiso   1.00
C1131  C     0.07180   0.53600   0.98791   0.00000  Uiso   1.00
C1132  C     0.10569   0.53364   0.51474   0.00000  Uiso   1.00
H1133  H     0.20403   0.37324   0.80842   0.00000  Uiso   1.00
H1134  H     0.12722   0.37166   0.69528   0.00000  Uiso   1.00
H1135  H     0.12560   0.62884   0.69785   0.00000  Uiso   1.00
H1136  H     0.05227   0.43840   0.72102   0.00000  Uiso   1.00
H1137  H     0.28311   0.56340   0.77366   0.00000  Uiso   1.00
H1138  H     0.05550   0.52381   0.91704   0.00000  Uiso   1.00
H1139  H     0.03655   0.54761   0.50731   0.00000  Uiso   1.00
H1140  H     0.22732   0.53486   0.86699   0.00000  Uiso   1.00
N1141  N     0.04760   0.50001   0.75002   0.00000  Uiso   1.00
N1142  N     0.28573   0.49998   0.75001   0.00000  Uiso   1.00
O1143  O     0.12846   0.56108   0.75001   0.00000  Uiso   1.00
O1144  O     0.20490   0.56107   0.75001   0.00000  Uiso   1.00
O1145  O     0.10947   0.50000   0.82681   0.00000  Uiso   1.00
O1146  O     0.18591   0.49999   0.82681   0.00000  Uiso   1.00
O1147  O     0.12843   0.43893   0.75000   0.00000  Uiso   1.00
O1148  O     0.20488   0.43892   0.75000   0.00000  Uiso   1.00
O1149  O     0.14742   0.50001   0.67319   0.00000  Uiso   1.00
O1150  O     0.22387   0.50000   0.67319   0.00000  Uiso   1.00
Zn1151 Zn    0.11562   0.50001   0.75000   0.00000  Uiso   1.00
Zn1152 Zn    0.21771   0.49999   0.75000   0.00000  Uiso   1.00
N1153  N     0.29027   0.51276   0.58889   0.00000  Uiso   1.00
H1154  H     0.30652   0.54063   0.57598   0.00000  Uiso   1.00
C1155  C     0.32094   0.48063   0.59996   0.00000  Uiso   1.00
H1156  H     0.02045   0.47724   0.56681   0.00000  Uiso   1.00
H1157  H     0.30271   0.45016   0.60872   0.00000  Uiso   1.00
H1158  H     0.33152   0.49054   0.63438   0.00000  Uiso   1.00
O1159  O     0.29600   0.43046   0.71601   0.00000  Uiso   1.00
C1160  C     0.30921   0.39214   0.73477   0.00000  Uiso   1.00
H1161  H     0.30653   0.39379   0.77714   0.00000  Uiso   1.00
H1162  H     0.01187   0.38185   0.71098   0.00000  Uiso   1.00
H1163  H     0.28480   0.36761   0.73005   0.00000  Uiso   1.00
N1164  N     0.03784   0.57380   0.77416   0.00000  Uiso   1.00
H1165  H     0.02919   0.59896   0.75430   0.00000  Uiso   1.00
C1166  C     0.02800   0.58291   0.82921   0.00000  Uiso   1.00
H1167  H     0.32276   0.58766   0.84789   0.00000  Uiso   1.00
H1168  H     0.04636   0.61191   0.83426   0.00000  Uiso   1.00
H1169  H     0.04113   0.55685   0.84863   0.00000  Uiso   1.00
O1170  O     0.29564   0.50993   0.89926   0.00000  Uiso   1.00
C1171  C     0.30314   0.47255   0.86932   0.00000  Uiso   1.00
H1172  H     0.28354   0.47348   0.84018   0.00000  Uiso   1.00
H1173  H     0.29175   0.44432   0.89369   0.00000  Uiso   1.00
H1174  H     0.00809   0.46866   0.84881   0.00000  Uiso   1.00
O1175  O     0.31677   0.48908   0.98206   0.00000  Uiso   1.00
C1176  C     0.32503   0.44510   0.97845   0.00000  Uiso   1.00
H1177  H     0.29486   0.42711   0.97334   0.00000  Uiso   1.00
H1178  H     0.33321   0.43284   0.51342   0.00000  Uiso   1.00
H1179  H     0.02293   0.43830   0.94420   0.00000  Uiso   1.00
O1180  O     0.12958   0.48080   0.58974   0.00000  Uiso   1.00
C1181  C     0.12904   0.43724   0.58101   0.00000  Uiso   1.00
H1182  H     0.09318   0.42581   0.60147   0.00000  Uiso   1.00
H1183  H     0.13657   0.42995   0.53862   0.00000  Uiso   1.00
H1184  H     0.15446   0.42009   0.59735   0.00000  Uiso   1.00
N1185  N     0.09378   0.55039   0.56655   0.00000  Uiso   1.00
H1186  H     0.05810   0.55105   0.58621   0.00000  Uiso   1.00
C1187  C     0.11592   0.58963   0.57130   0.00000  Uiso   1.00
H1188  H     0.10613   0.59910   0.61314   0.00000  Uiso   1.00
H1189  H     0.10376   0.61461   0.54907   0.00000  Uiso   1.00
H1190  H     0.15500   0.58633   0.55651   0.00000  Uiso   1.00
N1191  N     0.20404   0.62191   0.82380   0.00000  Uiso   1.00
H1192  H     0.18297   0.59784   0.84265   0.00000  Uiso   1.00
C1193  C     0.22824   0.64327   0.85571   0.00000  Uiso   1.00
H1194  H     0.20356   0.66536   0.88332   0.00000  Uiso   1.00
H1195  H     0.25909   0.66020   0.83053   0.00000  Uiso   1.00
H1196  H     0.24148   0.61984   0.87892   0.00000  Uiso   1.00
C1197  C     0.49915   0.57991   0.75178   0.00000  Uiso   1.00
C1198  C     0.48564   0.51891   0.98766   0.00000  Uiso   1.00
C1199  C     0.49908   0.51873   0.93268   0.00000  Uiso   1.00
C1200  C     0.52030   0.50733   0.51243   0.00000  Uiso   1.00
C1201  C     0.56899   0.50476   0.98321   0.00000  Uiso   1.00
C1202  C     0.58217   0.51185   0.92933   0.00000  Uiso   1.00
C1203  C     0.54769   0.52235   0.90590   0.00000  Uiso   1.00
C1204  C     0.50785   0.49495   0.56482   0.00000  Uiso   1.00
C1205  C     0.58990   0.50039   0.56366   0.00000  Uiso   1.00
C1206  C     0.46336   0.51570   0.90701   0.00000  Uiso   1.00
C1207  C     0.51934   0.64505   0.78766   0.00000  Uiso   1.00
C1208  C     0.47505   0.50410   0.85109   0.00000  Uiso   1.00
C1209  C     0.52125   0.35515   0.78435   0.00000  Uiso   1.00
C1210  C     0.50039   0.37595   0.75090   0.00000  Uiso   1.00
C1211  C     0.47701   0.35494   0.72074   0.00000  Uiso   1.00
C1212  C     0.47575   0.64544   0.72259   0.00000  Uiso   1.00
C1213  C     0.49751   0.62415   0.75491   0.00000  Uiso   1.00
C1214  C     0.64744   0.46466   0.73512   0.00000  Uiso   1.00
C1215  C     0.36248   0.46527   0.73465   0.00000  Uiso   1.00
C1216  C     0.35251   0.53553   0.76310   0.00000  Uiso   1.00
C1217  C     0.63813   0.53522   0.76306   0.00000  Uiso   1.00
C1218  C     0.50037   0.42008   0.74979   0.00000  Uiso   1.00
C1219  C     0.52573   0.49908   0.64877   0.00000  Uiso   1.00
C1220  C     0.60328   0.49692   0.50927   0.00000  Uiso   1.00
C1221  C     0.54158   0.49776   0.59182   0.00000  Uiso   1.00
C1222  C     0.41645   0.52416   0.93566   0.00000  Uiso   1.00
C1223  C     0.40514   0.53600   0.98791   0.00000  Uiso   1.00
C1224  C     0.43903   0.53364   0.51474   0.00000  Uiso   1.00
H1225  H     0.53736   0.37324   0.80842   0.00000  Uiso   1.00
H1226  H     0.46055   0.37166   0.69528   0.00000  Uiso   1.00
H1227  H     0.45893   0.62884   0.69785   0.00000  Uiso   1.00
H1228  H     0.38560   0.43840   0.72102   0.00000  Uiso   1.00
H1229  H     0.61645   0.56340   0.77366   0.00000  Uiso   1.00
H1230  H     0.38884   0.52381   0.91704   0.00000  Uiso   1.00
H1231  H     0.36988   0.54761   0.50731   0.00000  Uiso   1.00
H1232  H     0.56066   0.53486   0.86699   0.00000  Uiso   1.00
N1233  N     0.38093   0.50001   0.75002   0.00000  Uiso   1.00
N1234  N     0.61906   0.49998   0.75001   0.00000  Uiso   1.00
O1235  O     0.46179   0.56108   0.75001   0.00000  Uiso   1.00
O1236  O     0.53823   0.56107   0.75001   0.00000  Uiso   1.00
O1237  O     0.44280   0.50000   0.82681   0.00000  Uiso   1.00
O1238  O     0.51924   0.49999   0.82681   0.00000  Uiso   1.00
O1239  O     0.46177   0.43893   0.75000   0.00000  Uiso   1.00
O1240  O     0.53821   0.43892   0.75000   0.00000  Uiso   1.00
O1241  O     0.48076   0.50001   0.67319   0.00000  Uiso   1.00
O1242  O     0.55720   0.50000   0.67319   0.00000  Uiso   1.00
Zn1243 Zn    0.44896   0.50001   0.75000   0.00000  Uiso   1.00
Zn1244 Zn    0.55104   0.49999   0.75000   0.00000  Uiso   1.00
N1245  N     0.62361   0.51276   0.58889   0.00000  Uiso   1.00
H1246  H     0.63986   0.54063   0.57598   0.00000  Uiso   1.00
C1247  C     0.65427   0.48063   0.59996   0.00000  Uiso   1.00
H1248  H     0.35379   0.47724   0.56681   0.00000  Uiso   1.00
H1249  H     0.63604   0.45016   0.60872   0.00000  Uiso   1.00
H1250  H     0.66485   0.49054   0.63438   0.00000  Uiso   1.00
O1251  O     0.62933   0.43046   0.71601   0.00000  Uiso   1.00
C1252  C     0.64254   0.39214   0.73477   0.00000  Uiso   1.00
H1253  H     0.63986   0.39379   0.77714   0.00000  Uiso   1.00
H1254  H     0.34521   0.38185   0.71098   0.00000  Uiso   1.00
H1255  H     0.61813   0.36761   0.73005   0.00000  Uiso   1.00
N1256  N     0.37118   0.57380   0.77416   0.00000  Uiso   1.00
H1257  H     0.36253   0.59896   0.75430   0.00000  Uiso   1.00
C1258  C     0.36133   0.58291   0.82921   0.00000  Uiso   1.00
H1259  H     0.65609   0.58766   0.84789   0.00000  Uiso   1.00
H1260  H     0.37970   0.61191   0.83426   0.00000  Uiso   1.00
H1261  H     0.37447   0.55685   0.84863   0.00000  Uiso   1.00
O1262  O     0.62898   0.50993   0.89926   0.00000  Uiso   1.00
C1263  C     0.63648   0.47255   0.86932   0.00000  Uiso   1.00
H1264  H     0.61687   0.47348   0.84018   0.00000  Uiso   1.00
H1265  H     0.62509   0.44432   0.89369   0.00000  Uiso   1.00
H1266  H     0.34142   0.46866   0.84881   0.00000  Uiso   1.00
O1267  O     0.65010   0.48908   0.98206   0.00000  Uiso   1.00
C1268  C     0.65837   0.44510   0.97845   0.00000  Uiso   1.00
H1269  H     0.62819   0.42711   0.97334   0.00000  Uiso   1.00
H1270  H     0.66655   0.43284   0.51342   0.00000  Uiso   1.00
H1271  H     0.35626   0.43830   0.94420   0.00000  Uiso   1.00
O1272  O     0.46291   0.48080   0.58974   0.00000  Uiso   1.00
C1273  C     0.46237   0.43724   0.58101   0.00000  Uiso   1.00
H1274  H     0.42652   0.42581   0.60147   0.00000  Uiso   1.00
H1275  H     0.46991   0.42995   0.53862   0.00000  Uiso   1.00
H1276  H     0.48780   0.42009   0.59735   0.00000  Uiso   1.00
N1277  N     0.42711   0.55039   0.56655   0.00000  Uiso   1.00
H1278  H     0.39143   0.55105   0.58621   0.00000  Uiso   1.00
C1279  C     0.44926   0.58963   0.57130   0.00000  Uiso   1.00
H1280  H     0.43946   0.59910   0.61314   0.00000  Uiso   1.00
H1281  H     0.43710   0.61461   0.54907   0.00000  Uiso   1.00
H1282  H     0.48833   0.58633   0.55651   0.00000  Uiso   1.00
N1283  N     0.53737   0.62191   0.82380   0.00000  Uiso   1.00
H1284  H     0.51630   0.59784   0.84265   0.00000  Uiso   1.00
C1285  C     0.56157   0.64327   0.85571   0.00000  Uiso   1.00
H1286  H     0.53689   0.66536   0.88332   0.00000  Uiso   1.00
H1287  H     0.59242   0.66020   0.83053   0.00000  Uiso   1.00
H1288  H     0.57482   0.61984   0.87892   0.00000  Uiso   1.00
C1289  C     0.83249   0.57991   0.75178   0.00000  Uiso   1.00
C1290  C     0.81897   0.51891   0.98766   0.00000  Uiso   1.00
C1291  C     0.83242   0.51873   0.93268   0.00000  Uiso   1.00
C1292  C     0.85363   0.50733   0.51243   0.00000  Uiso   1.00
C1293  C     0.90232   0.50476   0.98321   0.00000  Uiso   1.00
C1294  C     0.91551   0.51185   0.92933   0.00000  Uiso   1.00
C1295  C     0.88103   0.52235   0.90590   0.00000  Uiso   1.00
C1296  C     0.84118   0.49495   0.56482   0.00000  Uiso   1.00
C1297  C     0.92323   0.50039   0.56366   0.00000  Uiso   1.00
C1298  C     0.79670   0.51570   0.90701   0.00000  Uiso   1.00
C1299  C     0.85268   0.64505   0.78766   0.00000  Uiso   1.00
C1300  C     0.80838   0.50410   0.85109   0.00000  Uiso   1.00
C1301  C     0.85458   0.35515   0.78435   0.00000  Uiso   1.00
C1302  C     0.83372   0.37595   0.75090   0.00000  Uiso   1.00
C1303  C     0.81034   0.35494   0.72074   0.00000  Uiso   1.00
C1304  C     0.80908   0.64544   0.72259   0.00000  Uiso   1.00
C1305  C     0.83085   0.62415   0.75491   0.00000  Uiso   1.00
C1306  C     0.98077   0.46466   0.73512   0.00000  Uiso   1.00
C1307  C     0.69581   0.46527   0.73465   0.00000  Uiso   1.00
C1308  C     0.68584   0.53553   0.76310   0.00000  Uiso   1.00
C1309  C     0.97146   0.53522   0.76306   0.00000  Uiso   1.00
C1310  C     0.83370   0.42008   0.74979   0.00000  Uiso   1.00
C1311  C     0.85906   0.49908   0.64877   0.00000  Uiso   1.00
C1312  C     0.93661   0.49692   0.50927   0.00000  Uiso   1.00
C1313  C     0.87491   0.49776   0.59182   0.00000  Uiso   1.00
C1314  C     0.74978   0.52416   0.93566   0.00000  Uiso   1.00
C1315  C     0.73847   0.53600   0.98791   0.00000  Uiso   1.00
C1316  C     0.77236   0.53364   0.51474   0.00000  Uiso   1.00
H1317  H     0.87069   0.37324   0.80842   0.00000  Uiso   1.00
H1318  H     0.79389   0.37166   0.69528   0.00000  Uiso   1.00
H1319  H     0.79226   0.62884   0.69785   0.00000  Uiso   1.00
H1320  H     0.71894   0.43840   0.72102   0.00000  Uiso   1.00
H1321  H     0.94978   0.56340   0.77366   0.00000  Uiso   1.00
H1322  H     0.72217   0.52381   0.91704   0.00000  Uiso   1.00
H1323  H     0.70321   0.54761   0.50731   0.00000  Uiso   1.00
H1324  H     0.89399   0.53486   0.86699   0.00000  Uiso   1.00
N1325  N     0.71426   0.50001   0.75002   0.00000  Uiso   1.00
N1326  N     0.95239   0.49998   0.75001   0.00000  Uiso   1.00
O1327  O     0.79512   0.56108   0.75001   0.00000  Uiso   1.00
O1328  O     0.87157   0.56107   0.75001   0.00000  Uiso   1.00
O1329  O     0.77613   0.50000   0.82681   0.00000  Uiso   1.00
O1330  O     0.85258   0.49999   0.82681   0.00000  Uiso   1.00
O1331  O     0.79510   0.43893   0.75000   0.00000  Uiso   1.00
O1332  O     0.87154   0.43892   0.75000   0.00000  Uiso   1.00
O1333  O     0.81409   0.50001   0.67319   0.00000  Uiso   1.00
O1334  O     0.89053   0.50000   0.67319   0.00000  Uiso   1.00
Zn1335 Zn    0.78229   0.50001   0.75000   0.00000  Uiso   1.00
Zn1336 Zn    0.88438   0.49999   0.75000   0.00000  Uiso   1.00
N1337  N     0.95694   0.51276   0.58889   0.00000  Uiso   1.00
H1338  H     0.97319   0.54063   0.57598   0.00000  Uiso   1.00
C1339  C     0.98761   0.48063   0.59996   0.00000  Uiso   1.00
H1340  H     0.68712   0.47724   0.56681   0.00000  Uiso   1.00
H1341  H     0.96937   0.45016   0.60872   0.00000  Uiso   1.00
H1342  H     0.99819   0.49054   0.63438   0.00000  Uiso   1.00
O1343  O     0.96266   0.43046   0.71601   0.00000  Uiso   1.00
C1344  C     0.97587   0.39214   0.73477   0.00000  Uiso   1.00
H1345  H     0.97319   0.39379   0.77714   0.00000  Uiso   1.00
H1346  H     0.67854   0.38185   0.71098   0.00000  Uiso   1.00
H1347  H     0.95146   0.36761   0.73005   0.00000  Uiso   1.00
N1348  N     0.70451   0.57380   0.77416   0.00000  Uiso   1.00
H1349  H     0.69586   0.59896   0.75430   0.00000  Uiso   1.00
C1350  C     0.69467   0.58291   0.82921   0.00000  Uiso   1.00
H1351  H     0.98942   0.58766   0.84789   0.00000  Uiso   1.00
H1352  H     0.71303   0.61191   0.83426   0.00000  Uiso   1.00
H1353  H     0.70780   0.55685   0.84863   0.00000  Uiso   1.00
O1354  O     0.96231   0.50993   0.89926   0.00000  Uiso   1.00
C1355  C     0.96981   0.47255   0.86932   0.00000  Uiso   1.00
H1356  H     0.95020   0.47348   0.84018   0.00000  Uiso   1.00
H1357  H     0.95842   0.44432   0.89369   0.00000  Uiso   1.00
H1358  H     0.67475   0.46866   0.84881   0.00000  Uiso   1.00
O1359  O     0.98343   0.48908   0.98206   0.00000  Uiso   1.00
C1360  C     0.99170   0.44510   0.97845   0.00000  Uiso   1.00
H1361  H     0.96153   0.42711   0.97334   0.00000  Uiso   1.00
H1362  H     0.99988   0.43284   0.51342   0.00000  Uiso   1.00
H1363  H     0.68959   0.43830   0.94420   0.00000  Uiso   1.00
O1364  O     0.79624   0.48080   0.58974   0.00000  Uiso   1.00
C1365  C     0.79571   0.43724   0.58101   0.00000  Uiso   1.00
H1366  H     0.75985   0.42581   0.60147   0.00000  Uiso   1.00
H1367  H     0.80324   0.42995   0.53862   0.00000  Uiso   1.00
H1368  H     0.82113   0.42009   0.59735   0.00000  Uiso   1.00
N1369  N     0.76045   0.55039   0.56655   0.00000  Uiso   1.00
H1370  H     0.72476   0.55105   0.58621   0.00000  Uiso   1.00
C1371  C     0.78259   0.58963   0.57130   0.00000  Uiso   1.00
H1372  H     0.77279   0.59910   0.61314   0.00000  Uiso   1.00
H1373  H     0.77043   0.61461   0.54907   0.00000  Uiso   1.00
H1374  H     0.82167   0.58633   0.55651   0.00000  Uiso   1.00
N1375  N     0.87070   0.62191   0.82380   0.00000  Uiso   1.00
H1376  H     0.84963   0.59784   0.84265   0.00000  Uiso   1.00
C1377  C     0.89491   0.64327   0.85571   0.00000  Uiso   1.00
H1378  H     0.87022   0.66536   0.88332   0.00000  Uiso   1.00
H1379  H     0.92576   0.66020   0.83053   0.00000  Uiso   1.00
H1380  H     0.90815   0.61984   0.87892   0.00000  Uiso   1.00
C1381  C     0.16582   0.91324   0.75178   0.00000  Uiso   1.00
C1382  C     0.15230   0.85224   0.98766   0.00000  Uiso   1.00
C1383  C     0.16575   0.85206   0.93268   0.00000  Uiso   1.00
C1384  C     0.18697   0.84066   0.51243   0.00000  Uiso   1.00
C1385  C     0.23566   0.83810   0.98321   0.00000  Uiso   1.00
C1386  C     0.24884   0.84518   0.92933   0.00000  Uiso   1.00
C1387  C     0.21436   0.85569   0.90590   0.00000  Uiso   1.00
C1388  C     0.17452   0.82828   0.56482   0.00000  Uiso   1.00
C1389  C     0.25657   0.83372   0.56366   0.00000  Uiso   1.00
C1390  C     0.13003   0.84904   0.90701   0.00000  Uiso   1.00
C1391  C     0.18601   0.97839   0.78766   0.00000  Uiso   1.00
C1392  C     0.14172   0.83743   0.85109   0.00000  Uiso   1.00
C1393  C     0.18791   0.68849   0.78435   0.00000  Uiso   1.00
C1394  C     0.16705   0.70928   0.75090   0.00000  Uiso   1.00
C1395  C     0.14368   0.68827   0.72074   0.00000  Uiso   1.00
C1396  C     0.14241   0.97877   0.72259   0.00000  Uiso   1.00
C1397  C     0.16418   0.95748   0.75491   0.00000  Uiso   1.00
C1398  C     0.31410   0.79799   0.73512   0.00000  Uiso   1.00
C1399  C     0.02914   0.79860   0.73465   0.00000  Uiso   1.00
C1400  C     0.01918   0.86886   0.76310   0.00000  Uiso   1.00
C1401  C     0.30479   0.86855   0.76306   0.00000  Uiso   1.00
C1402  C     0.16703   0.75341   0.74979   0.00000  Uiso   1.00
C1403  C     0.19239   0.83242   0.64877   0.00000  Uiso   1.00
C1404  C     0.26995   0.83026   0.50927   0.00000  Uiso   1.00
C1405  C     0.20825   0.83109   0.59182   0.00000  Uiso   1.00
C1406  C     0.08312   0.85749   0.93566   0.00000  Uiso   1.00
C1407  C     0.07180   0.86933   0.98791   0.00000  Uiso   1.00
C1408  C     0.10569   0.86697   0.51474   0.00000  Uiso   1.00
H1409  H     0.20403   0.70657   0.80842   0.00000  Uiso   1.00
H1410  H     0.12722   0.70500   0.69528   0.00000  Uiso   1.00
H1411  H     0.12560   0.96217   0.69785   0.00000  Uiso   1.00
H1412  H     0.05227   0.77173   0.72102   0.00000  Uiso   1.00
H1413  H     0.28311   0.89673   0.77366   0.00000  Uiso   1.00
H1414  H     0.05550   0.85714   0.91704   0.00000  Uiso   1.00
H1415  H     0.03655   0.88094   0.50731   0.00000  Uiso   1.00
H1416  H     0.22732   0.86819   0.86699   0.00000  Uiso   1.00
N1417  N     0.04760   0.83334   0.75002   0.00000  Uiso   1.00
N1418  N     0.28573   0.83331   0.75001   0.00000  Uiso   1.00
O1419  O     0.12846   0.89442   0.75001   0.00000  Uiso   1.00
O1420  O     0.20490   0.89441   0.75001   0.00000  Uiso   1.00
O1421  O     0.10947   0.83333   0.82681   0.00000  Uiso   1.00
O1422  O     0.18591   0.83332   0.82681   0.00000  Uiso   1.00
O1423  O     0.12843   0.77226   0.75000   0.00000  Uiso   1.00
O1424  O     0.20488   0.77225   0.75000   0.00000  Uiso   1.00
O1425  O     0.14742   0.83335   0.67319   0.00000  Uiso   1.00
O1426  O     0.22387   0.83334   0.67319   0.00000  Uiso   1.00
Zn1427 Zn    0.11562   0.83334   0.75000   0.00000  Uiso   1.00
Zn1428 Zn    0.21771   0.83333   0.75000   0.00000  Uiso   1.00
N1429  N     0.29027   0.84609   0.58889   0.00000  Uiso   1.00
H1430  H     0.30652   0.87397   0.57598   0.00000  Uiso   1.00
C1431  C     0.32094   0.81397   0.59996   0.00000  Uiso   1.00
H1432  H     0.02045   0.81057   0.56681   0.00000  Uiso   1.00
H1433  H     0.30271   0.78349   0.60872   0.00000  Uiso   1.00
H1434  H     0.33152   0.82387   0.63438   0.00000  Uiso   1.00
O1435  O     0.29600   0.76379   0.71601   0.00000  Uiso   1.00
C1436  C     0.30921   0.72547   0.73477   0.00000  Uiso   1.00
H1437  H     0.30653   0.72712   0.77714   0.00000  Uiso   1.00
H1438  H     0.01187   0.71518   0.71098   0.00000  Uiso   1.00
H1439  H     0.28480   0.70095   0.73005   0.00000  Uiso   1.00
N1440  N     0.03784   0.90713   0.77416   0.00000  Uiso   1.00
H1441  H     0.02919   0.93229   0.75430   0.00000  Uiso   1.00
C1442  C     0.02800   0.91625   0.82921   0.00000  Uiso   1.00
H1443  H     0.32276   0.92099   0.84789   0.00000  Uiso   1.00
H1444  H     0.04636   0.94524   0.83426   0.00000  Uiso   1.00
H1445  H     0.04113   0.89018   0.84863   0.00000  Uiso   1.00
O1446  O     0.29564   0.84326   0.89926   0.00000  Uiso   1.00
C1447  C     0.30314   0.80588   0.86932   0.00000  Uiso   1.00
H1448  H     0.28354   0.80681   0.84018   0.00000  Uiso   1.00
H1449  H     0.29175   0.77765   0.89369   0.00000  Uiso   1.00
H1450  H     0.00809   0.80199   0.84881   0.00000  Uiso   1.00
O1451  O     0.31677   0.82241   0.98206   0.00000  Uiso   1.00
C1452  C     0.32503   0.77843   0.97845   0.00000  Uiso   1.00
H1453  H     0.29486   0.76044   0.97334   0.00000  Uiso   1.00
H1454  H     0.33321   0.76617   0.51342   0.00000  Uiso   1.00
H1455  H     0.02293   0.77163   0.94420   0.00000  Uiso   1.00
O1456  O     0.12958   0.81413   0.58974   0.00000  Uiso   1.00
C1457  C     0.12904   0.77058   0.58101   0.00000  Uiso   1.00
H1458  H     0.09318   0.75915   0.60147   0.00000  Uiso   1.00
H1459  H     0.13657   0.76329   0.53862   0.00000  Uiso   1.00
H1460  H     0.15446   0.75342   0.59735   0.00000  Uiso   1.00
N1461  N     0.09378   0.88372   0.56655   0.00000  Uiso   1.00
H1462  H     0.05810   0.88439   0.58621   0.00000  Uiso   1.00
C1463  C     0.11592   0.92297   0.57130   0.00000  Uiso   1.00
H1464  H     0.10613   0.93243   0.61314   0.00000  Uiso   1.00
H1465  H     0.10376   0.94794   0.54907   0.00000  Uiso   1.00
H1466  H     0.15500   0.91967   0.55651   0.00000  Uiso   1.00
N1467  N     0.20404   0.95524   0.82380   0.00000  Uiso   1.00
H1468  H     0.18297   0.93117   0.84265   0.00000  Uiso   1.00
C1469  C     0.22824   0.97660   0.85571   0.00000  Uiso   1.00
H1470  H     0.20356   0.99870   0.88332   0.00000  Uiso   1.00
H1471  H     0.25909   0.99353   0.83053   0.00000  Uiso   1.00
H1472  H     0.24148   0.95317   0.87892   0.00000  Uiso   1.00
C1473  C     0.49915   0.91324   0.75178   0.00000  Uiso   1.00
C1474  C     0.48564   0.85224   0.98766   0.00000  Uiso   1.00
C1475  C     0.49908   0.85206   0.93268   0.00000  Uiso   1.00
C1476  C     0.52030   0.84066   0.51243   0.00000  Uiso   1.00
C1477  C     0.56899   0.83810   0.98321   0.00000  Uiso   1.00
C1478  C     0.58217   0.84518   0.92933   0.00000  Uiso   1.00
C1479  C     0.54769   0.85569   0.90590   0.00000  Uiso   1.00
C1480  C     0.50785   0.82828   0.56482   0.00000  Uiso   1.00
C1481  C     0.58990   0.83372   0.56366   0.00000  Uiso   1.00
C1482  C     0.46336   0.84904   0.90701   0.00000  Uiso   1.00
C1483  C     0.51934   0.97839   0.78766   0.00000  Uiso   1.00
C1484  C     0.47505   0.83743   0.85109   0.00000  Uiso   1.00
C1485  C     0.52125   0.68849   0.78435   0.00000  Uiso   1.00
C1486  C     0.50039   0.70928   0.75090   0.00000  Uiso   1.00
C1487  C     0.47701   0.68827   0.72074   0.00000  Uiso   1.00
C1488  C     0.47575   0.97877   0.72259   0.00000  Uiso   1.00
C1489  C     0.49751   0.95748   0.75491   0.00000  Uiso   1.00
C1490  C     0.64744   0.79799   0.73512   0.00000  Uiso   1.00
C1491  C     0.36248   0.79860   0.73465   0.00000  Uiso   1.00
C1492  C     0.35251   0.86886   0.76310   0.00000  Uiso   1.00
C1493  C     0.63813   0.86855   0.76306   0.00000  Uiso   1.00
C1494  C     0.50037   0.75341   0.74979   0.00000  Uiso   1.00
C1495  C     0.52573   0.83242   0.64877   0.00000  Uiso   1.00
C1496  C     0.60328   0.83026   0.50927   0.00000  Uiso   1.00
C1497  C     0.54158   0.83109   0.59182   0.00000  Uiso   1.00
C1498  C     0.41645   0.85749   0.93566   0.00000  Uiso   1.00
C1499  C     0.40514   0.86933   0.98791   0.00000  Uiso   1.00
C1500  C     0.43903   0.86697   0.51474   0.00000  Uiso   1.00
H1501  H     0.53736   0.70657   0.80842   0.00000  Uiso   1.00
H1502  H     0.46055   0.70500   0.69528   0.00000  Uiso   1.00
H1503  H     0.45893   0.96217   0.69785   0.00000  Uiso   1.00
H1504  H     0.38560   0.77173   0.72102   0.00000  Uiso   1.00
H1505  H     0.61645   0.89673   0.77366   0.00000  Uiso   1.00
H1506  H     0.38884   0.85714   0.91704   0.00000  Uiso   1.00
H1507  H     0.36988   0.88094   0.50731   0.00000  Uiso   1.00
H1508  H     0.56066   0.86819   0.86699   0.00000  Uiso   1.00
N1509  N     0.38093   0.83334   0.75002   0.00000  Uiso   1.00
N1510  N     0.61906   0.83331   0.75001   0.00000  Uiso   1.00
O1511  O     0.46179   0.89442   0.75001   0.00000  Uiso   1.00
O1512  O     0.53823   0.89441   0.75001   0.00000  Uiso   1.00
O1513  O     0.44280   0.83333   0.82681   0.00000  Uiso   1.00
O1514  O     0.51924   0.83332   0.82681   0.00000  Uiso   1.00
O1515  O     0.46177   0.77226   0.75000   0.00000  Uiso   1.00
O1516  O     0.53821   0.77225   0.75000   0.00000  Uiso   1.00
O1517  O     0.48076   0.83335   0.67319   0.00000  Uiso   1.00
O1518  O     0.55720   0.83334   0.67319   0.00000  Uiso   1.00
Zn1519 Zn    0.44896   0.83334   0.75000   0.00000  Uiso   1.00
Zn1520 Zn    0.55104   0.83333   0.75000   0.00000  Uiso   1.00
N1521  N     0.62361   0.84609   0.58889   0.00000  Uiso   1.00
H1522  H     0.63986   0.87397   0.57598   0.00000  Uiso   1.00
C1523  C     0.65427   0.81397   0.59996   0.00000  Uiso   1.00
H1524  H     0.35379   0.81057   0.56681   0.00000  Uiso   1.00
H1525  H     0.63604   0.78349   0.60872   0.00000  Uiso   1.00
H1526  H     0.66485   0.82387   0.63438   0.00000  Uiso   1.00
O1527  O     0.62933   0.76379   0.71601   0.00000  Uiso   1.00
C1528  C     0.64254   0.72547   0.73477   0.00000  Uiso   1.00
H1529  H     0.63986   0.72712   0.77714   0.00000  Uiso   1.00
H1530  H     0.34521   0.71518   0.71098   0.00000  Uiso   1.00
H1531  H     0.61813   0.70095   0.73005   0.00000  Uiso   1.00
N1532  N     0.37118   0.90713   0.77416   0.00000  Uiso   1.00
H1533  H     0.36253   0.93229   0.75430   0.00000  Uiso   1.00
C1534  C     0.36133   0.91625   0.82921   0.00000  Uiso   1.00
H1535  H     0.65609   0.92099   0.84789   0.00000  Uiso   1.00
H1536  H     0.37970   0.94524   0.83426   0.00000  Uiso   1.00
H1537  H     0.37447   0.89018   0.84863   0.00000  Uiso   1.00
O1538  O     0.62898   0.84326   0.89926   0.00000  Uiso   1.00
C1539  C     0.63648   0.80588   0.86932   0.00000  Uiso   1.00
H1540  H     0.61687   0.80681   0.84018   0.00000  Uiso   1.00
H1541  H     0.62509   0.77765   0.89369   0.00000  Uiso   1.00
H1542  H     0.34142   0.80199   0.84881   0.00000  Uiso   1.00
O1543  O     0.65010   0.82241   0.98206   0.00000  Uiso   1.00
C1544  C     0.65837   0.77843   0.97845   0.00000  Uiso   1.00
H1545  H     0.62819   0.76044   0.97334   0.00000  Uiso   1.00
H1546  H     0.66655   0.76617   0.51342   0.00000  Uiso   1.00
H1547  H     0.35626   0.77163   0.94420   0.00000  Uiso   1.00
O1548  O     0.46291   0.81413   0.58974   0.00000  Uiso   1.00
C1549  C     0.46237   0.77058   0.58101   0.00000  Uiso   1.00
H1550  H     0.42652   0.75915   0.60147   0.00000  Uiso   1.00
H1551  H     0.46991   0.76329   0.53862   0.00000  Uiso   1.00
H1552  H     0.48780   0.75342   0.59735   0.00000  Uiso   1.00
N1553  N     0.42711   0.88372   0.56655   0.00000  Uiso   1.00
H1554  H     0.39143   0.88439   0.58621   0.00000  Uiso   1.00
C1555  C     0.44926   0.92297   0.57130   0.00000  Uiso   1.00
H1556  H     0.43946   0.93243   0.61314   0.00000  Uiso   1.00
H1557  H     0.43710   0.94794   0.54907   0.00000  Uiso   1.00
H1558  H     0.48833   0.91967   0.55651   0.00000  Uiso   1.00
N1559  N     0.53737   0.95524   0.82380   0.00000  Uiso   1.00
H1560  H     0.51630   0.93117   0.84265   0.00000  Uiso   1.00
C1561  C     0.56157   0.97660   0.85571   0.00000  Uiso   1.00
H1562  H     0.53689   0.99870   0.88332   0.00000  Uiso   1.00
H1563  H     0.59242   0.99353   0.83053   0.00000  Uiso   1.00
H1564  H     0.57482   0.95317   0.87892   0.00000  Uiso   1.00
C1565  C     0.83249   0.91324   0.75178   0.00000  Uiso   1.00
C1566  C     0.81897   0.85224   0.98766   0.00000  Uiso   1.00
C1567  C     0.83242   0.85206   0.93268   0.00000  Uiso   1.00
C1568  C     0.85363   0.84066   0.51243   0.00000  Uiso   1.00
C1569  C     0.90232   0.83810   0.98321   0.00000  Uiso   1.00
C1570  C     0.91551   0.84518   0.92933   0.00000  Uiso   1.00
C1571  C     0.88103   0.85569   0.90590   0.00000  Uiso   1.00
C1572  C     0.84118   0.82828   0.56482   0.00000  Uiso   1.00
C1573  C     0.92323   0.83372   0.56366   0.00000  Uiso   1.00
C1574  C     0.79670   0.84904   0.90701   0.00000  Uiso   1.00
C1575  C     0.85268   0.97839   0.78766   0.00000  Uiso   1.00
C1576  C     0.80838   0.83743   0.85109   0.00000  Uiso   1.00
C1577  C     0.85458   0.68849   0.78435   0.00000  Uiso   1.00
C1578  C     0.83372   0.70928   0.75090   0.00000  Uiso   1.00
C1579  C     0.81034   0.68827   0.72074   0.00000  Uiso   1.00
C1580  C     0.80908   0.97877   0.72259   0.00000  Uiso   1.00
C1581  C     0.83085   0.95748   0.75491   0.00000  Uiso   1.00
C1582  C     0.98077   0.79799   0.73512   0.00000  Uiso   1.00
C1583  C     0.69581   0.79860   0.73465   0.00000  Uiso   1.00
C1584  C     0.68584   0.86886   0.76310   0.00000  Uiso   1.00
C1585  C     0.97146   0.86855   0.76306   0.00000  Uiso   1.00
C1586  C     0.83370   0.75341   0.74979   0.00000  Uiso   1.00
C1587  C     0.85906   0.83242   0.64877   0.00000  Uiso   1.00
C1588  C     0.93661   0.83026   0.50927   0.00000  Uiso   1.00
C1589  C     0.87491   0.83109   0.59182   0.00000  Uiso   1.00
C1590  C     0.74978   0.85749   0.93566   0.00000  Uiso   1.00
C1591  C     0.73847   0.86933   0.98791   0.00000  Uiso   1.00
C1592  C     0.77236   0.86697   0.51474   0.00000  Uiso   1.00
H1593  H     0.87069   0.70657   0.80842   0.00000  Uiso   1.00
H1594  H     0.79389   0.70500   0.69528   0.00000  Uiso   1.00
H1595  H     0.79226   0.96217   0.69785   0.00000  Uiso   1.00
H1596  H     0.71894   0.77173   0.72102   0.00000  Uiso   1.00
H1597  H     0.94978   0.89673   0.77366   0.00000  Uiso   1.00
H1598  H     0.72217   0.85714   0.91704   0.00000  Uiso   1.00
H1599  H     0.70321   0.88094   0.50731   0.00000  Uiso   1.00
H1600  H     0.89399   0.86819   0.86699   0.00000  Uiso   1.00
N1601  N     0.71426   0.83334   0.75002   0.00000  Uiso   1.00
N1602  N     0.95239   0.83331   0.75001   0.00000  Uiso   1.00
O1603  O     0.79512   0.89442   0.75001   0.00000  Uiso   1.00
O1604  O     0.87157   0.89441   0.75001   0.00000  Uiso   1.00
O1605  O     0.77613   0.83333   0.82681   0.00000  Uiso   1.00
O1606  O     0.85258   0.83332   0.82681   0.00000  Uiso   1.00
O1607  O     0.79510   0.77226   0.75000   0.00000  Uiso   1.00
O1608  O     0.87154   0.77225   0.75000   0.00000  Uiso   1.00
O1609  O     0.81409   0.83335   0.67319   0.00000  Uiso   1.00
O1610  O     0.89053   0.83334   0.67319   0.00000  Uiso   1.00
Zn1611 Zn    0.78229   0.83334   0.75000   0.00000  Uiso   1.00
Zn1612 Zn    0.88438   0.83333   0.75000   0.00000  Uiso   1.00
N1613  N     0.95694   0.84609   0.58889   0.00000  Uiso   1.00
H1614  H     0.97319   0.87397   0.57598   0.00000  Uiso   1.00
C1615  C     0.98761   0.81397   0.59996   0.00000  Uiso   1.00
H1616  H     0.68712   0.81057   0.56681   0.00000  Uiso   1.00
H1617  H     0.96937   0.78349   0.60872   0.00000  Uiso   1.00
H1618  H     0.99819   0.82387   0.63438   0.00000  Uiso   1.00
O1619  O     0.96266   0.76379   0.71601   0.00000  Uiso   1.00
C1620  C     0.97587   0.72547   0.73477   0.00000  Uiso   1.00
H1621  H     0.97319   0.72712   0.77714   0.00000  Uiso   1.00
H1622  H     0.67854   0.71518   0.71098   0.00000  Uiso   1.00
H1623  H     0.95146   0.70095   0.73005   0.00000  Uiso   1.00
N1624  N     0.70451   0.90713   0.77416   0.00000  Uiso   1.00
H1625  H     0.69586   0.93229   0.75430   0.00000  Uiso   1.00
C1626  C     0.69467   0.91625   0.82921   0.00000  Uiso   1.00
H1627  H     0.98942   0.92099   0.84789   0.00000  Uiso   1.00
H1628  H     0.71303   0.94524   0.83426   0.00000  Uiso   1.00
H1629  H     0.70780   0.89018   0.84863   0.00000  Uiso   1.00
O1630  O     0.96231   0.84326   0.89926   0.00000  Uiso   1.00
C1631  C     0.96981   0.80588   0.86932   0.00000  Uiso   1.00
H1632  H     0.95020   0.80681   0.84018   0.00000  Uiso   1.00
H1633  H     0.95842   0.77765   0.89369   0.00000  Uiso   1.00
H1634  H     0.67475   0.80199   0.84881   0.00000  Uiso   1.00
O1635  O     0.98343   0.82241   0.98206   0.00000  Uiso   1.00
C1636  C     0.99170   0.77843   0.97845   0.00000  Uiso   1.00
H1637  H     0.96153   0.76044   0.97334   0.00000  Uiso   1.00
H1638  H     0.99988   0.76617   0.51342   0.00000  Uiso   1.00
H1639  H     0.68959   0.77163   0.94420   0.00000  Uiso   1.00
O1640  O     0.79624   0.81413   0.58974   0.00000  Uiso   1.00
C1641  C     0.79571   0.77058   0.58101   0.00000  Uiso   1.00
H1642  H     0.75985   0.75915   0.60147   0.00000  Uiso   1.00
H1643  H     0.80324   0.76329   0.53862   0.00000  Uiso   1.00
H1644  H     0.82113   0.75342   0.59735   0.00000  Uiso   1.00
N1645  N     0.76045   0.88372   0.56655   0.00000  Uiso   1.00
H1646  H     0.72476   0.88439   0.58621   0.00000  Uiso   1.00
C1647  C     0.78259   0.92297   0.57130   0.00000  Uiso   1.00
H1648  H     0.77279   0.93243   0.61314   0.00000  Uiso   1.00
H1649  H     0.77043   0.94794   0.54907   0.00000  Uiso   1.00
H1650  H     0.82167   0.91967   0.55651   0.00000  Uiso   1.00
N1651  N     0.87070   0.95524   0.82380   0.00000  Uiso   1.00
H1652  H     0.84963   0.93117   0.84265   0.00000  Uiso   1.00
C1653  C     0.89491   0.97660   0.85571   0.00000  Uiso   1.00
H1654  H     0.87022   0.99870   0.88332   0.00000  Uiso   1.00
H1655  H     0.92576   0.99353   0.83053   0.00000  Uiso   1.00
H1656  H     0.90815   0.95317   0.87892   0.00000  Uiso   1.00
loop_
_geom_bond_atom_site_label_1
_geom_bond_atom_site_label_2
_geom_bond_distance
_geom_bond_site_symmetry_2
_ccdc_geom_bond_type
C1     O40     1.283   .     A
C1     C17     1.411   .     S
C1     O39     1.284   .     A
C2     C3      1.406   .     A
C2     C832    1.424   .     S
C2     C856    1.426   .     S
C3     C7      1.413   .     A
C3     C10     1.430   .     A
C4     C8      1.399   .     A
C4     C830    1.424   1_554 S
C4     C833    1.423   1_554 S
C5     C6      1.397   .     A
C5     C832    1.423   .     S
C5     C852    1.414   .     S
C6     C7      1.386   .     A
C6     O66     1.381   .     S
C7     H36     1.077   .     S
C8     O76     1.385   .     S
C8     C25     1.403   .     A
C9     C25     1.410   .     A
C9     N49     1.425   .     S
C9     C24     1.394   .     A
C10    C26     1.394   .     A
C10    C12     1.478   .     S
C11    N87     1.435   .     S
C11    C17     1.411   .     A
C11    C289    1.388   .     S
C12    O42     1.282   .     A
C12    O41     1.316   .     A
C13    H29     1.082   .     S
C13    C14     1.393   .     A
C13    C563    1.388   1_545 S
C14    C22     1.407   .     S
C14    C15     1.391   .     A
C15    H30     1.085   .     S
C15    C568    1.367   1_545 S
C16    H31     1.084   .     S
C16    C17     1.394   .     A
C16    C291    1.367   .     S
C18    O55     1.388   .     S
C18    N38     1.377   .     A
C18    C111    1.432   .     S
C19    N37     1.361   .     A
C19    H32     1.079   .     S
C19    C202    1.432   1_455 S
C20    N60     1.417   .     S
C20    N37     1.378   .     A
C20    C205    1.416   1_455 S
C21    H33     1.081   .     S
C21    N38     1.359   .     A
C21    C112    1.416   .     S
C22    O44     1.285   .     A
C22    O43     1.281   .     A
C23    O45     1.298   .     A
C23    O46     1.291   .     A
C23    C25     1.456   .     S
C24    C833    1.414   1_554 S
C24    O899    1.380   1_554 S
C26    C27     1.388   .     A
C26    H34     1.079   .     S
C27    C856    1.401   .     S
C27    H863    1.077   .     S
C28    N81     1.427   .     S
C28    C830    1.426   1_554 S
C28    C855    1.401   1_554 S
H35    C855    1.077   1_554 S
N37    Zn47    2.018   .     S
N38    Zn48    2.018   .     S
O39    Zn47    1.991   .     S
O40    Zn48    1.976   .     S
O41    Zn47    2.010   .     S
O42    Zn48    1.990   .     S
O43    Zn47    1.976   .     S
O44    Zn48    1.991   .     S
O45    Zn47    1.990   .     S
O46    Zn48    2.010   .     S
N49    C51     1.445   .     S
N49    H50     1.029   .     S
C51    H54     1.107   .     S
C51    H53     1.112   .     S
C51    H144    1.108   .     S
H52    C235    1.108   1_455 S
O55    C56     1.413   .     S
C56    H57     1.115   .     S
C56    H59     1.108   .     S
C56    H150    1.111   .     S
H58    C240    1.111   1_455 S
N60    C62     1.443   .     S
N60    H61     1.032   .     S
C62    H64     1.110   .     S
C62    H65     1.105   .     S
C62    H247    1.111   1_455 S
H63    C154    1.111   .     S
O66    C67     1.412   .     S
C67    H68     1.104   .     S
C67    H69     1.109   .     S
C67    H162    1.108   .     S
H70    C251    1.108   1_455 S
O71    C72     1.416   .     S
O71    C852    1.380   .     S
C72    H73     1.115   .     S
C72    H902    1.105   .     S
C72    H167    1.109   .     S
H74    C900    1.105   1_554 S
H75    C256    1.109   1_455 S
O76    C77     1.409   .     S
C77    H78     1.110   .     S
C77    H79     1.113   .     S
C77    H80     1.114   .     S
N81    H82     1.032   .     S
N81    C83     1.447   .     S
C83    H84     1.110   .     S
C83    H85     1.111   .     S
C83    H86     1.110   .     S
N87    C89     1.448   .     S
N87    H88     1.032   .     S
C89    H92     1.110   .     S
C89    H91     1.111   .     S
C89    H90     1.111   .     S
C93    O132    1.283   .     A
C93    C109    1.411   .     S
C93    O131    1.284   .     A
C94    C95     1.406   .     A
C94    C924    1.424   .     S
C94    C948    1.426   .     S
C95    C99     1.413   .     A
C95    C102    1.430   .     A
C96    C100    1.399   .     A
C96    C922    1.424   1_554 S
C96    C925    1.423   1_554 S
C97    C98     1.397   .     A
C97    C924    1.423   .     S
C97    C944    1.414   .     S
C98    C99     1.386   .     A
C98    O158    1.381   .     S
C99    H128    1.077   .     S
C100   O168    1.385   .     S
C100   C117    1.403   .     A
C101   C117    1.410   .     A
C101   N141    1.425   .     S
C101   C116    1.394   .     A
C102   C118    1.394   .     A
C102   C104    1.478   .     S
C103   N179    1.435   .     S
C103   C109    1.411   .     A
C103   C381    1.388   .     S
C104   O134    1.282   .     A
C104   O133    1.316   .     A
C105   H121    1.082   .     S
C105   C106    1.393   .     A
C105   C655    1.388   1_545 S
C106   C114    1.407   .     S
C106   C107    1.391   .     A
C107   H122    1.085   .     S
C107   C660    1.367   1_545 S
C108   H123    1.084   .     S
C108   C109    1.394   .     A
C108   C383    1.367   .     S
C110   O147    1.388   .     S
C110   N130    1.377   .     A
C110   C203    1.432   .     S
C111   N129    1.361   .     A
C111   H124    1.079   .     S
C112   N152    1.417   .     S
C112   N129    1.378   .     A
C113   H125    1.081   .     S
C113   N130    1.359   .     A
C113   C204    1.416   .     S
C114   O136    1.285   .     A
C114   O135    1.281   .     A
C115   O137    1.298   .     A
C115   O138    1.291   .     A
C115   C117    1.456   .     S
C116   C925    1.414   1_554 S
C116   O991    1.380   1_554 S
C118   C119    1.388   .     A
C118   H126    1.079   .     S
C119   C948    1.401   .     S
C119   H955    1.077   .     S
C120   N173    1.427   .     S
C120   C922    1.426   1_554 S
C120   C947    1.401   1_554 S
H127   C947    1.077   1_554 S
N129   Zn139   2.018   .     S
N130   Zn140   2.018   .     S
O131   Zn139   1.991   .     S
O132   Zn140   1.976   .     S
O133   Zn139   2.010   .     S
O134   Zn140   1.990   .     S
O135   Zn139   1.976   .     S
O136   Zn140   1.991   .     S
O137   Zn139   1.990   .     S
O138   Zn140   2.010   .     S
N141   C143    1.445   .     S
N141   H142    1.029   .     S
C143   H146    1.107   .     S
C143   H145    1.112   .     S
C143   H236    1.108   .     S
O147   C148    1.413   .     S
C148   H149    1.115   .     S
C148   H151    1.108   .     S
C148   H242    1.111   .     S
N152   C154    1.443   .     S
N152   H153    1.032   .     S
C154   H156    1.110   .     S
C154   H157    1.105   .     S
H155   C246    1.111   .     S
O158   C159    1.412   .     S
C159   H160    1.104   .     S
C159   H161    1.109   .     S
C159   H254    1.108   .     S
O163   C164    1.416   .     S
O163   C944    1.380   .     S
C164   H165    1.115   .     S
C164   H994    1.105   .     S
C164   H259    1.109   .     S
H166   C992    1.105   1_554 S
O168   C169    1.409   .     S
C169   H170    1.110   .     S
C169   H171    1.113   .     S
C169   H172    1.114   .     S
N173   H174    1.032   .     S
N173   C175    1.447   .     S
C175   H176    1.110   .     S
C175   H177    1.111   .     S
C175   H178    1.110   .     S
N179   C181    1.448   .     S
N179   H180    1.032   .     S
C181   H184    1.110   .     S
C181   H183    1.111   .     S
C181   H182    1.111   .     S
C185   O224    1.283   .     A
C185   C201    1.411   .     S
C185   O223    1.284   .     A
C186   C187    1.406   .     A
C186   C1016   1.424   .     S
C186   C1040   1.426   .     S
C187   C191    1.413   .     A
C187   C194    1.430   .     A
C188   C192    1.399   .     A
C188   C1014   1.424   1_554 S
C188   C1017   1.423   1_554 S
C189   C190    1.397   .     A
C189   C1016   1.423   .     S
C189   C1036   1.414   .     S
C190   C191    1.386   .     A
C190   O250    1.381   .     S
C191   H220    1.077   .     S
C192   O260    1.385   .     S
C192   C209    1.403   .     A
C193   C209    1.410   .     A
C193   N233    1.425   .     S
C193   C208    1.394   .     A
C194   C210    1.394   .     A
C194   C196    1.478   .     S
C195   N271    1.435   .     S
C195   C201    1.411   .     A
C195   C473    1.388   .     S
C196   O226    1.282   .     A
C196   O225    1.316   .     A
C197   H213    1.082   .     S
C197   C198    1.393   .     A
C197   C747    1.388   1_545 S
C198   C206    1.407   .     S
C198   C199    1.391   .     A
C199   H214    1.085   .     S
C199   C752    1.367   1_545 S
C200   H215    1.084   .     S
C200   C201    1.394   .     A
C200   C475    1.367   .     S
C202   O239    1.388   .     S
C202   N222    1.377   .     A
C202   C19     1.432   1_655 S
C203   N221    1.361   .     A
C203   H216    1.079   .     S
C204   N244    1.417   .     S
C204   N221    1.378   .     A
C205   H217    1.081   .     S
C205   N222    1.359   .     A
C205   C20     1.416   1_655 S
C206   O228    1.285   .     A
C206   O227    1.281   .     A
C207   O229    1.298   .     A
C207   O230    1.291   .     A
C207   C209    1.456   .     S
C208   C1017   1.414   1_554 S
C208   O1083   1.380   1_554 S
C210   C211    1.388   .     A
C210   H218    1.079   .     S
C211   C1040   1.401   .     S
C211   H1047   1.077   .     S
C212   N265    1.427   .     S
C212   C1014   1.426   1_554 S
C212   C1039   1.401   1_554 S
H219   C1039   1.077   1_554 S
N221   Zn231   2.018   .     S
N222   Zn232   2.018   .     S
O223   Zn231   1.991   .     S
O224   Zn232   1.976   .     S
O225   Zn231   2.010   .     S
O226   Zn232   1.990   .     S
O227   Zn231   1.976   .     S
O228   Zn232   1.991   .     S
O229   Zn231   1.990   .     S
O230   Zn232   2.010   .     S
N233   C235    1.445   .     S
N233   H234    1.029   .     S
C235   H238    1.107   .     S
C235   H237    1.112   .     S
C235   H52     1.108   1_655 S
O239   C240    1.413   .     S
C240   H241    1.115   .     S
C240   H243    1.108   .     S
C240   H58     1.111   1_655 S
N244   C246    1.443   .     S
N244   H245    1.032   .     S
C246   H248    1.110   .     S
C246   H249    1.105   .     S
H247   C62     1.111   1_655 S
O250   C251    1.412   .     S
C251   H252    1.104   .     S
C251   H253    1.109   .     S
C251   H70     1.108   1_655 S
O255   C256    1.416   .     S
O255   C1036   1.380   .     S
C256   H257    1.115   .     S
C256   H1086   1.105   .     S
C256   H75     1.109   1_655 S
H258   C1084   1.105   1_554 S
O260   C261    1.409   .     S
C261   H262    1.110   .     S
C261   H263    1.113   .     S
C261   H264    1.114   .     S
N265   H266    1.032   .     S
N265   C267    1.447   .     S
C267   H268    1.110   .     S
C267   H269    1.111   .     S
C267   H270    1.110   .     S
N271   C273    1.448   .     S
N271   H272    1.032   .     S
C273   H276    1.110   .     S
C273   H275    1.111   .     S
C273   H274    1.111   .     S
C277   O316    1.283   .     A
C277   C293    1.411   .     S
C277   O315    1.284   .     A
C278   C279    1.406   .     A
C278   C1108   1.424   .     S
C278   C1132   1.426   .     S
C279   C283    1.413   .     A
C279   C286    1.430   .     A
C280   C284    1.399   .     A
C280   C1106   1.424   1_554 S
C280   C1109   1.423   1_554 S
C281   C282    1.397   .     A
C281   C1108   1.423   .     S
C281   C1128   1.414   .     S
C282   C283    1.386   .     A
C282   O342    1.381   .     S
C283   H312    1.077   .     S
C284   O352    1.385   .     S
C284   C301    1.403   .     A
C285   C301    1.410   .     A
C285   N325    1.425   .     S
C285   C300    1.394   .     A
C286   C302    1.394   .     A
C286   C288    1.478   .     S
C287   N363    1.435   .     S
C287   C293    1.411   .     A
C287   C565    1.388   .     S
C288   O318    1.282   .     A
C288   O317    1.316   .     A
C289   H305    1.082   .     S
C289   C290    1.393   .     A
C290   C298    1.407   .     S
C290   C291    1.391   .     A
C291   H306    1.085   .     S
C292   H307    1.084   .     S
C292   C293    1.394   .     A
C292   C567    1.367   .     S
C294   O331    1.388   .     S
C294   N314    1.377   .     A
C294   C387    1.432   .     S
C295   N313    1.361   .     A
C295   H308    1.079   .     S
C295   C478    1.432   1_455 S
C296   N336    1.417   .     S
C296   N313    1.378   .     A
C296   C481    1.416   1_455 S
C297   H309    1.081   .     S
C297   N314    1.359   .     A
C297   C388    1.416   .     S
C298   O320    1.285   .     A
C298   O319    1.281   .     A
C299   O321    1.298   .     A
C299   O322    1.291   .     A
C299   C301    1.456   .     S
C300   C1109   1.414   1_554 S
C300   O1175   1.380   1_554 S
C302   C303    1.388   .     A
C302   H310    1.079   .     S
C303   C1132   1.401   .     S
C303   H1139   1.077   .     S
C304   N357    1.427   .     S
C304   C1106   1.426   1_554 S
C304   C1131   1.401   1_554 S
H311   C1131   1.077   1_554 S
N313   Zn323   2.018   .     S
N314   Zn324   2.018   .     S
O315   Zn323   1.991   .     S
O316   Zn324   1.976   .     S
O317   Zn323   2.010   .     S
O318   Zn324   1.990   .     S
O319   Zn323   1.976   .     S
O320   Zn324   1.991   .     S
O321   Zn323   1.990   .     S
O322   Zn324   2.010   .     S
N325   C327    1.445   .     S
N325   H326    1.029   .     S
C327   H330    1.107   .     S
C327   H329    1.112   .     S
C327   H420    1.108   .     S
H328   C511    1.108   1_455 S
O331   C332    1.413   .     S
C332   H333    1.115   .     S
C332   H335    1.108   .     S
C332   H426    1.111   .     S
H334   C516    1.111   1_455 S
N336   C338    1.443   .     S
N336   H337    1.032   .     S
C338   H340    1.110   .     S
C338   H341    1.105   .     S
C338   H523    1.111   1_455 S
H339   C430    1.111   .     S
O342   C343    1.412   .     S
C343   H344    1.104   .     S
C343   H345    1.109   .     S
C343   H438    1.108   .     S
H346   C527    1.108   1_455 S
O347   C348    1.416   .     S
O347   C1128   1.380   .     S
C348   H349    1.115   .     S
C348   H1178   1.105   .     S
C348   H443    1.109   .     S
H350   C1176   1.105   1_554 S
H351   C532    1.109   1_455 S
O352   C353    1.409   .     S
C353   H354    1.110   .     S
C353   H355    1.113   .     S
C353   H356    1.114   .     S
N357   H358    1.032   .     S
N357   C359    1.447   .     S
C359   H360    1.110   .     S
C359   H361    1.111   .     S
C359   H362    1.110   .     S
N363   C365    1.448   .     S
N363   H364    1.032   .     S
C365   H368    1.110   .     S
C365   H367    1.111   .     S
C365   H366    1.111   .     S
C369   O408    1.283   .     A
C369   C385    1.411   .     S
C369   O407    1.284   .     A
C370   C371    1.406   .     A
C370   C1200   1.424   .     S
C370   C1224   1.426   .     S
C371   C375    1.413   .     A
C371   C378    1.430   .     A
C372   C376    1.399   .     A
C372   C1198   1.424   1_554 S
C372   C1201   1.423   1_554 S
C373   C374    1.397   .     A
C373   C1200   1.423   .     S
C373   C1220   1.414   .     S
C374   C375    1.386   .     A
C374   O434    1.381   .     S
C375   H404    1.077   .     S
C376   O444    1.385   .     S
C376   C393    1.403   .     A
C377   C393    1.410   .     A
C377   N417    1.425   .     S
C377   C392    1.394   .     A
C378   C394    1.394   .     A
C378   C380    1.478   .     S
C379   N455    1.435   .     S
C379   C385    1.411   .     A
C379   C657    1.388   .     S
C380   O410    1.282   .     A
C380   O409    1.316   .     A
C381   H397    1.082   .     S
C381   C382    1.393   .     A
C382   C390    1.407   .     S
C382   C383    1.391   .     A
C383   H398    1.085   .     S
C384   H399    1.084   .     S
C384   C385    1.394   .     A
C384   C659    1.367   .     S
C386   O423    1.388   .     S
C386   N406    1.377   .     A
C386   C479    1.432   .     S
C387   N405    1.361   .     A
C387   H400    1.079   .     S
C388   N428    1.417   .     S
C388   N405    1.378   .     A
C389   H401    1.081   .     S
C389   N406    1.359   .     A
C389   C480    1.416   .     S
C390   O412    1.285   .     A
C390   O411    1.281   .     A
C391   O413    1.298   .     A
C391   O414    1.291   .     A
C391   C393    1.456   .     S
C392   C1201   1.414   1_554 S
C392   O1267   1.380   1_554 S
C394   C395    1.388   .     A
C394   H402    1.079   .     S
C395   C1224   1.401   .     S
C395   H1231   1.077   .     S
C396   N449    1.427   .     S
C396   C1198   1.426   1_554 S
C396   C1223   1.401   1_554 S
H403   C1223   1.077   1_554 S
N405   Zn415   2.018   .     S
N406   Zn416   2.018   .     S
O407   Zn415   1.991   .     S
O408   Zn416   1.976   .     S
O409   Zn415   2.010   .     S
O410   Zn416   1.990   .     S
O411   Zn415   1.976   .     S
O412   Zn416   1.991   .     S
O413   Zn415   1.990   .     S
O414   Zn416   2.010   .     S
N417   C419    1.445   .     S
N417   H418    1.029   .     S
C419   H422    1.107   .     S
C419   H421    1.112   .     S
C419   H512    1.108   .     S
O423   C424    1.413   .     S
C424   H425    1.115   .     S
C424   H427    1.108   .     S
C424   H518    1.111   .     S
N428   C430    1.443   .     S
N428   H429    1.032   .     S
C430   H432    1.110   .     S
C430   H433    1.105   .     S
H431   C522    1.111   .     S
O434   C435    1.412   .     S
C435   H436    1.104   .     S
C435   H437    1.109   .     S
C435   H530    1.108   .     S
O439   C440    1.416   .     S
O439   C1220   1.380   .     S
C440   H441    1.115   .     S
C440   H1270   1.105   .     S
C440   H535    1.109   .     S
H442   C1268   1.105   1_554 S
O444   C445    1.409   .     S
C445   H446    1.110   .     S
C445   H447    1.113   .     S
C445   H448    1.114   .     S
N449   H450    1.032   .     S
N449   C451    1.447   .     S
C451   H452    1.110   .     S
C451   H453    1.111   .     S
C451   H454    1.110   .     S
N455   C457    1.448   .     S
N455   H456    1.032   .     S
C457   H460    1.110   .     S
C457   H459    1.111   .     S
C457   H458    1.111   .     S
C461   O500    1.283   .     A
C461   C477    1.411   .     S
C461   O499    1.284   .     A
C462   C463    1.406   .     A
C462   C1292   1.424   .     S
C462   C1316   1.426   .     S
C463   C467    1.413   .     A
C463   C470    1.430   .     A
C464   C468    1.399   .     A
C464   C1290   1.424   1_554 S
C464   C1293   1.423   1_554 S
C465   C466    1.397   .     A
C465   C1292   1.423   .     S
C465   C1312   1.414   .     S
C466   C467    1.386   .     A
C466   O526    1.381   .     S
C467   H496    1.077   .     S
C468   O536    1.385   .     S
C468   C485    1.403   .     A
C469   C485    1.410   .     A
C469   N509    1.425   .     S
C469   C484    1.394   .     A
C470   C486    1.394   .     A
C470   C472    1.478   .     S
C471   N547    1.435   .     S
C471   C477    1.411   .     A
C471   C749    1.388   .     S
C472   O502    1.282   .     A
C472   O501    1.316   .     A
C473   H489    1.082   .     S
C473   C474    1.393   .     A
C474   C482    1.407   .     S
C474   C475    1.391   .     A
C475   H490    1.085   .     S
C476   H491    1.084   .     S
C476   C477    1.394   .     A
C476   C751    1.367   .     S
C478   O515    1.388   .     S
C478   N498    1.377   .     A
C478   C295    1.432   1_655 S
C479   N497    1.361   .     A
C479   H492    1.079   .     S
C480   N520    1.417   .     S
C480   N497    1.378   .     A
C481   H493    1.081   .     S
C481   N498    1.359   .     A
C481   C296    1.416   1_655 S
C482   O504    1.285   .     A
C482   O503    1.281   .     A
C483   O505    1.298   .     A
C483   O506    1.291   .     A
C483   C485    1.456   .     S
C484   C1293   1.414   1_554 S
C484   O1359   1.380   1_554 S
C486   C487    1.388   .     A
C486   H494    1.079   .     S
C487   C1316   1.401   .     S
C487   H1323   1.077   .     S
C488   N541    1.427   .     S
C488   C1290   1.426   1_554 S
C488   C1315   1.401   1_554 S
H495   C1315   1.077   1_554 S
N497   Zn507   2.018   .     S
N498   Zn508   2.018   .     S
O499   Zn507   1.991   .     S
O500   Zn508   1.976   .     S
O501   Zn507   2.010   .     S
O502   Zn508   1.990   .     S
O503   Zn507   1.976   .     S
O504   Zn508   1.991   .     S
O505   Zn507   1.990   .     S
O506   Zn508   2.010   .     S
N509   C511    1.445   .     S
N509   H510    1.029   .     S
C511   H514    1.107   .     S
C511   H513    1.112   .     S
C511   H328    1.108   1_655 S
O515   C516    1.413   .     S
C516   H517    1.115   .     S
C516   H519    1.108   .     S
C516   H334    1.111   1_655 S
N520   C522    1.443   .     S
N520   H521    1.032   .     S
C522   H524    1.110   .     S
C522   H525    1.105   .     S
H523   C338    1.111   1_655 S
O526   C527    1.412   .     S
C527   H528    1.104   .     S
C527   H529    1.109   .     S
C527   H346    1.108   1_655 S
O531   C532    1.416   .     S
O531   C1312   1.380   .     S
C532   H533    1.115   .     S
C532   H1362   1.105   .     S
C532   H351    1.109   1_655 S
H534   C1360   1.105   1_554 S
O536   C537    1.409   .     S
C537   H538    1.110   .     S
C537   H539    1.113   .     S
C537   H540    1.114   .     S
N541   H542    1.032   .     S
N541   C543    1.447   .     S
C543   H544    1.110   .     S
C543   H545    1.111   .     S
C543   H546    1.110   .     S
N547   C549    1.448   .     S
N547   H548    1.032   .     S
C549   H552    1.110   .     S
C549   H551    1.111   .     S
C549   H550    1.111   .     S
C553   O592    1.283   .     A
C553   C569    1.411   .     S
C553   O591    1.284   .     A
C554   C555    1.406   .     A
C554   C1384   1.424   .     S
C554   C1408   1.426   .     S
C555   C559    1.413   .     A
C555   C562    1.430   .     A
C556   C560    1.399   .     A
C556   C1382   1.424   1_554 S
C556   C1385   1.423   1_554 S
C557   C558    1.397   .     A
C557   C1384   1.423   .     S
C557   C1404   1.414   .     S
C558   C559    1.386   .     A
C558   O618    1.381   .     S
C559   H588    1.077   .     S
C560   O628    1.385   .     S
C560   C577    1.403   .     A
C561   C577    1.410   .     A
C561   N601    1.425   .     S
C561   C576    1.394   .     A
C562   C578    1.394   .     A
C562   C564    1.478   .     S
C563   N639    1.435   .     S
C563   C569    1.411   .     A
C563   C13     1.388   1_565 S
C564   O594    1.282   .     A
C564   O593    1.316   .     A
C565   H581    1.082   .     S
C565   C566    1.393   .     A
C566   C574    1.407   .     S
C566   C567    1.391   .     A
C567   H582    1.085   .     S
C568   H583    1.084   .     S
C568   C569    1.394   .     A
C568   C15     1.367   1_565 S
C570   O607    1.388   .     S
C570   N590    1.377   .     A
C570   C663    1.432   .     S
C571   N589    1.361   .     A
C571   H584    1.079   .     S
C571   C754    1.432   1_455 S
C572   N612    1.417   .     S
C572   N589    1.378   .     A
C572   C757    1.416   1_455 S
C573   H585    1.081   .     S
C573   N590    1.359   .     A
C573   C664    1.416   .     S
C574   O596    1.285   .     A
C574   O595    1.281   .     A
C575   O597    1.298   .     A
C575   O598    1.291   .     A
C575   C577    1.456   .     S
C576   C1385   1.414   1_554 S
C576   O1451   1.380   1_554 S
C578   C579    1.388   .     A
C578   H586    1.079   .     S
C579   C1408   1.401   .     S
C579   H1415   1.077   .     S
C580   N633    1.427   .     S
C580   C1382   1.426   1_554 S
C580   C1407   1.401   1_554 S
H587   C1407   1.077   1_554 S
N589   Zn599   2.018   .     S
N590   Zn600   2.018   .     S
O591   Zn599   1.991   .     S
O592   Zn600   1.976   .     S
O593   Zn599   2.010   .     S
O594   Zn600   1.990   .     S
O595   Zn599   1.976   .     S
O596   Zn600   1.991   .     S
O597   Zn599   1.990   .     S
O598   Zn600   2.010   .     S
N601   C603    1.445   .     S
N601   H602    1.029   .     S
C603   H606    1.107   .     S
C603   H605    1.112   .     S
C603   H696    1.108   .     S
H604   C787    1.108   1_455 S
O607   C608    1.413   .     S
C608   H609    1.115   .     S
C608   H611    1.108   .     S
C608   H702    1.111   .     S
H610   C792    1.111   1_455 S
N612   C614    1.443   .     S
N612   H613    1.032   .     S
C614   H616    1.110   .     S
C614   H617    1.105   .     S
C614   H799    1.111   1_455 S
H615   C706    1.111   .     S
O618   C619    1.412   .     S
C619   H620    1.104   .     S
C619   H621    1.109   .     S
C619   H714    1.108   .     S
H622   C803    1.108   1_455 S
O623   C624    1.416   .     S
O623   C1404   1.380   .     S
C624   H625    1.115   .     S
C624   H1454   1.105   .     S
C624   H719    1.109   .     S
H626   C1452   1.105   1_554 S
H627   C808    1.109   1_455 S
O628   C629    1.409   .     S
C629   H630    1.110   .     S
C629   H631    1.113   .     S
C629   H632    1.114   .     S
N633   H634    1.032   .     S
N633   C635    1.447   .     S
C635   H636    1.110   .     S
C635   H637    1.111   .     S
C635   H638    1.110   .     S
N639   C641    1.448   .     S
N639   H640    1.032   .     S
C641   H644    1.110   .     S
C641   H643    1.111   .     S
C641   H642    1.111   .     S
C645   O684    1.283   .     A
C645   C661    1.411   .     S
C645   O683    1.284   .     A
C646   C647    1.406   .     A
C646   C1476   1.424   .     S
C646   C1500   1.426   .     S
C647   C651    1.413   .     A
C647   C654    1.430   .     A
C648   C652    1.399   .     A
C648   C1474   1.424   1_554 S
C648   C1477   1.423   1_554 S
C649   C650    1.397   .     A
C649   C1476   1.423   .     S
C649   C1496   1.414   .     S
C650   C651    1.386   .     A
C650   O710    1.381   .     S
C651   H680    1.077   .     S
C652   O720    1.385   .     S
C652   C669    1.403   .     A
C653   C669    1.410   .     A
C653   N693    1.425   .     S
C653   C668    1.394   .     A
C654   C670    1.394   .     A
C654   C656    1.478   .     S
C655   N731    1.435   .     S
C655   C661    1.411   .     A
C655   C105    1.388   1_565 S
C656   O686    1.282   .     A
C656   O685    1.316   .     A
C657   H673    1.082   .     S
C657   C658    1.393   .     A
C658   C666    1.407   .     S
C658   C659    1.391   .     A
C659   H674    1.085   .     S
C660   H675    1.084   .     S
C660   C661    1.394   .     A
C660   C107    1.367   1_565 S
C662   O699    1.388   .     S
C662   N682    1.377   .     A
C662   C755    1.432   .     S
C663   N681    1.361   .     A
C663   H676    1.079   .     S
C664   N704    1.417   .     S
C664   N681    1.378   .     A
C665   H677    1.081   .     S
C665   N682    1.359   .     A
C665   C756    1.416   .     S
C666   O688    1.285   .     A
C666   O687    1.281   .     A
C667   O689    1.298   .     A
C667   O690    1.291   .     A
C667   C669    1.456   .     S
C668   C1477   1.414   1_554 S
C668   O1543   1.380   1_554 S
C670   C671    1.388   .     A
C670   H678    1.079   .     S
C671   C1500   1.401   .     S
C671   H1507   1.077   .     S
C672   N725    1.427   .     S
C672   C1474   1.426   1_554 S
C672   C1499   1.401   1_554 S
H679   C1499   1.077   1_554 S
N681   Zn691   2.018   .     S
N682   Zn692   2.018   .     S
O683   Zn691   1.991   .     S
O684   Zn692   1.976   .     S
O685   Zn691   2.010   .     S
O686   Zn692   1.990   .     S
O687   Zn691   1.976   .     S
O688   Zn692   1.991   .     S
O689   Zn691   1.990   .     S
O690   Zn692   2.010   .     S
N693   C695    1.445   .     S
N693   H694    1.029   .     S
C695   H698    1.107   .     S
C695   H697    1.112   .     S
C695   H788    1.108   .     S
O699   C700    1.413   .     S
C700   H701    1.115   .     S
C700   H703    1.108   .     S
C700   H794    1.111   .     S
N704   C706    1.443   .     S
N704   H705    1.032   .     S
C706   H708    1.110   .     S
C706   H709    1.105   .     S
H707   C798    1.111   .     S
O710   C711    1.412   .     S
C711   H712    1.104   .     S
C711   H713    1.109   .     S
C711   H806    1.108   .     S
O715   C716    1.416   .     S
O715   C1496   1.380   .     S
C716   H717    1.115   .     S
C716   H1546   1.105   .     S
C716   H811    1.109   .     S
H718   C1544   1.105   1_554 S
O720   C721    1.409   .     S
C721   H722    1.110   .     S
C721   H723    1.113   .     S
C721   H724    1.114   .     S
N725   H726    1.032   .     S
N725   C727    1.447   .     S
C727   H728    1.110   .     S
C727   H729    1.111   .     S
C727   H730    1.110   .     S
N731   C733    1.448   .     S
N731   H732    1.032   .     S
C733   H736    1.110   .     S
C733   H735    1.111   .     S
C733   H734    1.111   .     S
C737   O776    1.283   .     A
C737   C753    1.411   .     S
C737   O775    1.284   .     A
C738   C739    1.406   .     A
C738   C1568   1.424   .     S
C738   C1592   1.426   .     S
C739   C743    1.413   .     A
C739   C746    1.430   .     A
C740   C744    1.399   .     A
C740   C1566   1.424   1_554 S
C740   C1569   1.423   1_554 S
C741   C742    1.397   .     A
C741   C1568   1.423   .     S
C741   C1588   1.414   .     S
C742   C743    1.386   .     A
C742   O802    1.381   .     S
C743   H772    1.077   .     S
C744   O812    1.385   .     S
C744   C761    1.403   .     A
C745   C761    1.410   .     A
C745   N785    1.425   .     S
C745   C760    1.394   .     A
C746   C762    1.394   .     A
C746   C748    1.478   .     S
C747   N823    1.435   .     S
C747   C753    1.411   .     A
C747   C197    1.388   1_565 S
C748   O778    1.282   .     A
C748   O777    1.316   .     A
C749   H765    1.082   .     S
C749   C750    1.393   .     A
C750   C758    1.407   .     S
C750   C751    1.391   .     A
C751   H766    1.085   .     S
C752   H767    1.084   .     S
C752   C753    1.394   .     A
C752   C199    1.367   1_565 S
C754   O791    1.388   .     S
C754   N774    1.377   .     A
C754   C571    1.432   1_655 S
C755   N773    1.361   .     A
C755   H768    1.079   .     S
C756   N796    1.417   .     S
C756   N773    1.378   .     A
C757   H769    1.081   .     S
C757   N774    1.359   .     A
C757   C572    1.416   1_655 S
C758   O780    1.285   .     A
C758   O779    1.281   .     A
C759   O781    1.298   .     A
C759   O782    1.291   .     A
C759   C761    1.456   .     S
C760   C1569   1.414   1_554 S
C760   O1635   1.380   1_554 S
C762   C763    1.388   .     A
C762   H770    1.079   .     S
C763   C1592   1.401   .     S
C763   H1599   1.077   .     S
C764   N817    1.427   .     S
C764   C1566   1.426   1_554 S
C764   C1591   1.401   1_554 S
H771   C1591   1.077   1_554 S
N773   Zn783   2.018   .     S
N774   Zn784   2.018   .     S
O775   Zn783   1.991   .     S
O776   Zn784   1.976   .     S
O777   Zn783   2.010   .     S
O778   Zn784   1.990   .     S
O779   Zn783   1.976   .     S
O780   Zn784   1.991   .     S
O781   Zn783   1.990   .     S
O782   Zn784   2.010   .     S
N785   C787    1.445   .     S
N785   H786    1.029   .     S
C787   H790    1.107   .     S
C787   H789    1.112   .     S
C787   H604    1.108   1_655 S
O791   C792    1.413   .     S
C792   H793    1.115   .     S
C792   H795    1.108   .     S
C792   H610    1.111   1_655 S
N796   C798    1.443   .     S
N796   H797    1.032   .     S
C798   H800    1.110   .     S
C798   H801    1.105   .     S
H799   C614    1.111   1_655 S
O802   C803    1.412   .     S
C803   H804    1.104   .     S
C803   H805    1.109   .     S
C803   H622    1.108   1_655 S
O807   C808    1.416   .     S
O807   C1588   1.380   .     S
C808   H809    1.115   .     S
C808   H1638   1.105   .     S
C808   H627    1.109   1_655 S
H810   C1636   1.105   1_554 S
O812   C813    1.409   .     S
C813   H814    1.110   .     S
C813   H815    1.113   .     S
C813   H816    1.114   .     S
N817   H818    1.032   .     S
N817   C819    1.447   .     S
C819   H820    1.110   .     S
C819   H821    1.111   .     S
C819   H822    1.110   .     S
N823   C825    1.448   .     S
N823   H824    1.032   .     S
C825   H828    1.110   .     S
C825   H827    1.111   .     S
C825   H826    1.111   .     S
C829   O868    1.283   .     A
C829   C845    1.411   .     S
C829   O867    1.284   .     A
C830   C831    1.406   .     A
C830   C4      1.424   1_556 S
C830   C28     1.426   1_556 S
C831   C835    1.413   .     A
C831   C838    1.430   .     A
C832   C836    1.399   .     A
C833   C834    1.397   .     A
C833   C4      1.423   1_556 S
C833   C24     1.414   1_556 S
C834   C835    1.386   .     A
C834   O894    1.381   .     S
C835   H864    1.077   .     S
C836   O904    1.385   .     S
C836   C853    1.403   .     A
C837   C853    1.410   .     A
C837   N877    1.425   .     S
C837   C852    1.394   .     A
C838   C854    1.394   .     A
C838   C840    1.478   .     S
C839   N915    1.435   .     S
C839   C845    1.411   .     A
C839   C1117   1.388   .     S
C840   O870    1.282   .     A
C840   O869    1.316   .     A
C841   H857    1.082   .     S
C841   C842    1.393   .     A
C841   C1391   1.388   1_545 S
C842   C850    1.407   .     S
C842   C843    1.391   .     A
C843   H858    1.085   .     S
C843   C1396   1.367   1_545 S
C844   H859    1.084   .     S
C844   C845    1.394   .     A
C844   C1119   1.367   .     S
C846   O883    1.388   .     S
C846   N866    1.377   .     A
C846   C939    1.432   .     S
C847   N865    1.361   .     A
C847   H860    1.079   .     S
C847   C1030   1.432   1_455 S
C848   N888    1.417   .     S
C848   N865    1.378   .     A
C848   C1033   1.416   1_455 S
C849   H861    1.081   .     S
C849   N866    1.359   .     A
C849   C940    1.416   .     S
C850   O872    1.285   .     A
C850   O871    1.281   .     A
C851   O873    1.298   .     A
C851   O874    1.291   .     A
C851   C853    1.456   .     S
C854   C855    1.388   .     A
C854   H862    1.079   .     S
C855   C28     1.401   1_556 S
C855   H35     1.077   1_556 S
C856   N909    1.427   .     S
N865   Zn875   2.018   .     S
N866   Zn876   2.018   .     S
O867   Zn875   1.991   .     S
O868   Zn876   1.976   .     S
O869   Zn875   2.010   .     S
O870   Zn876   1.990   .     S
O871   Zn875   1.976   .     S
O872   Zn876   1.991   .     S
O873   Zn875   1.990   .     S
O874   Zn876   2.010   .     S
N877   C879    1.445   .     S
N877   H878    1.029   .     S
C879   H882    1.107   .     S
C879   H881    1.112   .     S
C879   H972    1.108   .     S
H880   C1063   1.108   1_455 S
O883   C884    1.413   .     S
C884   H885    1.115   .     S
C884   H887    1.108   .     S
C884   H978    1.111   .     S
H886   C1068   1.111   1_455 S
N888   C890    1.443   .     S
N888   H889    1.032   .     S
C890   H892    1.110   .     S
C890   H893    1.105   .     S
C890   H1075   1.111   1_455 S
H891   C982    1.111   .     S
O894   C895    1.412   .     S
C895   H896    1.104   .     S
C895   H897    1.109   .     S
C895   H990    1.108   .     S
H898   C1079   1.108   1_455 S
O899   C900    1.416   .     S
O899   C24     1.380   1_556 S
C900   H901    1.115   .     S
C900   H74     1.105   1_556 S
C900   H995    1.109   .     S
H903   C1084   1.109   1_455 S
O904   C905    1.409   .     S
C905   H906    1.110   .     S
C905   H907    1.113   .     S
C905   H908    1.114   .     S
N909   H910    1.032   .     S
N909   C911    1.447   .     S
C911   H912    1.110   .     S
C911   H913    1.111   .     S
C911   H914    1.110   .     S
N915   C917    1.448   .     S
N915   H916    1.032   .     S
C917   H920    1.110   .     S
C917   H919    1.111   .     S
C917   H918    1.111   .     S
C921   O960    1.283   .     A
C921   C937    1.411   .     S
C921   O959    1.284   .     A
C922   C923    1.406   .     A
C922   C96     1.424   1_556 S
C922   C120    1.426   1_556 S
C923   C927    1.413   .     A
C923   C930    1.430   .     A
C924   C928    1.399   .     A
C925   C926    1.397   .     A
C925   C96     1.423   1_556 S
C925   C116    1.414   1_556 S
C926   C927    1.386   .     A
C926   O986    1.381   .     S
C927   H956    1.077   .     S
C928   O996    1.385   .     S
C928   C945    1.403   .     A
C929   C945    1.410   .     A
C929   N969    1.425   .     S
C929   C944    1.394   .     A
C930   C946    1.394   .     A
C930   C932    1.478   .     S
C931   N1007   1.435   .     S
C931   C937    1.411   .     A
C931   C1209   1.388   .     S
C932   O962    1.282   .     A
C932   O961    1.316   .     A
C933   H949    1.082   .     S
C933   C934    1.393   .     A
C933   C1483   1.388   1_545 S
C934   C942    1.407   .     S
C934   C935    1.391   .     A
C935   H950    1.085   .     S
C935   C1488   1.367   1_545 S
C936   H951    1.084   .     S
C936   C937    1.394   .     A
C936   C1211   1.367   .     S
C938   O975    1.388   .     S
C938   N958    1.377   .     A
C938   C1031   1.432   .     S
C939   N957    1.361   .     A
C939   H952    1.079   .     S
C940   N980    1.417   .     S
C940   N957    1.378   .     A
C941   H953    1.081   .     S
C941   N958    1.359   .     A
C941   C1032   1.416   .     S
C942   O964    1.285   .     A
C942   O963    1.281   .     A
C943   O965    1.298   .     A
C943   O966    1.291   .     A
C943   C945    1.456   .     S
C946   C947    1.388   .     A
C946   H954    1.079   .     S
C947   C120    1.401   1_556 S
C947   H127    1.077   1_556 S
C948   N1001   1.427   .     S
N957   Zn967   2.018   .     S
N958   Zn968   2.018   .     S
O959   Zn967   1.991   .     S
O960   Zn968   1.976   .     S
O961   Zn967   2.010   .     S
O962   Zn968   1.990   .     S
O963   Zn967   1.976   .     S
O964   Zn968   1.991   .     S
O965   Zn967   1.990   .     S
O966   Zn968   2.010   .     S
N969   C971    1.445   .     S
N969   H970    1.029   .     S
C971   H974    1.107   .     S
C971   H973    1.112   .     S
C971   H1064   1.108   .     S
O975   C976    1.413   .     S
C976   H977    1.115   .     S
C976   H979    1.108   .     S
C976   H1070   1.111   .     S
N980   C982    1.443   .     S
N980   H981    1.032   .     S
C982   H984    1.110   .     S
C982   H985    1.105   .     S
H983   C1074   1.111   .     S
O986   C987    1.412   .     S
C987   H988    1.104   .     S
C987   H989    1.109   .     S
C987   H1082   1.108   .     S
O991   C992    1.416   .     S
O991   C116    1.380   1_556 S
C992   H993    1.115   .     S
C992   H166    1.105   1_556 S
C992   H1087   1.109   .     S
O996   C997    1.409   .     S
C997   H998    1.110   .     S
C997   H999    1.113   .     S
C997   H1000   1.114   .     S
N1001  H1002   1.032   .     S
N1001  C1003   1.447   .     S
C1003  H1004   1.110   .     S
C1003  H1005   1.111   .     S
C1003  H1006   1.110   .     S
N1007  C1009   1.448   .     S
N1007  H1008   1.032   .     S
C1009  H1012   1.110   .     S
C1009  H1011   1.111   .     S
C1009  H1010   1.111   .     S
C1013  O1052   1.283   .     A
C1013  C1029   1.411   .     S
C1013  O1051   1.284   .     A
C1014  C1015   1.406   .     A
C1014  C188    1.424   1_556 S
C1014  C212    1.426   1_556 S
C1015  C1019   1.413   .     A
C1015  C1022   1.430   .     A
C1016  C1020   1.399   .     A
C1017  C1018   1.397   .     A
C1017  C188    1.423   1_556 S
C1017  C208    1.414   1_556 S
C1018  C1019   1.386   .     A
C1018  O1078   1.381   .     S
C1019  H1048   1.077   .     S
C1020  O1088   1.385   .     S
C1020  C1037   1.403   .     A
C1021  C1037   1.410   .     A
C1021  N1061   1.425   .     S
C1021  C1036   1.394   .     A
C1022  C1038   1.394   .     A
C1022  C1024   1.478   .     S
C1023  N1099   1.435   .     S
C1023  C1029   1.411   .     A
C1023  C1301   1.388   .     S
C1024  O1054   1.282   .     A
C1024  O1053   1.316   .     A
C1025  H1041   1.082   .     S
C1025  C1026   1.393   .     A
C1025  C1575   1.388   1_545 S
C1026  C1034   1.407   .     S
C1026  C1027   1.391   .     A
C1027  H1042   1.085   .     S
C1027  C1580   1.367   1_545 S
C1028  H1043   1.084   .     S
C1028  C1029   1.394   .     A
C1028  C1303   1.367   .     S
C1030  O1067   1.388   .     S
C1030  N1050   1.377   .     A
C1030  C847    1.432   1_655 S
C1031  N1049   1.361   .     A
C1031  H1044   1.079   .     S
C1032  N1072   1.417   .     S
C1032  N1049   1.378   .     A
C1033  H1045   1.081   .     S
C1033  N1050   1.359   .     A
C1033  C848    1.416   1_655 S
C1034  O1056   1.285   .     A
C1034  O1055   1.281   .     A
C1035  O1057   1.298   .     A
C1035  O1058   1.291   .     A
C1035  C1037   1.456   .     S
C1038  C1039   1.388   .     A
C1038  H1046   1.079   .     S
C1039  C212    1.401   1_556 S
C1039  H219    1.077   1_556 S
C1040  N1093   1.427   .     S
N1049  Zn1059  2.018   .     S
N1050  Zn1060  2.018   .     S
O1051  Zn1059  1.991   .     S
O1052  Zn1060  1.976   .     S
O1053  Zn1059  2.010   .     S
O1054  Zn1060  1.990   .     S
O1055  Zn1059  1.976   .     S
O1056  Zn1060  1.991   .     S
O1057  Zn1059  1.990   .     S
O1058  Zn1060  2.010   .     S
N1061  C1063   1.445   .     S
N1061  H1062   1.029   .     S
C1063  H1066   1.107   .     S
C1063  H1065   1.112   .     S
C1063  H880    1.108   1_655 S
O1067  C1068   1.413   .     S
C1068  H1069   1.115   .     S
C1068  H1071   1.108   .     S
C1068  H886    1.111   1_655 S
N1072  C1074   1.443   .     S
N1072  H1073   1.032   .     S
C1074  H1076   1.110   .     S
C1074  H1077   1.105   .     S
H1075  C890    1.111   1_655 S
O1078  C1079   1.412   .     S
C1079  H1080   1.104   .     S
C1079  H1081   1.109   .     S
C1079  H898    1.108   1_655 S
O1083  C1084   1.416   .     S
O1083  C208    1.380   1_556 S
C1084  H1085   1.115   .     S
C1084  H258    1.105   1_556 S
C1084  H903    1.109   1_655 S
O1088  C1089   1.409   .     S
C1089  H1090   1.110   .     S
C1089  H1091   1.113   .     S
C1089  H1092   1.114   .     S
N1093  H1094   1.032   .     S
N1093  C1095   1.447   .     S
C1095  H1096   1.110   .     S
C1095  H1097   1.111   .     S
C1095  H1098   1.110   .     S
N1099  C1101   1.448   .     S
N1099  H1100   1.032   .     S
C1101  H1104   1.110   .     S
C1101  H1103   1.111   .     S
C1101  H1102   1.111   .     S
C1105  O1144   1.283   .     A
C1105  C1121   1.411   .     S
C1105  O1143   1.284   .     A
C1106  C1107   1.406   .     A
C1106  C280    1.424   1_556 S
C1106  C304    1.426   1_556 S
C1107  C1111   1.413   .     A
C1107  C1114   1.430   .     A
C1108  C1112   1.399   .     A
C1109  C1110   1.397   .     A
C1109  C280    1.423   1_556 S
C1109  C300    1.414   1_556 S
C1110  C1111   1.386   .     A
C1110  O1170   1.381   .     S
C1111  H1140   1.077   .     S
C1112  O1180   1.385   .     S
C1112  C1129   1.403   .     A
C1113  C1129   1.410   .     A
C1113  N1153   1.425   .     S
C1113  C1128   1.394   .     A
C1114  C1130   1.394   .     A
C1114  C1116   1.478   .     S
C1115  N1191   1.435   .     S
C1115  C1121   1.411   .     A
C1115  C1393   1.388   .     S
C1116  O1146   1.282   .     A
C1116  O1145   1.316   .     A
C1117  H1133   1.082   .     S
C1117  C1118   1.393   .     A
C1118  C1126   1.407   .     S
C1118  C1119   1.391   .     A
C1119  H1134   1.085   .     S
C1120  H1135   1.084   .     S
C1120  C1121   1.394   .     A
C1120  C1395   1.367   .     S
C1122  O1159   1.388   .     S
C1122  N1142   1.377   .     A
C1122  C1215   1.432   .     S
C1123  N1141   1.361   .     A
C1123  H1136   1.079   .     S
C1123  C1306   1.432   1_455 S
C1124  N1164   1.417   .     S
C1124  N1141   1.378   .     A
C1124  C1309   1.416   1_455 S
C1125  H1137   1.081   .     S
C1125  N1142   1.359   .     A
C1125  C1216   1.416   .     S
C1126  O1148   1.285   .     A
C1126  O1147   1.281   .     A
C1127  O1149   1.298   .     A
C1127  O1150   1.291   .     A
C1127  C1129   1.456   .     S
C1130  C1131   1.388   .     A
C1130  H1138   1.079   .     S
C1131  C304    1.401   1_556 S
C1131  H311    1.077   1_556 S
C1132  N1185   1.427   .     S
N1141  Zn1151  2.018   .     S
N1142  Zn1152  2.018   .     S
O1143  Zn1151  1.991   .     S
O1144  Zn1152  1.976   .     S
O1145  Zn1151  2.010   .     S
O1146  Zn1152  1.990   .     S
O1147  Zn1151  1.976   .     S
O1148  Zn1152  1.991   .     S
O1149  Zn1151  1.990   .     S
O1150  Zn1152  2.010   .     S
N1153  C1155   1.445   .     S
N1153  H1154   1.029   .     S
C1155  H1158   1.107   .     S
C1155  H1157   1.112   .     S
C1155  H1248   1.108   .     S
H1156  C1339   1.108   1_455 S
O1159  C1160   1.413   .     S
C1160  H1161   1.115   .     S
C1160  H1163   1.108   .     S
C1160  H1254   1.111   .     S
H1162  C1344   1.111   1_455 S
N1164  C1166   1.443   .     S
N1164  H1165   1.032   .     S
C1166  H1168   1.110   .     S
C1166  H1169   1.105   .     S
C1166  H1351   1.111   1_455 S
H1167  C1258   1.111   .     S
O1170  C1171   1.412   .     S
C1171  H1172   1.104   .     S
C1171  H1173   1.109   .     S
C1171  H1266   1.108   .     S
H1174  C1355   1.108   1_455 S
O1175  C1176   1.416   .     S
O1175  C300    1.380   1_556 S
C1176  H1177   1.115   .     S
C1176  H350    1.105   1_556 S
C1176  H1271   1.109   .     S
H1179  C1360   1.109   1_455 S
O1180  C1181   1.409   .     S
C1181  H1182   1.110   .     S
C1181  H1183   1.113   .     S
C1181  H1184   1.114   .     S
N1185  H1186   1.032   .     S
N1185  C1187   1.447   .     S
C1187  H1188   1.110   .     S
C1187  H1189   1.111   .     S
C1187  H1190   1.110   .     S
N1191  C1193   1.448   .     S
N1191  H1192   1.032   .     S
C1193  H1196   1.110   .     S
C1193  H1195   1.111   .     S
C1193  H1194   1.111   .     S
C1197  O1236   1.283   .     A
C1197  C1213   1.411   .     S
C1197  O1235   1.284   .     A
C1198  C1199   1.406   .     A
C1198  C372    1.424   1_556 S
C1198  C396    1.426   1_556 S
C1199  C1203   1.413   .     A
C1199  C1206   1.430   .     A
C1200  C1204   1.399   .     A
C1201  C1202   1.397   .     A
C1201  C372    1.423   1_556 S
C1201  C392    1.414   1_556 S
C1202  C1203   1.386   .     A
C1202  O1262   1.381   .     S
C1203  H1232   1.077   .     S
C1204  O1272   1.385   .     S
C1204  C1221   1.403   .     A
C1205  C1221   1.410   .     A
C1205  N1245   1.425   .     S
C1205  C1220   1.394   .     A
C1206  C1222   1.394   .     A
C1206  C1208   1.478   .     S
C1207  N1283   1.435   .     S
C1207  C1213   1.411   .     A
C1207  C1485   1.388   .     S
C1208  O1238   1.282   .     A
C1208  O1237   1.316   .     A
C1209  H1225   1.082   .     S
C1209  C1210   1.393   .     A
C1210  C1218   1.407   .     S
C1210  C1211   1.391   .     A
C1211  H1226   1.085   .     S
C1212  H1227   1.084   .     S
C1212  C1213   1.394   .     A
C1212  C1487   1.367   .     S
C1214  O1251   1.388   .     S
C1214  N1234   1.377   .     A
C1214  C1307   1.432   .     S
C1215  N1233   1.361   .     A
C1215  H1228   1.079   .     S
C1216  N1256   1.417   .     S
C1216  N1233   1.378   .     A
C1217  H1229   1.081   .     S
C1217  N1234   1.359   .     A
C1217  C1308   1.416   .     S
C1218  O1240   1.285   .     A
C1218  O1239   1.281   .     A
C1219  O1241   1.298   .     A
C1219  O1242   1.291   .     A
C1219  C1221   1.456   .     S
C1222  C1223   1.388   .     A
C1222  H1230   1.079   .     S
C1223  C396    1.401   1_556 S
C1223  H403    1.077   1_556 S
C1224  N1277   1.427   .     S
N1233  Zn1243  2.018   .     S
N1234  Zn1244  2.018   .     S
O1235  Zn1243  1.991   .     S
O1236  Zn1244  1.976   .     S
O1237  Zn1243  2.010   .     S
O1238  Zn1244  1.990   .     S
O1239  Zn1243  1.976   .     S
O1240  Zn1244  1.991   .     S
O1241  Zn1243  1.990   .     S
O1242  Zn1244  2.010   .     S
N1245  C1247   1.445   .     S
N1245  H1246   1.029   .     S
C1247  H1250   1.107   .     S
C1247  H1249   1.112   .     S
C1247  H1340   1.108   .     S
O1251  C1252   1.413   .     S
C1252  H1253   1.115   .     S
C1252  H1255   1.108   .     S
C1252  H1346   1.111   .     S
N1256  C1258   1.443   .     S
N1256  H1257   1.032   .     S
C1258  H1260   1.110   .     S
C1258  H1261   1.105   .     S
H1259  C1350   1.111   .     S
O1262  C1263   1.412   .     S
C1263  H1264   1.104   .     S
C1263  H1265   1.109   .     S
C1263  H1358   1.108   .     S
O1267  C1268   1.416   .     S
O1267  C392    1.380   1_556 S
C1268  H1269   1.115   .     S
C1268  H442    1.105   1_556 S
C1268  H1363   1.109   .     S
O1272  C1273   1.409   .     S
C1273  H1274   1.110   .     S
C1273  H1275   1.113   .     S
C1273  H1276   1.114   .     S
N1277  H1278   1.032   .     S
N1277  C1279   1.447   .     S
C1279  H1280   1.110   .     S
C1279  H1281   1.111   .     S
C1279  H1282   1.110   .     S
N1283  C1285   1.448   .     S
N1283  H1284   1.032   .     S
C1285  H1288   1.110   .     S
C1285  H1287   1.111   .     S
C1285  H1286   1.111   .     S
C1289  O1328   1.283   .     A
C1289  C1305   1.411   .     S
C1289  O1327   1.284   .     A
C1290  C1291   1.406   .     A
C1290  C464    1.424   1_556 S
C1290  C488    1.426   1_556 S
C1291  C1295   1.413   .     A
C1291  C1298   1.430   .     A
C1292  C1296   1.399   .     A
C1293  C1294   1.397   .     A
C1293  C464    1.423   1_556 S
C1293  C484    1.414   1_556 S
C1294  C1295   1.386   .     A
C1294  O1354   1.381   .     S
C1295  H1324   1.077   .     S
C1296  O1364   1.385   .     S
C1296  C1313   1.403   .     A
C1297  C1313   1.410   .     A
C1297  N1337   1.425   .     S
C1297  C1312   1.394   .     A
C1298  C1314   1.394   .     A
C1298  C1300   1.478   .     S
C1299  N1375   1.435   .     S
C1299  C1305   1.411   .     A
C1299  C1577   1.388   .     S
C1300  O1330   1.282   .     A
C1300  O1329   1.316   .     A
C1301  H1317   1.082   .     S
C1301  C1302   1.393   .     A
C1302  C1310   1.407   .     S
C1302  C1303   1.391   .     A
C1303  H1318   1.085   .     S
C1304  H1319   1.084   .     S
C1304  C1305   1.394   .     A
C1304  C1579   1.367   .     S
C1306  O1343   1.388   .     S
C1306  N1326   1.377   .     A
C1306  C1123   1.432   1_655 S
C1307  N1325   1.361   .     A
C1307  H1320   1.079   .     S
C1308  N1348   1.417   .     S
C1308  N1325   1.378   .     A
C1309  H1321   1.081   .     S
C1309  N1326   1.359   .     A
C1309  C1124   1.416   1_655 S
C1310  O1332   1.285   .     A
C1310  O1331   1.281   .     A
C1311  O1333   1.298   .     A
C1311  O1334   1.291   .     A
C1311  C1313   1.456   .     S
C1314  C1315   1.388   .     A
C1314  H1322   1.079   .     S
C1315  C488    1.401   1_556 S
C1315  H495    1.077   1_556 S
C1316  N1369   1.427   .     S
N1325  Zn1335  2.018   .     S
N1326  Zn1336  2.018   .     S
O1327  Zn1335  1.991   .     S
O1328  Zn1336  1.976   .     S
O1329  Zn1335  2.010   .     S
O1330  Zn1336  1.990   .     S
O1331  Zn1335  1.976   .     S
O1332  Zn1336  1.991   .     S
O1333  Zn1335  1.990   .     S
O1334  Zn1336  2.010   .     S
N1337  C1339   1.445   .     S
N1337  H1338   1.029   .     S
C1339  H1342   1.107   .     S
C1339  H1341   1.112   .     S
C1339  H1156   1.108   1_655 S
O1343  C1344   1.413   .     S
C1344  H1345   1.115   .     S
C1344  H1347   1.108   .     S
C1344  H1162   1.111   1_655 S
N1348  C1350   1.443   .     S
N1348  H1349   1.032   .     S
C1350  H1352   1.110   .     S
C1350  H1353   1.105   .     S
H1351  C1166   1.111   1_655 S
O1354  C1355   1.412   .     S
C1355  H1356   1.104   .     S
C1355  H1357   1.109   .     S
C1355  H1174   1.108   1_655 S
O1359  C1360   1.416   .     S
O1359  C484    1.380   1_556 S
C1360  H1361   1.115   .     S
C1360  H534    1.105   1_556 S
C1360  H1179   1.109   1_655 S
O1364  C1365   1.409   .     S
C1365  H1366   1.110   .     S
C1365  H1367   1.113   .     S
C1365  H1368   1.114   .     S
N1369  H1370   1.032   .     S
N1369  C1371   1.447   .     S
C1371  H1372   1.110   .     S
C1371  H1373   1.111   .     S
C1371  H1374   1.110   .     S
N1375  C1377   1.448   .     S
N1375  H1376   1.032   .     S
C1377  H1380   1.110   .     S
C1377  H1379   1.111   .     S
C1377  H1378   1.111   .     S
C1381  O1420   1.283   .     A
C1381  C1397   1.411   .     S
C1381  O1419   1.284   .     A
C1382  C1383   1.406   .     A
C1382  C556    1.424   1_556 S
C1382  C580    1.426   1_556 S
C1383  C1387   1.413   .     A
C1383  C1390   1.430   .     A
C1384  C1388   1.399   .     A
C1385  C1386   1.397   .     A
C1385  C556    1.423   1_556 S
C1385  C576    1.414   1_556 S
C1386  C1387   1.386   .     A
C1386  O1446   1.381   .     S
C1387  H1416   1.077   .     S
C1388  O1456   1.385   .     S
C1388  C1405   1.403   .     A
C1389  C1405   1.410   .     A
C1389  N1429   1.425   .     S
C1389  C1404   1.394   .     A
C1390  C1406   1.394   .     A
C1390  C1392   1.478   .     S
C1391  N1467   1.435   .     S
C1391  C1397   1.411   .     A
C1391  C841    1.388   1_565 S
C1392  O1422   1.282   .     A
C1392  O1421   1.316   .     A
C1393  H1409   1.082   .     S
C1393  C1394   1.393   .     A
C1394  C1402   1.407   .     S
C1394  C1395   1.391   .     A
C1395  H1410   1.085   .     S
C1396  H1411   1.084   .     S
C1396  C1397   1.394   .     A
C1396  C843    1.367   1_565 S
C1398  O1435   1.388   .     S
C1398  N1418   1.377   .     A
C1398  C1491   1.432   .     S
C1399  N1417   1.361   .     A
C1399  H1412   1.079   .     S
C1399  C1582   1.432   1_455 S
C1400  N1440   1.417   .     S
C1400  N1417   1.378   .     A
C1400  C1585   1.416   1_455 S
C1401  H1413   1.081   .     S
C1401  N1418   1.359   .     A
C1401  C1492   1.416   .     S
C1402  O1424   1.285   .     A
C1402  O1423   1.281   .     A
C1403  O1425   1.298   .     A
C1403  O1426   1.291   .     A
C1403  C1405   1.456   .     S
C1406  C1407   1.388   .     A
C1406  H1414   1.079   .     S
C1407  C580    1.401   1_556 S
C1407  H587    1.077   1_556 S
C1408  N1461   1.427   .     S
N1417  Zn1427  2.018   .     S
N1418  Zn1428  2.018   .     S
O1419  Zn1427  1.991   .     S
O1420  Zn1428  1.976   .     S
O1421  Zn1427  2.010   .     S
O1422  Zn1428  1.990   .     S
O1423  Zn1427  1.976   .     S
O1424  Zn1428  1.991   .     S
O1425  Zn1427  1.990   .     S
O1426  Zn1428  2.010   .     S
N1429  C1431   1.445   .     S
N1429  H1430   1.029   .     S
C1431  H1434   1.107   .     S
C1431  H1433   1.112   .     S
C1431  H1524   1.108   .     S
H1432  C1615   1.108   1_455 S
O1435  C1436   1.413   .     S
C1436  H1437   1.115   .     S
C1436  H1439   1.108   .     S
C1436  H1530   1.111   .     S
H1438  C1620   1.111   1_455 S
N1440  C1442   1.443   .     S
N1440  H1441   1.032   .     S
C1442  H1444   1.110   .     S
C1442  H1445   1.105   .     S
C1442  H1627   1.111   1_455 S
H1443  C1534   1.111   .     S
O1446  C1447   1.412   .     S
C1447  H1448   1.104   .     S
C1447  H1449   1.109   .     S
C1447  H1542   1.108   .     S
H1450  C1631   1.108   1_455 S
O1451  C1452   1.416   .     S
O1451  C576    1.380   1_556 S
C1452  H1453   1.115   .     S
C1452  H626    1.105   1_556 S
C1452  H1547   1.109   .     S
H1455  C1636   1.109   1_455 S
O1456  C1457   1.409   .     S
C1457  H1458   1.110   .     S
C1457  H1459   1.113   .     S
C1457  H1460   1.114   .     S
N1461  H1462   1.032   .     S
N1461  C1463   1.447   .     S
C1463  H1464   1.110   .     S
C1463  H1465   1.111   .     S
C1463  H1466   1.110   .     S
N1467  C1469   1.448   .     S
N1467  H1468   1.032   .     S
C1469  H1472   1.110   .     S
C1469  H1471   1.111   .     S
C1469  H1470   1.111   .     S
C1473  O1512   1.283   .     A
C1473  C1489   1.411   .     S
C1473  O1511   1.284   .     A
C1474  C1475   1.406   .     A
C1474  C648    1.424   1_556 S
C1474  C672    1.426   1_556 S
C1475  C1479   1.413   .     A
C1475  C1482   1.430   .     A
C1476  C1480   1.399   .     A
C1477  C1478   1.397   .     A
C1477  C648    1.423   1_556 S
C1477  C668    1.414   1_556 S
C1478  C1479   1.386   .     A
C1478  O1538   1.381   .     S
C1479  H1508   1.077   .     S
C1480  O1548   1.385   .     S
C1480  C1497   1.403   .     A
C1481  C1497   1.410   .     A
C1481  N1521   1.425   .     S
C1481  C1496   1.394   .     A
C1482  C1498   1.394   .     A
C1482  C1484   1.478   .     S
C1483  N1559   1.435   .     S
C1483  C1489   1.411   .     A
C1483  C933    1.388   1_565 S
C1484  O1514   1.282   .     A
C1484  O1513   1.316   .     A
C1485  H1501   1.082   .     S
C1485  C1486   1.393   .     A
C1486  C1494   1.407   .     S
C1486  C1487   1.391   .     A
C1487  H1502   1.085   .     S
C1488  H1503   1.084   .     S
C1488  C1489   1.394   .     A
C1488  C935    1.367   1_565 S
C1490  O1527   1.388   .     S
C1490  N1510   1.377   .     A
C1490  C1583   1.432   .     S
C1491  N1509   1.361   .     A
C1491  H1504   1.079   .     S
C1492  N1532   1.417   .     S
C1492  N1509   1.378   .     A
C1493  H1505   1.081   .     S
C1493  N1510   1.359   .     A
C1493  C1584   1.416   .     S
C1494  O1516   1.285   .     A
C1494  O1515   1.281   .     A
C1495  O1517   1.298   .     A
C1495  O1518   1.291   .     A
C1495  C1497   1.456   .     S
C1498  C1499   1.388   .     A
C1498  H1506   1.079   .     S
C1499  C672    1.401   1_556 S
C1499  H679    1.077   1_556 S
C1500  N1553   1.427   .     S
N1509  Zn1519  2.018   .     S
N1510  Zn1520  2.018   .     S
O1511  Zn1519  1.991   .     S
O1512  Zn1520  1.976   .     S
O1513  Zn1519  2.010   .     S
O1514  Zn1520  1.990   .     S
O1515  Zn1519  1.976   .     S
O1516  Zn1520  1.991   .     S
O1517  Zn1519  1.990   .     S
O1518  Zn1520  2.010   .     S
N1521  C1523   1.445   .     S
N1521  H1522   1.029   .     S
C1523  H1526   1.107   .     S
C1523  H1525   1.112   .     S
C1523  H1616   1.108   .     S
O1527  C1528   1.413   .     S
C1528  H1529   1.115   .     S
C1528  H1531   1.108   .     S
C1528  H1622   1.111   .     S
N1532  C1534   1.443   .     S
N1532  H1533   1.032   .     S
C1534  H1536   1.110   .     S
C1534  H1537   1.105   .     S
H1535  C1626   1.111   .     S
O1538  C1539   1.412   .     S
C1539  H1540   1.104   .     S
C1539  H1541   1.109   .     S
C1539  H1634   1.108   .     S
O1543  C1544   1.416   .     S
O1543  C668    1.380   1_556 S
C1544  H1545   1.115   .     S
C1544  H718    1.105   1_556 S
C1544  H1639   1.109   .     S
O1548  C1549   1.409   .     S
C1549  H1550   1.110   .     S
C1549  H1551   1.113   .     S
C1549  H1552   1.114   .     S
N1553  H1554   1.032   .     S
N1553  C1555   1.447   .     S
C1555  H1556   1.110   .     S
C1555  H1557   1.111   .     S
C1555  H1558   1.110   .     S
N1559  C1561   1.448   .     S
N1559  H1560   1.032   .     S
C1561  H1564   1.110   .     S
C1561  H1563   1.111   .     S
C1561  H1562   1.111   .     S
C1565  O1604   1.283   .     A
C1565  C1581   1.411   .     S
C1565  O1603   1.284   .     A
C1566  C1567   1.406   .     A
C1566  C740    1.424   1_556 S
C1566  C764    1.426   1_556 S
C1567  C1571   1.413   .     A
C1567  C1574   1.430   .     A
C1568  C1572   1.399   .     A
C1569  C1570   1.397   .     A
C1569  C740    1.423   1_556 S
C1569  C760    1.414   1_556 S
C1570  C1571   1.386   .     A
C1570  O1630   1.381   .     S
C1571  H1600   1.077   .     S
C1572  O1640   1.385   .     S
C1572  C1589   1.403   .     A
C1573  C1589   1.410   .     A
C1573  N1613   1.425   .     S
C1573  C1588   1.394   .     A
C1574  C1590   1.394   .     A
C1574  C1576   1.478   .     S
C1575  N1651   1.435   .     S
C1575  C1581   1.411   .     A
C1575  C1025   1.388   1_565 S
C1576  O1606   1.282   .     A
C1576  O1605   1.316   .     A
C1577  H1593   1.082   .     S
C1577  C1578   1.393   .     A
C1578  C1586   1.407   .     S
C1578  C1579   1.391   .     A
C1579  H1594   1.085   .     S
C1580  H1595   1.084   .     S
C1580  C1581   1.394   .     A
C1580  C1027   1.367   1_565 S
C1582  O1619   1.388   .     S
C1582  N1602   1.377   .     A
C1582  C1399   1.432   1_655 S
C1583  N1601   1.361   .     A
C1583  H1596   1.079   .     S
C1584  N1624   1.417   .     S
C1584  N1601   1.378   .     A
C1585  H1597   1.081   .     S
C1585  N1602   1.359   .     A
C1585  C1400   1.416   1_655 S
C1586  O1608   1.285   .     A
C1586  O1607   1.281   .     A
C1587  O1609   1.298   .     A
C1587  O1610   1.291   .     A
C1587  C1589   1.456   .     S
C1590  C1591   1.388   .     A
C1590  H1598   1.079   .     S
C1591  C764    1.401   1_556 S
C1591  H771    1.077   1_556 S
C1592  N1645   1.427   .     S
N1601  Zn1611  2.018   .     S
N1602  Zn1612  2.018   .     S
O1603  Zn1611  1.991   .     S
O1604  Zn1612  1.976   .     S
O1605  Zn1611  2.010   .     S
O1606  Zn1612  1.990   .     S
O1607  Zn1611  1.976   .     S
O1608  Zn1612  1.991   .     S
O1609  Zn1611  1.990   .     S
O1610  Zn1612  2.010   .     S
N1613  C1615   1.445   .     S
N1613  H1614   1.029   .     S
C1615  H1618   1.107   .     S
C1615  H1617   1.112   .     S
C1615  H1432   1.108   1_655 S
O1619  C1620   1.413   .     S
C1620  H1621   1.115   .     S
C1620  H1623   1.108   .     S
C1620  H1438   1.111   1_655 S
N1624  C1626   1.443   .     S
N1624  H1625   1.032   .     S
C1626  H1628   1.110   .     S
C1626  H1629   1.105   .     S
H1627  C1442   1.111   1_655 S
O1630  C1631   1.412   .     S
C1631  H1632   1.104   .     S
C1631  H1633   1.109   .     S
C1631  H1450   1.108   1_655 S
O1635  C1636   1.416   .     S
O1635  C760    1.380   1_556 S
C1636  H1637   1.115   .     S
C1636  H810    1.105   1_556 S
C1636  H1455   1.109   1_655 S
O1640  C1641   1.409   .     S
C1641  H1642   1.110   .     S
C1641  H1643   1.113   .     S
C1641  H1644   1.114   .     S
N1645  H1646   1.032   .     S
N1645  C1647   1.447   .     S
C1647  H1648   1.110   .     S
C1647  H1649   1.111   .     S
C1647  H1650   1.110   .     S
N1651  C1653   1.448   .     S
N1651  H1652   1.032   .     S
C1653  H1656   1.110   .     S
C1653  H1655   1.111   .     S
C1653  H1654   1.111   .     S
