data_str_m3_o1_o17_pcu_sym.177
_audit_creation_date              2020-01-03
_audit_creation_method            'Materials Studio'
_symmetry_space_group_name_H-M    'P1'
_symmetry_Int_Tables_number       1
_symmetry_cell_setting            triclinic
loop_
_symmetry_equiv_pos_as_xyz
  x,y,z
_cell_length_a                    32.1553
_cell_length_b                    29.8779
_cell_length_c                    29.9276
_cell_angle_alpha                 89.2576
_cell_angle_beta                  93.4922
_cell_angle_gamma                 90.0170
loop_
_atom_site_label
_atom_site_type_symbol
_atom_site_fract_x
_atom_site_fract_y
_atom_site_fract_z
_atom_site_U_iso_or_equiv
_atom_site_adp_type
_atom_site_occupancy
C1     C     0.08676   0.16664   0.25048   0.00000  Uiso   1.00
C2     C     0.24646   0.16674   0.24822   0.00000  Uiso   1.00
C3     C     0.09650   0.20284   0.01460   0.00000  Uiso   1.00
C4     C     0.24490   0.15438   0.48583   0.00000  Uiso   1.00
C5     C     0.02094   0.12618   0.24499   0.00000  Uiso   1.00
C6     C     0.31211   0.20742   0.25003   0.00000  Uiso   1.00
C7     C     0.31162   0.12641   0.24241   0.00000  Uiso   1.00
C8     C     0.02139   0.20727   0.25208   0.00000  Uiso   1.00
C9     C     0.29060   0.16689   0.24644   0.00000  Uiso   1.00
C10    C     0.04247   0.16663   0.24961   0.00000  Uiso   1.00
C11    C     0.18735   0.02359   0.28371   0.00000  Uiso   1.00
C12    C     0.14783   0.30982   0.21502   0.00000  Uiso   1.00
C13    C     0.14718   0.02441   0.21543   0.00000  Uiso   1.00
C14    C     0.18543   0.30903   0.28506   0.00000  Uiso   1.00
C15    C     0.16490   0.16705   0.16355   0.00000  Uiso   1.00
C16    C     0.16897   0.16655   0.33653   0.00000  Uiso   1.00
C17    C     0.20920   0.16486   0.41037   0.00000  Uiso   1.00
C18    C     0.12959   0.18494   0.08991   0.00000  Uiso   1.00
C19    C     0.17102   0.16676   0.38461   0.00000  Uiso   1.00
C20    C     0.16419   0.16826   0.11567   0.00000  Uiso   1.00
C21    C     0.13400   0.17508   0.40401   0.00000  Uiso   1.00
C22    C     0.20031   0.15589   0.09664   0.00000  Uiso   1.00
C23    C     0.13353   0.18186   0.44969   0.00000  Uiso   1.00
C24    C     0.20364   0.15998   0.05083   0.00000  Uiso   1.00
C25    C     0.17014   0.17292   0.47696   0.00000  Uiso   1.00
C26    C     0.16819   0.17341   0.02353   0.00000  Uiso   1.00
C27    C     0.20862   0.16388   0.45750   0.00000  Uiso   1.00
C28    C     0.13088   0.18731   0.04291   0.00000  Uiso   1.00
C29    C     0.09743   0.19825   0.46815   0.00000  Uiso   1.00
C30    C     0.24187   0.15125   0.03224   0.00000  Uiso   1.00
H31    H     0.10594   0.17819   0.38230   0.00000  Uiso   1.00
H32    H     0.22608   0.14436   0.11873   0.00000  Uiso   1.00
H33    H     0.03679   0.09441   0.24348   0.00000  Uiso   1.00
H34    H     0.29629   0.23916   0.25158   0.00000  Uiso   1.00
H35    H     0.29534   0.09497   0.23767   0.00000  Uiso   1.00
H36    H     0.03761   0.23883   0.25598   0.00000  Uiso   1.00
N37    N     0.16667   0.28573   0.25000   0.00000  Uiso   1.00
N38    N     0.16667   0.04760   0.25000   0.00000  Uiso   1.00
O39    O     0.10559   0.20487   0.24999   0.00000  Uiso   1.00
O40    O     0.22774   0.12846   0.25000   0.00000  Uiso   1.00
O41    O     0.22774   0.20487   0.25000   0.00000  Uiso   1.00
O42    O     0.10559   0.12846   0.24999   0.00000  Uiso   1.00
O43    O     0.16666   0.20489   0.18392   0.00000  Uiso   1.00
O44    O     0.16667   0.12844   0.31608   0.00000  Uiso   1.00
O45    O     0.16667   0.20489   0.31607   0.00000  Uiso   1.00
O46    O     0.16666   0.12844   0.18392   0.00000  Uiso   1.00
Zn47   Zn    0.16667   0.21771   0.25000   0.00000  Uiso   1.00
Zn48   Zn    0.16667   0.11563   0.25000   0.00000  Uiso   1.00
O49    O     0.24627   0.17291   0.39048   0.00000  Uiso   1.00
C50    C     0.25795   0.13524   0.36652   0.00000  Uiso   1.00
H51    H     0.24408   0.13749   0.33221   0.00000  Uiso   1.00
H52    H     0.24980   0.10289   0.38283   0.00000  Uiso   1.00
H53    H     0.29222   0.13587   0.36393   0.00000  Uiso   1.00
O54    O     0.09570   0.20096   0.11096   0.00000  Uiso   1.00
C55    C     0.07092   0.16499   0.12470   0.00000  Uiso   1.00
H56    H     0.08168   0.15461   0.15891   0.00000  Uiso   1.00
H57    H     0.07027   0.13602   0.10151   0.00000  Uiso   1.00
H58    H     0.03843   0.17701   0.12639   0.00000  Uiso   1.00
Br59   Br    0.05000   0.21793   0.42954   0.00000  Uiso   1.00
Br60   Br    0.29110   0.13602   0.07047   0.00000  Uiso   1.00
Br61   Br    0.04800   0.23238   0.03626   0.00000  Uiso   1.00
Br62   Br    0.29920   0.14193   0.46420   0.00000  Uiso   1.00
O63    O     0.21082   0.04624   0.31626   0.00000  Uiso   1.00
C64    C     0.25372   0.04149   0.30870   0.00000  Uiso   1.00
H65    H     0.26783   0.07464   0.30448   0.00000  Uiso   1.00
H66    H     0.26093   0.02244   0.27828   0.00000  Uiso   1.00
H67    H     0.27007   0.02605   0.33868   0.00000  Uiso   1.00
O68    O     0.13164   0.28770   0.17763   0.00000  Uiso   1.00
C69    C     0.08902   0.27803   0.18197   0.00000  Uiso   1.00
H70    H     0.08422   0.24157   0.18042   0.00000  Uiso   1.00
H71    H     0.07052   0.29244   0.15283   0.00000  Uiso   1.00
H72    H     0.07589   0.28995   0.21333   0.00000  Uiso   1.00
O73    O     0.13038   0.04777   0.17856   0.00000  Uiso   1.00
C74    C     0.08661   0.05020   0.17992   0.00000  Uiso   1.00
H75    H     0.07722   0.08551   0.18012   0.00000  Uiso   1.00
H76    H     0.07330   0.03378   0.20952   0.00000  Uiso   1.00
H77    H     0.07200   0.03591   0.14880   0.00000  Uiso   1.00
O78    O     0.19799   0.28680   0.32443   0.00000  Uiso   1.00
C79    C     0.23949   0.27159   0.32337   0.00000  Uiso   1.00
H80    H     0.25524   0.28081   0.29253   0.00000  Uiso   1.00
H81    H     0.24033   0.23478   0.32734   0.00000  Uiso   1.00
H82    H     0.25794   0.28495   0.35272   0.00000  Uiso   1.00
C83    C     0.42009   0.16664   0.25048   0.00000  Uiso   1.00
C84    C     0.57980   0.16674   0.24822   0.00000  Uiso   1.00
C85    C     0.42984   0.20284   0.01460   0.00000  Uiso   1.00
C86    C     0.57823   0.15438   0.48583   0.00000  Uiso   1.00
C87    C     0.35427   0.12618   0.24499   0.00000  Uiso   1.00
C88    C     0.64544   0.20742   0.25003   0.00000  Uiso   1.00
C89    C     0.64495   0.12641   0.24241   0.00000  Uiso   1.00
C90    C     0.35472   0.20727   0.25208   0.00000  Uiso   1.00
C91    C     0.62393   0.16689   0.24644   0.00000  Uiso   1.00
C92    C     0.37580   0.16663   0.24961   0.00000  Uiso   1.00
C93    C     0.52069   0.02359   0.28371   0.00000  Uiso   1.00
C94    C     0.48117   0.30982   0.21502   0.00000  Uiso   1.00
C95    C     0.48051   0.02441   0.21543   0.00000  Uiso   1.00
C96    C     0.51876   0.30903   0.28506   0.00000  Uiso   1.00
C97    C     0.49824   0.16705   0.16355   0.00000  Uiso   1.00
C98    C     0.50231   0.16655   0.33653   0.00000  Uiso   1.00
C99    C     0.54254   0.16486   0.41037   0.00000  Uiso   1.00
C100   C     0.46292   0.18494   0.08991   0.00000  Uiso   1.00
C101   C     0.50436   0.16676   0.38461   0.00000  Uiso   1.00
C102   C     0.49752   0.16826   0.11567   0.00000  Uiso   1.00
C103   C     0.46733   0.17508   0.40401   0.00000  Uiso   1.00
C104   C     0.53364   0.15589   0.09664   0.00000  Uiso   1.00
C105   C     0.46686   0.18186   0.44969   0.00000  Uiso   1.00
C106   C     0.53697   0.15998   0.05083   0.00000  Uiso   1.00
C107   C     0.50348   0.17292   0.47696   0.00000  Uiso   1.00
C108   C     0.50152   0.17341   0.02353   0.00000  Uiso   1.00
C109   C     0.54196   0.16388   0.45750   0.00000  Uiso   1.00
C110   C     0.46422   0.18731   0.04291   0.00000  Uiso   1.00
C111   C     0.43077   0.19825   0.46815   0.00000  Uiso   1.00
C112   C     0.57520   0.15125   0.03224   0.00000  Uiso   1.00
H113   H     0.43927   0.17819   0.38230   0.00000  Uiso   1.00
H114   H     0.55942   0.14436   0.11873   0.00000  Uiso   1.00
H115   H     0.37013   0.09441   0.24348   0.00000  Uiso   1.00
H116   H     0.62963   0.23916   0.25158   0.00000  Uiso   1.00
H117   H     0.62867   0.09497   0.23767   0.00000  Uiso   1.00
H118   H     0.37094   0.23883   0.25598   0.00000  Uiso   1.00
N119   N     0.50000   0.28573   0.25000   0.00000  Uiso   1.00
N120   N     0.50000   0.04760   0.25000   0.00000  Uiso   1.00
O121   O     0.43892   0.20487   0.24999   0.00000  Uiso   1.00
O122   O     0.56108   0.12846   0.25000   0.00000  Uiso   1.00
O123   O     0.56108   0.20487   0.25000   0.00000  Uiso   1.00
O124   O     0.43892   0.12846   0.24999   0.00000  Uiso   1.00
O125   O     0.49999   0.20489   0.18392   0.00000  Uiso   1.00
O126   O     0.50001   0.12844   0.31608   0.00000  Uiso   1.00
O127   O     0.50001   0.20489   0.31607   0.00000  Uiso   1.00
O128   O     0.49999   0.12844   0.18392   0.00000  Uiso   1.00
Zn129  Zn    0.50000   0.21771   0.25000   0.00000  Uiso   1.00
Zn130  Zn    0.50000   0.11563   0.25000   0.00000  Uiso   1.00
O131   O     0.57961   0.17291   0.39048   0.00000  Uiso   1.00
C132   C     0.59128   0.13524   0.36652   0.00000  Uiso   1.00
H133   H     0.57741   0.13749   0.33221   0.00000  Uiso   1.00
H134   H     0.58314   0.10289   0.38283   0.00000  Uiso   1.00
H135   H     0.62555   0.13587   0.36393   0.00000  Uiso   1.00
O136   O     0.42904   0.20096   0.11096   0.00000  Uiso   1.00
C137   C     0.40425   0.16499   0.12470   0.00000  Uiso   1.00
H138   H     0.41501   0.15461   0.15891   0.00000  Uiso   1.00
H139   H     0.40361   0.13602   0.10151   0.00000  Uiso   1.00
H140   H     0.37177   0.17701   0.12639   0.00000  Uiso   1.00
Br141  Br    0.38333   0.21793   0.42954   0.00000  Uiso   1.00
Br142  Br    0.62443   0.13602   0.07047   0.00000  Uiso   1.00
Br143  Br    0.38134   0.23238   0.03626   0.00000  Uiso   1.00
Br144  Br    0.63254   0.14193   0.46420   0.00000  Uiso   1.00
O145   O     0.54416   0.04624   0.31626   0.00000  Uiso   1.00
C146   C     0.58705   0.04149   0.30870   0.00000  Uiso   1.00
H147   H     0.60116   0.07464   0.30448   0.00000  Uiso   1.00
H148   H     0.59426   0.02244   0.27828   0.00000  Uiso   1.00
H149   H     0.60340   0.02605   0.33868   0.00000  Uiso   1.00
O150   O     0.46498   0.28770   0.17763   0.00000  Uiso   1.00
C151   C     0.42235   0.27803   0.18197   0.00000  Uiso   1.00
H152   H     0.41755   0.24157   0.18042   0.00000  Uiso   1.00
H153   H     0.40385   0.29244   0.15283   0.00000  Uiso   1.00
H154   H     0.40922   0.28995   0.21333   0.00000  Uiso   1.00
O155   O     0.46371   0.04777   0.17856   0.00000  Uiso   1.00
C156   C     0.41994   0.05020   0.17992   0.00000  Uiso   1.00
H157   H     0.41055   0.08551   0.18012   0.00000  Uiso   1.00
H158   H     0.40664   0.03378   0.20952   0.00000  Uiso   1.00
H159   H     0.40533   0.03591   0.14880   0.00000  Uiso   1.00
O160   O     0.53132   0.28680   0.32443   0.00000  Uiso   1.00
C161   C     0.57283   0.27159   0.32337   0.00000  Uiso   1.00
H162   H     0.58858   0.28081   0.29253   0.00000  Uiso   1.00
H163   H     0.57366   0.23478   0.32734   0.00000  Uiso   1.00
H164   H     0.59127   0.28495   0.35272   0.00000  Uiso   1.00
C165   C     0.75342   0.16664   0.25048   0.00000  Uiso   1.00
C166   C     0.91313   0.16674   0.24822   0.00000  Uiso   1.00
C167   C     0.76317   0.20284   0.01460   0.00000  Uiso   1.00
C168   C     0.91156   0.15438   0.48583   0.00000  Uiso   1.00
C169   C     0.68761   0.12618   0.24499   0.00000  Uiso   1.00
C170   C     0.97877   0.20742   0.25003   0.00000  Uiso   1.00
C171   C     0.97829   0.12641   0.24241   0.00000  Uiso   1.00
C172   C     0.68806   0.20727   0.25208   0.00000  Uiso   1.00
C173   C     0.95726   0.16689   0.24644   0.00000  Uiso   1.00
C174   C     0.70914   0.16663   0.24961   0.00000  Uiso   1.00
C175   C     0.85402   0.02359   0.28371   0.00000  Uiso   1.00
C176   C     0.81450   0.30982   0.21502   0.00000  Uiso   1.00
C177   C     0.81385   0.02441   0.21543   0.00000  Uiso   1.00
C178   C     0.85210   0.30903   0.28506   0.00000  Uiso   1.00
C179   C     0.83157   0.16705   0.16355   0.00000  Uiso   1.00
C180   C     0.83564   0.16655   0.33653   0.00000  Uiso   1.00
C181   C     0.87587   0.16486   0.41037   0.00000  Uiso   1.00
C182   C     0.79625   0.18494   0.08991   0.00000  Uiso   1.00
C183   C     0.83769   0.16676   0.38461   0.00000  Uiso   1.00
C184   C     0.83086   0.16826   0.11567   0.00000  Uiso   1.00
C185   C     0.80067   0.17508   0.40401   0.00000  Uiso   1.00
C186   C     0.86698   0.15589   0.09664   0.00000  Uiso   1.00
C187   C     0.80019   0.18186   0.44969   0.00000  Uiso   1.00
C188   C     0.87031   0.15998   0.05083   0.00000  Uiso   1.00
C189   C     0.83681   0.17292   0.47696   0.00000  Uiso   1.00
C190   C     0.83485   0.17341   0.02353   0.00000  Uiso   1.00
C191   C     0.87529   0.16388   0.45750   0.00000  Uiso   1.00
C192   C     0.79755   0.18731   0.04291   0.00000  Uiso   1.00
C193   C     0.76410   0.19825   0.46815   0.00000  Uiso   1.00
C194   C     0.90854   0.15125   0.03224   0.00000  Uiso   1.00
H195   H     0.77261   0.17819   0.38230   0.00000  Uiso   1.00
H196   H     0.89275   0.14436   0.11873   0.00000  Uiso   1.00
H197   H     0.70346   0.09441   0.24348   0.00000  Uiso   1.00
H198   H     0.96296   0.23916   0.25158   0.00000  Uiso   1.00
H199   H     0.96200   0.09497   0.23767   0.00000  Uiso   1.00
H200   H     0.70428   0.23883   0.25598   0.00000  Uiso   1.00
N201   N     0.83333   0.28573   0.25000   0.00000  Uiso   1.00
N202   N     0.83333   0.04760   0.25000   0.00000  Uiso   1.00
O203   O     0.77226   0.20487   0.24999   0.00000  Uiso   1.00
O204   O     0.89441   0.12846   0.25000   0.00000  Uiso   1.00
O205   O     0.89441   0.20487   0.25000   0.00000  Uiso   1.00
O206   O     0.77226   0.12846   0.24999   0.00000  Uiso   1.00
O207   O     0.83333   0.20489   0.18392   0.00000  Uiso   1.00
O208   O     0.83334   0.12844   0.31608   0.00000  Uiso   1.00
O209   O     0.83334   0.20489   0.31607   0.00000  Uiso   1.00
O210   O     0.83333   0.12844   0.18392   0.00000  Uiso   1.00
Zn211  Zn    0.83333   0.21771   0.25000   0.00000  Uiso   1.00
Zn212  Zn    0.83333   0.11563   0.25000   0.00000  Uiso   1.00
O213   O     0.91294   0.17291   0.39048   0.00000  Uiso   1.00
C214   C     0.92461   0.13524   0.36652   0.00000  Uiso   1.00
H215   H     0.91075   0.13749   0.33221   0.00000  Uiso   1.00
H216   H     0.91647   0.10289   0.38283   0.00000  Uiso   1.00
H217   H     0.95888   0.13587   0.36393   0.00000  Uiso   1.00
O218   O     0.76237   0.20096   0.11096   0.00000  Uiso   1.00
C219   C     0.73759   0.16499   0.12470   0.00000  Uiso   1.00
H220   H     0.74835   0.15461   0.15891   0.00000  Uiso   1.00
H221   H     0.73694   0.13602   0.10151   0.00000  Uiso   1.00
H222   H     0.70510   0.17701   0.12639   0.00000  Uiso   1.00
Br223  Br    0.71667   0.21793   0.42954   0.00000  Uiso   1.00
Br224  Br    0.95776   0.13602   0.07047   0.00000  Uiso   1.00
Br225  Br    0.71467   0.23238   0.03626   0.00000  Uiso   1.00
Br226  Br    0.96587   0.14193   0.46420   0.00000  Uiso   1.00
O227   O     0.87749   0.04624   0.31626   0.00000  Uiso   1.00
C228   C     0.92039   0.04149   0.30870   0.00000  Uiso   1.00
H229   H     0.93449   0.07464   0.30448   0.00000  Uiso   1.00
H230   H     0.92759   0.02244   0.27828   0.00000  Uiso   1.00
H231   H     0.93673   0.02605   0.33868   0.00000  Uiso   1.00
O232   O     0.79831   0.28770   0.17763   0.00000  Uiso   1.00
C233   C     0.75568   0.27803   0.18197   0.00000  Uiso   1.00
H234   H     0.75089   0.24157   0.18042   0.00000  Uiso   1.00
H235   H     0.73718   0.29244   0.15283   0.00000  Uiso   1.00
H236   H     0.74255   0.28995   0.21333   0.00000  Uiso   1.00
O237   O     0.79705   0.04777   0.17856   0.00000  Uiso   1.00
C238   C     0.75328   0.05020   0.17992   0.00000  Uiso   1.00
H239   H     0.74389   0.08551   0.18012   0.00000  Uiso   1.00
H240   H     0.73997   0.03378   0.20952   0.00000  Uiso   1.00
H241   H     0.73866   0.03591   0.14880   0.00000  Uiso   1.00
O242   O     0.86466   0.28680   0.32443   0.00000  Uiso   1.00
C243   C     0.90616   0.27159   0.32337   0.00000  Uiso   1.00
H244   H     0.92191   0.28081   0.29253   0.00000  Uiso   1.00
H245   H     0.90699   0.23478   0.32734   0.00000  Uiso   1.00
H246   H     0.92460   0.28495   0.35272   0.00000  Uiso   1.00
C247   C     0.08676   0.49997   0.25048   0.00000  Uiso   1.00
C248   C     0.24646   0.50007   0.24822   0.00000  Uiso   1.00
C249   C     0.09650   0.53617   0.01460   0.00000  Uiso   1.00
C250   C     0.24490   0.48771   0.48583   0.00000  Uiso   1.00
C251   C     0.02094   0.45951   0.24499   0.00000  Uiso   1.00
C252   C     0.31211   0.54075   0.25003   0.00000  Uiso   1.00
C253   C     0.31162   0.45975   0.24241   0.00000  Uiso   1.00
C254   C     0.02139   0.54060   0.25208   0.00000  Uiso   1.00
C255   C     0.29060   0.50022   0.24644   0.00000  Uiso   1.00
C256   C     0.04247   0.49997   0.24961   0.00000  Uiso   1.00
C257   C     0.18735   0.35693   0.28371   0.00000  Uiso   1.00
C258   C     0.14783   0.64315   0.21502   0.00000  Uiso   1.00
C259   C     0.14718   0.35775   0.21543   0.00000  Uiso   1.00
C260   C     0.18543   0.64237   0.28506   0.00000  Uiso   1.00
C261   C     0.16490   0.50038   0.16355   0.00000  Uiso   1.00
C262   C     0.16897   0.49989   0.33653   0.00000  Uiso   1.00
C263   C     0.20920   0.49820   0.41037   0.00000  Uiso   1.00
C264   C     0.12959   0.51827   0.08991   0.00000  Uiso   1.00
C265   C     0.17102   0.50010   0.38461   0.00000  Uiso   1.00
C266   C     0.16419   0.50159   0.11567   0.00000  Uiso   1.00
C267   C     0.13400   0.50841   0.40401   0.00000  Uiso   1.00
C268   C     0.20031   0.48922   0.09664   0.00000  Uiso   1.00
C269   C     0.13353   0.51519   0.44969   0.00000  Uiso   1.00
C270   C     0.20364   0.49331   0.05083   0.00000  Uiso   1.00
C271   C     0.17014   0.50626   0.47696   0.00000  Uiso   1.00
C272   C     0.16819   0.50675   0.02353   0.00000  Uiso   1.00
C273   C     0.20862   0.49721   0.45750   0.00000  Uiso   1.00
C274   C     0.13088   0.52065   0.04291   0.00000  Uiso   1.00
C275   C     0.09743   0.53158   0.46815   0.00000  Uiso   1.00
C276   C     0.24187   0.48458   0.03224   0.00000  Uiso   1.00
H277   H     0.10594   0.51153   0.38230   0.00000  Uiso   1.00
H278   H     0.22608   0.47769   0.11873   0.00000  Uiso   1.00
H279   H     0.03679   0.42774   0.24348   0.00000  Uiso   1.00
H280   H     0.29629   0.57249   0.25158   0.00000  Uiso   1.00
H281   H     0.29534   0.42831   0.23767   0.00000  Uiso   1.00
H282   H     0.03761   0.57216   0.25598   0.00000  Uiso   1.00
N283   N     0.16667   0.61907   0.25000   0.00000  Uiso   1.00
N284   N     0.16667   0.38093   0.25000   0.00000  Uiso   1.00
O285   O     0.10559   0.53821   0.24999   0.00000  Uiso   1.00
O286   O     0.22774   0.46179   0.25000   0.00000  Uiso   1.00
O287   O     0.22774   0.53821   0.25000   0.00000  Uiso   1.00
O288   O     0.10559   0.46179   0.24999   0.00000  Uiso   1.00
O289   O     0.16666   0.53823   0.18392   0.00000  Uiso   1.00
O290   O     0.16667   0.46177   0.31608   0.00000  Uiso   1.00
O291   O     0.16667   0.53823   0.31607   0.00000  Uiso   1.00
O292   O     0.16666   0.46177   0.18392   0.00000  Uiso   1.00
Zn293  Zn    0.16667   0.55104   0.25000   0.00000  Uiso   1.00
Zn294  Zn    0.16667   0.44896   0.25000   0.00000  Uiso   1.00
O295   O     0.24627   0.50625   0.39048   0.00000  Uiso   1.00
C296   C     0.25795   0.46857   0.36652   0.00000  Uiso   1.00
H297   H     0.24408   0.47083   0.33221   0.00000  Uiso   1.00
H298   H     0.24980   0.43622   0.38283   0.00000  Uiso   1.00
H299   H     0.29222   0.46921   0.36393   0.00000  Uiso   1.00
O300   O     0.09570   0.53429   0.11096   0.00000  Uiso   1.00
C301   C     0.07092   0.49832   0.12470   0.00000  Uiso   1.00
H302   H     0.08168   0.48794   0.15891   0.00000  Uiso   1.00
H303   H     0.07027   0.46935   0.10151   0.00000  Uiso   1.00
H304   H     0.03843   0.51034   0.12639   0.00000  Uiso   1.00
Br305  Br    0.05000   0.55126   0.42954   0.00000  Uiso   1.00
Br306  Br    0.29110   0.46935   0.07047   0.00000  Uiso   1.00
Br307  Br    0.04800   0.56572   0.03626   0.00000  Uiso   1.00
Br308  Br    0.29920   0.47526   0.46420   0.00000  Uiso   1.00
O309   O     0.21082   0.37957   0.31626   0.00000  Uiso   1.00
C310   C     0.25372   0.37483   0.30870   0.00000  Uiso   1.00
H311   H     0.26783   0.40797   0.30448   0.00000  Uiso   1.00
H312   H     0.26093   0.35578   0.27828   0.00000  Uiso   1.00
H313   H     0.27007   0.35938   0.33868   0.00000  Uiso   1.00
O314   O     0.13164   0.62103   0.17763   0.00000  Uiso   1.00
C315   C     0.08902   0.61136   0.18197   0.00000  Uiso   1.00
H316   H     0.08422   0.57490   0.18042   0.00000  Uiso   1.00
H317   H     0.07052   0.62577   0.15283   0.00000  Uiso   1.00
H318   H     0.07589   0.62329   0.21333   0.00000  Uiso   1.00
O319   O     0.13038   0.38110   0.17856   0.00000  Uiso   1.00
C320   C     0.08661   0.38353   0.17992   0.00000  Uiso   1.00
H321   H     0.07722   0.41884   0.18012   0.00000  Uiso   1.00
H322   H     0.07330   0.36711   0.20952   0.00000  Uiso   1.00
H323   H     0.07200   0.36924   0.14880   0.00000  Uiso   1.00
O324   O     0.19799   0.62013   0.32443   0.00000  Uiso   1.00
C325   C     0.23949   0.60492   0.32337   0.00000  Uiso   1.00
H326   H     0.25524   0.61414   0.29253   0.00000  Uiso   1.00
H327   H     0.24033   0.56811   0.32734   0.00000  Uiso   1.00
H328   H     0.25794   0.61828   0.35272   0.00000  Uiso   1.00
C329   C     0.42009   0.49997   0.25048   0.00000  Uiso   1.00
C330   C     0.57980   0.50007   0.24822   0.00000  Uiso   1.00
C331   C     0.42984   0.53617   0.01460   0.00000  Uiso   1.00
C332   C     0.57823   0.48771   0.48583   0.00000  Uiso   1.00
C333   C     0.35427   0.45951   0.24499   0.00000  Uiso   1.00
C334   C     0.64544   0.54075   0.25003   0.00000  Uiso   1.00
C335   C     0.64495   0.45975   0.24241   0.00000  Uiso   1.00
C336   C     0.35472   0.54060   0.25208   0.00000  Uiso   1.00
C337   C     0.62393   0.50022   0.24644   0.00000  Uiso   1.00
C338   C     0.37580   0.49997   0.24961   0.00000  Uiso   1.00
C339   C     0.52069   0.35693   0.28371   0.00000  Uiso   1.00
C340   C     0.48117   0.64315   0.21502   0.00000  Uiso   1.00
C341   C     0.48051   0.35775   0.21543   0.00000  Uiso   1.00
C342   C     0.51876   0.64237   0.28506   0.00000  Uiso   1.00
C343   C     0.49824   0.50038   0.16355   0.00000  Uiso   1.00
C344   C     0.50231   0.49989   0.33653   0.00000  Uiso   1.00
C345   C     0.54254   0.49820   0.41037   0.00000  Uiso   1.00
C346   C     0.46292   0.51827   0.08991   0.00000  Uiso   1.00
C347   C     0.50436   0.50010   0.38461   0.00000  Uiso   1.00
C348   C     0.49752   0.50159   0.11567   0.00000  Uiso   1.00
C349   C     0.46733   0.50841   0.40401   0.00000  Uiso   1.00
C350   C     0.53364   0.48922   0.09664   0.00000  Uiso   1.00
C351   C     0.46686   0.51519   0.44969   0.00000  Uiso   1.00
C352   C     0.53697   0.49331   0.05083   0.00000  Uiso   1.00
C353   C     0.50348   0.50626   0.47696   0.00000  Uiso   1.00
C354   C     0.50152   0.50675   0.02353   0.00000  Uiso   1.00
C355   C     0.54196   0.49721   0.45750   0.00000  Uiso   1.00
C356   C     0.46422   0.52065   0.04291   0.00000  Uiso   1.00
C357   C     0.43077   0.53158   0.46815   0.00000  Uiso   1.00
C358   C     0.57520   0.48458   0.03224   0.00000  Uiso   1.00
H359   H     0.43927   0.51153   0.38230   0.00000  Uiso   1.00
H360   H     0.55942   0.47769   0.11873   0.00000  Uiso   1.00
H361   H     0.37013   0.42774   0.24348   0.00000  Uiso   1.00
H362   H     0.62963   0.57249   0.25158   0.00000  Uiso   1.00
H363   H     0.62867   0.42831   0.23767   0.00000  Uiso   1.00
H364   H     0.37094   0.57216   0.25598   0.00000  Uiso   1.00
N365   N     0.50000   0.61907   0.25000   0.00000  Uiso   1.00
N366   N     0.50000   0.38093   0.25000   0.00000  Uiso   1.00
O367   O     0.43892   0.53821   0.24999   0.00000  Uiso   1.00
O368   O     0.56108   0.46179   0.25000   0.00000  Uiso   1.00
O369   O     0.56108   0.53821   0.25000   0.00000  Uiso   1.00
O370   O     0.43892   0.46179   0.24999   0.00000  Uiso   1.00
O371   O     0.49999   0.53823   0.18392   0.00000  Uiso   1.00
O372   O     0.50001   0.46177   0.31608   0.00000  Uiso   1.00
O373   O     0.50001   0.53823   0.31607   0.00000  Uiso   1.00
O374   O     0.49999   0.46177   0.18392   0.00000  Uiso   1.00
Zn375  Zn    0.50000   0.55104   0.25000   0.00000  Uiso   1.00
Zn376  Zn    0.50000   0.44896   0.25000   0.00000  Uiso   1.00
O377   O     0.57961   0.50625   0.39048   0.00000  Uiso   1.00
C378   C     0.59128   0.46857   0.36652   0.00000  Uiso   1.00
H379   H     0.57741   0.47083   0.33221   0.00000  Uiso   1.00
H380   H     0.58314   0.43622   0.38283   0.00000  Uiso   1.00
H381   H     0.62555   0.46921   0.36393   0.00000  Uiso   1.00
O382   O     0.42904   0.53429   0.11096   0.00000  Uiso   1.00
C383   C     0.40425   0.49832   0.12470   0.00000  Uiso   1.00
H384   H     0.41501   0.48794   0.15891   0.00000  Uiso   1.00
H385   H     0.40361   0.46935   0.10151   0.00000  Uiso   1.00
H386   H     0.37177   0.51034   0.12639   0.00000  Uiso   1.00
Br387  Br    0.38333   0.55126   0.42954   0.00000  Uiso   1.00
Br388  Br    0.62443   0.46935   0.07047   0.00000  Uiso   1.00
Br389  Br    0.38134   0.56572   0.03626   0.00000  Uiso   1.00
Br390  Br    0.63254   0.47526   0.46420   0.00000  Uiso   1.00
O391   O     0.54416   0.37957   0.31626   0.00000  Uiso   1.00
C392   C     0.58705   0.37483   0.30870   0.00000  Uiso   1.00
H393   H     0.60116   0.40797   0.30448   0.00000  Uiso   1.00
H394   H     0.59426   0.35578   0.27828   0.00000  Uiso   1.00
H395   H     0.60340   0.35938   0.33868   0.00000  Uiso   1.00
O396   O     0.46498   0.62103   0.17763   0.00000  Uiso   1.00
C397   C     0.42235   0.61136   0.18197   0.00000  Uiso   1.00
H398   H     0.41755   0.57490   0.18042   0.00000  Uiso   1.00
H399   H     0.40385   0.62577   0.15283   0.00000  Uiso   1.00
H400   H     0.40922   0.62329   0.21333   0.00000  Uiso   1.00
O401   O     0.46371   0.38110   0.17856   0.00000  Uiso   1.00
C402   C     0.41994   0.38353   0.17992   0.00000  Uiso   1.00
H403   H     0.41055   0.41884   0.18012   0.00000  Uiso   1.00
H404   H     0.40664   0.36711   0.20952   0.00000  Uiso   1.00
H405   H     0.40533   0.36924   0.14880   0.00000  Uiso   1.00
O406   O     0.53132   0.62013   0.32443   0.00000  Uiso   1.00
C407   C     0.57283   0.60492   0.32337   0.00000  Uiso   1.00
H408   H     0.58858   0.61414   0.29253   0.00000  Uiso   1.00
H409   H     0.57366   0.56811   0.32734   0.00000  Uiso   1.00
H410   H     0.59127   0.61828   0.35272   0.00000  Uiso   1.00
C411   C     0.75342   0.49997   0.25048   0.00000  Uiso   1.00
C412   C     0.91313   0.50007   0.24822   0.00000  Uiso   1.00
C413   C     0.76317   0.53617   0.01460   0.00000  Uiso   1.00
C414   C     0.91156   0.48771   0.48583   0.00000  Uiso   1.00
C415   C     0.68761   0.45951   0.24499   0.00000  Uiso   1.00
C416   C     0.97877   0.54075   0.25003   0.00000  Uiso   1.00
C417   C     0.97829   0.45975   0.24241   0.00000  Uiso   1.00
C418   C     0.68806   0.54060   0.25208   0.00000  Uiso   1.00
C419   C     0.95726   0.50022   0.24644   0.00000  Uiso   1.00
C420   C     0.70914   0.49997   0.24961   0.00000  Uiso   1.00
C421   C     0.85402   0.35693   0.28371   0.00000  Uiso   1.00
C422   C     0.81450   0.64315   0.21502   0.00000  Uiso   1.00
C423   C     0.81385   0.35775   0.21543   0.00000  Uiso   1.00
C424   C     0.85210   0.64237   0.28506   0.00000  Uiso   1.00
C425   C     0.83157   0.50038   0.16355   0.00000  Uiso   1.00
C426   C     0.83564   0.49989   0.33653   0.00000  Uiso   1.00
C427   C     0.87587   0.49820   0.41037   0.00000  Uiso   1.00
C428   C     0.79625   0.51827   0.08991   0.00000  Uiso   1.00
C429   C     0.83769   0.50010   0.38461   0.00000  Uiso   1.00
C430   C     0.83086   0.50159   0.11567   0.00000  Uiso   1.00
C431   C     0.80067   0.50841   0.40401   0.00000  Uiso   1.00
C432   C     0.86698   0.48922   0.09664   0.00000  Uiso   1.00
C433   C     0.80019   0.51519   0.44969   0.00000  Uiso   1.00
C434   C     0.87031   0.49331   0.05083   0.00000  Uiso   1.00
C435   C     0.83681   0.50626   0.47696   0.00000  Uiso   1.00
C436   C     0.83485   0.50675   0.02353   0.00000  Uiso   1.00
C437   C     0.87529   0.49721   0.45750   0.00000  Uiso   1.00
C438   C     0.79755   0.52065   0.04291   0.00000  Uiso   1.00
C439   C     0.76410   0.53158   0.46815   0.00000  Uiso   1.00
C440   C     0.90854   0.48458   0.03224   0.00000  Uiso   1.00
H441   H     0.77261   0.51153   0.38230   0.00000  Uiso   1.00
H442   H     0.89275   0.47769   0.11873   0.00000  Uiso   1.00
H443   H     0.70346   0.42774   0.24348   0.00000  Uiso   1.00
H444   H     0.96296   0.57249   0.25158   0.00000  Uiso   1.00
H445   H     0.96200   0.42831   0.23767   0.00000  Uiso   1.00
H446   H     0.70428   0.57216   0.25598   0.00000  Uiso   1.00
N447   N     0.83333   0.61907   0.25000   0.00000  Uiso   1.00
N448   N     0.83333   0.38093   0.25000   0.00000  Uiso   1.00
O449   O     0.77226   0.53821   0.24999   0.00000  Uiso   1.00
O450   O     0.89441   0.46179   0.25000   0.00000  Uiso   1.00
O451   O     0.89441   0.53821   0.25000   0.00000  Uiso   1.00
O452   O     0.77226   0.46179   0.24999   0.00000  Uiso   1.00
O453   O     0.83333   0.53823   0.18392   0.00000  Uiso   1.00
O454   O     0.83334   0.46177   0.31608   0.00000  Uiso   1.00
O455   O     0.83334   0.53823   0.31607   0.00000  Uiso   1.00
O456   O     0.83333   0.46177   0.18392   0.00000  Uiso   1.00
Zn457  Zn    0.83333   0.55104   0.25000   0.00000  Uiso   1.00
Zn458  Zn    0.83333   0.44896   0.25000   0.00000  Uiso   1.00
O459   O     0.91294   0.50625   0.39048   0.00000  Uiso   1.00
C460   C     0.92461   0.46857   0.36652   0.00000  Uiso   1.00
H461   H     0.91075   0.47083   0.33221   0.00000  Uiso   1.00
H462   H     0.91647   0.43622   0.38283   0.00000  Uiso   1.00
H463   H     0.95888   0.46921   0.36393   0.00000  Uiso   1.00
O464   O     0.76237   0.53429   0.11096   0.00000  Uiso   1.00
C465   C     0.73759   0.49832   0.12470   0.00000  Uiso   1.00
H466   H     0.74835   0.48794   0.15891   0.00000  Uiso   1.00
H467   H     0.73694   0.46935   0.10151   0.00000  Uiso   1.00
H468   H     0.70510   0.51034   0.12639   0.00000  Uiso   1.00
Br469  Br    0.71667   0.55126   0.42954   0.00000  Uiso   1.00
Br470  Br    0.95776   0.46935   0.07047   0.00000  Uiso   1.00
Br471  Br    0.71467   0.56572   0.03626   0.00000  Uiso   1.00
Br472  Br    0.96587   0.47526   0.46420   0.00000  Uiso   1.00
O473   O     0.87749   0.37957   0.31626   0.00000  Uiso   1.00
C474   C     0.92039   0.37483   0.30870   0.00000  Uiso   1.00
H475   H     0.93449   0.40797   0.30448   0.00000  Uiso   1.00
H476   H     0.92759   0.35578   0.27828   0.00000  Uiso   1.00
H477   H     0.93673   0.35938   0.33868   0.00000  Uiso   1.00
O478   O     0.79831   0.62103   0.17763   0.00000  Uiso   1.00
C479   C     0.75568   0.61136   0.18197   0.00000  Uiso   1.00
H480   H     0.75089   0.57490   0.18042   0.00000  Uiso   1.00
H481   H     0.73718   0.62577   0.15283   0.00000  Uiso   1.00
H482   H     0.74255   0.62329   0.21333   0.00000  Uiso   1.00
O483   O     0.79705   0.38110   0.17856   0.00000  Uiso   1.00
C484   C     0.75328   0.38353   0.17992   0.00000  Uiso   1.00
H485   H     0.74389   0.41884   0.18012   0.00000  Uiso   1.00
H486   H     0.73997   0.36711   0.20952   0.00000  Uiso   1.00
H487   H     0.73866   0.36924   0.14880   0.00000  Uiso   1.00
O488   O     0.86466   0.62013   0.32443   0.00000  Uiso   1.00
C489   C     0.90616   0.60492   0.32337   0.00000  Uiso   1.00
H490   H     0.92191   0.61414   0.29253   0.00000  Uiso   1.00
H491   H     0.90699   0.56811   0.32734   0.00000  Uiso   1.00
H492   H     0.92460   0.61828   0.35272   0.00000  Uiso   1.00
C493   C     0.08676   0.83331   0.25048   0.00000  Uiso   1.00
C494   C     0.24646   0.83340   0.24822   0.00000  Uiso   1.00
C495   C     0.09650   0.86951   0.01460   0.00000  Uiso   1.00
C496   C     0.24490   0.82104   0.48583   0.00000  Uiso   1.00
C497   C     0.02094   0.79284   0.24499   0.00000  Uiso   1.00
C498   C     0.31211   0.87409   0.25003   0.00000  Uiso   1.00
C499   C     0.31162   0.79308   0.24241   0.00000  Uiso   1.00
C500   C     0.02139   0.87393   0.25208   0.00000  Uiso   1.00
C501   C     0.29060   0.83356   0.24644   0.00000  Uiso   1.00
C502   C     0.04247   0.83330   0.24961   0.00000  Uiso   1.00
C503   C     0.18735   0.69026   0.28371   0.00000  Uiso   1.00
C504   C     0.14783   0.97648   0.21502   0.00000  Uiso   1.00
C505   C     0.14718   0.69108   0.21543   0.00000  Uiso   1.00
C506   C     0.18543   0.97570   0.28506   0.00000  Uiso   1.00
C507   C     0.16490   0.83371   0.16355   0.00000  Uiso   1.00
C508   C     0.16897   0.83322   0.33653   0.00000  Uiso   1.00
C509   C     0.20920   0.83153   0.41037   0.00000  Uiso   1.00
C510   C     0.12959   0.85161   0.08991   0.00000  Uiso   1.00
C511   C     0.17102   0.83343   0.38461   0.00000  Uiso   1.00
C512   C     0.16419   0.83492   0.11567   0.00000  Uiso   1.00
C513   C     0.13400   0.84175   0.40401   0.00000  Uiso   1.00
C514   C     0.20031   0.82256   0.09664   0.00000  Uiso   1.00
C515   C     0.13353   0.84853   0.44969   0.00000  Uiso   1.00
C516   C     0.20364   0.82665   0.05083   0.00000  Uiso   1.00
C517   C     0.17014   0.83959   0.47696   0.00000  Uiso   1.00
C518   C     0.16819   0.84008   0.02353   0.00000  Uiso   1.00
C519   C     0.20862   0.83055   0.45750   0.00000  Uiso   1.00
C520   C     0.13088   0.85398   0.04291   0.00000  Uiso   1.00
C521   C     0.09743   0.86491   0.46815   0.00000  Uiso   1.00
C522   C     0.24187   0.81792   0.03224   0.00000  Uiso   1.00
H523   H     0.10594   0.84486   0.38230   0.00000  Uiso   1.00
H524   H     0.22608   0.81103   0.11873   0.00000  Uiso   1.00
H525   H     0.03679   0.76107   0.24348   0.00000  Uiso   1.00
H526   H     0.29629   0.90583   0.25158   0.00000  Uiso   1.00
H527   H     0.29534   0.76164   0.23767   0.00000  Uiso   1.00
H528   H     0.03761   0.90549   0.25598   0.00000  Uiso   1.00
N529   N     0.16667   0.95240   0.25000   0.00000  Uiso   1.00
N530   N     0.16667   0.71427   0.25000   0.00000  Uiso   1.00
O531   O     0.10559   0.87154   0.24999   0.00000  Uiso   1.00
O532   O     0.22774   0.79513   0.25000   0.00000  Uiso   1.00
O533   O     0.22774   0.87154   0.25000   0.00000  Uiso   1.00
O534   O     0.10559   0.79513   0.24999   0.00000  Uiso   1.00
O535   O     0.16666   0.87156   0.18392   0.00000  Uiso   1.00
O536   O     0.16667   0.79511   0.31608   0.00000  Uiso   1.00
O537   O     0.16667   0.87156   0.31607   0.00000  Uiso   1.00
O538   O     0.16666   0.79511   0.18392   0.00000  Uiso   1.00
Zn539  Zn    0.16667   0.88437   0.25000   0.00000  Uiso   1.00
Zn540  Zn    0.16667   0.78229   0.25000   0.00000  Uiso   1.00
O541   O     0.24627   0.83958   0.39048   0.00000  Uiso   1.00
C542   C     0.25795   0.80190   0.36652   0.00000  Uiso   1.00
H543   H     0.24408   0.80416   0.33221   0.00000  Uiso   1.00
H544   H     0.24980   0.76955   0.38283   0.00000  Uiso   1.00
H545   H     0.29222   0.80254   0.36393   0.00000  Uiso   1.00
O546   O     0.09570   0.86763   0.11096   0.00000  Uiso   1.00
C547   C     0.07092   0.83165   0.12470   0.00000  Uiso   1.00
H548   H     0.08168   0.82128   0.15891   0.00000  Uiso   1.00
H549   H     0.07027   0.80268   0.10151   0.00000  Uiso   1.00
H550   H     0.03843   0.84367   0.12639   0.00000  Uiso   1.00
Br551  Br    0.05000   0.88459   0.42954   0.00000  Uiso   1.00
Br552  Br    0.29110   0.80269   0.07047   0.00000  Uiso   1.00
Br553  Br    0.04800   0.89905   0.03626   0.00000  Uiso   1.00
Br554  Br    0.29920   0.80859   0.46420   0.00000  Uiso   1.00
O555   O     0.21082   0.71291   0.31626   0.00000  Uiso   1.00
C556   C     0.25372   0.70816   0.30870   0.00000  Uiso   1.00
H557   H     0.26783   0.74131   0.30448   0.00000  Uiso   1.00
H558   H     0.26093   0.68911   0.27828   0.00000  Uiso   1.00
H559   H     0.27007   0.69271   0.33868   0.00000  Uiso   1.00
O560   O     0.13164   0.95437   0.17763   0.00000  Uiso   1.00
C561   C     0.08902   0.94469   0.18197   0.00000  Uiso   1.00
H562   H     0.08422   0.90823   0.18042   0.00000  Uiso   1.00
H563   H     0.07052   0.95911   0.15283   0.00000  Uiso   1.00
H564   H     0.07589   0.95662   0.21333   0.00000  Uiso   1.00
O565   O     0.13038   0.71443   0.17856   0.00000  Uiso   1.00
C566   C     0.08661   0.71687   0.17992   0.00000  Uiso   1.00
H567   H     0.07722   0.75218   0.18012   0.00000  Uiso   1.00
H568   H     0.07330   0.70045   0.20952   0.00000  Uiso   1.00
H569   H     0.07200   0.70258   0.14880   0.00000  Uiso   1.00
O570   O     0.19799   0.95347   0.32443   0.00000  Uiso   1.00
C571   C     0.23949   0.93826   0.32337   0.00000  Uiso   1.00
H572   H     0.25524   0.94748   0.29253   0.00000  Uiso   1.00
H573   H     0.24033   0.90144   0.32734   0.00000  Uiso   1.00
H574   H     0.25794   0.95161   0.35272   0.00000  Uiso   1.00
C575   C     0.42009   0.83331   0.25048   0.00000  Uiso   1.00
C576   C     0.57980   0.83340   0.24822   0.00000  Uiso   1.00
C577   C     0.42984   0.86951   0.01460   0.00000  Uiso   1.00
C578   C     0.57823   0.82104   0.48583   0.00000  Uiso   1.00
C579   C     0.35427   0.79284   0.24499   0.00000  Uiso   1.00
C580   C     0.64544   0.87409   0.25003   0.00000  Uiso   1.00
C581   C     0.64495   0.79308   0.24241   0.00000  Uiso   1.00
C582   C     0.35472   0.87393   0.25208   0.00000  Uiso   1.00
C583   C     0.62393   0.83356   0.24644   0.00000  Uiso   1.00
C584   C     0.37580   0.83330   0.24961   0.00000  Uiso   1.00
C585   C     0.52069   0.69026   0.28371   0.00000  Uiso   1.00
C586   C     0.48117   0.97648   0.21502   0.00000  Uiso   1.00
C587   C     0.48051   0.69108   0.21543   0.00000  Uiso   1.00
C588   C     0.51876   0.97570   0.28506   0.00000  Uiso   1.00
C589   C     0.49824   0.83371   0.16355   0.00000  Uiso   1.00
C590   C     0.50231   0.83322   0.33653   0.00000  Uiso   1.00
C591   C     0.54254   0.83153   0.41037   0.00000  Uiso   1.00
C592   C     0.46292   0.85161   0.08991   0.00000  Uiso   1.00
C593   C     0.50436   0.83343   0.38461   0.00000  Uiso   1.00
C594   C     0.49752   0.83492   0.11567   0.00000  Uiso   1.00
C595   C     0.46733   0.84175   0.40401   0.00000  Uiso   1.00
C596   C     0.53364   0.82256   0.09664   0.00000  Uiso   1.00
C597   C     0.46686   0.84853   0.44969   0.00000  Uiso   1.00
C598   C     0.53697   0.82665   0.05083   0.00000  Uiso   1.00
C599   C     0.50348   0.83959   0.47696   0.00000  Uiso   1.00
C600   C     0.50152   0.84008   0.02353   0.00000  Uiso   1.00
C601   C     0.54196   0.83055   0.45750   0.00000  Uiso   1.00
C602   C     0.46422   0.85398   0.04291   0.00000  Uiso   1.00
C603   C     0.43077   0.86491   0.46815   0.00000  Uiso   1.00
C604   C     0.57520   0.81792   0.03224   0.00000  Uiso   1.00
H605   H     0.43927   0.84486   0.38230   0.00000  Uiso   1.00
H606   H     0.55942   0.81103   0.11873   0.00000  Uiso   1.00
H607   H     0.37013   0.76107   0.24348   0.00000  Uiso   1.00
H608   H     0.62963   0.90583   0.25158   0.00000  Uiso   1.00
H609   H     0.62867   0.76164   0.23767   0.00000  Uiso   1.00
H610   H     0.37094   0.90549   0.25598   0.00000  Uiso   1.00
N611   N     0.50000   0.95240   0.25000   0.00000  Uiso   1.00
N612   N     0.50000   0.71427   0.25000   0.00000  Uiso   1.00
O613   O     0.43892   0.87154   0.24999   0.00000  Uiso   1.00
O614   O     0.56108   0.79513   0.25000   0.00000  Uiso   1.00
O615   O     0.56108   0.87154   0.25000   0.00000  Uiso   1.00
O616   O     0.43892   0.79513   0.24999   0.00000  Uiso   1.00
O617   O     0.49999   0.87156   0.18392   0.00000  Uiso   1.00
O618   O     0.50001   0.79511   0.31608   0.00000  Uiso   1.00
O619   O     0.50001   0.87156   0.31607   0.00000  Uiso   1.00
O620   O     0.49999   0.79511   0.18392   0.00000  Uiso   1.00
Zn621  Zn    0.50000   0.88437   0.25000   0.00000  Uiso   1.00
Zn622  Zn    0.50000   0.78229   0.25000   0.00000  Uiso   1.00
O623   O     0.57961   0.83958   0.39048   0.00000  Uiso   1.00
C624   C     0.59128   0.80190   0.36652   0.00000  Uiso   1.00
H625   H     0.57741   0.80416   0.33221   0.00000  Uiso   1.00
H626   H     0.58314   0.76955   0.38283   0.00000  Uiso   1.00
H627   H     0.62555   0.80254   0.36393   0.00000  Uiso   1.00
O628   O     0.42904   0.86763   0.11096   0.00000  Uiso   1.00
C629   C     0.40425   0.83165   0.12470   0.00000  Uiso   1.00
H630   H     0.41501   0.82128   0.15891   0.00000  Uiso   1.00
H631   H     0.40361   0.80268   0.10151   0.00000  Uiso   1.00
H632   H     0.37177   0.84367   0.12639   0.00000  Uiso   1.00
Br633  Br    0.38333   0.88459   0.42954   0.00000  Uiso   1.00
Br634  Br    0.62443   0.80269   0.07047   0.00000  Uiso   1.00
Br635  Br    0.38134   0.89905   0.03626   0.00000  Uiso   1.00
Br636  Br    0.63254   0.80859   0.46420   0.00000  Uiso   1.00
O637   O     0.54416   0.71291   0.31626   0.00000  Uiso   1.00
C638   C     0.58705   0.70816   0.30870   0.00000  Uiso   1.00
H639   H     0.60116   0.74131   0.30448   0.00000  Uiso   1.00
H640   H     0.59426   0.68911   0.27828   0.00000  Uiso   1.00
H641   H     0.60340   0.69271   0.33868   0.00000  Uiso   1.00
O642   O     0.46498   0.95437   0.17763   0.00000  Uiso   1.00
C643   C     0.42235   0.94469   0.18197   0.00000  Uiso   1.00
H644   H     0.41755   0.90823   0.18042   0.00000  Uiso   1.00
H645   H     0.40385   0.95911   0.15283   0.00000  Uiso   1.00
H646   H     0.40922   0.95662   0.21333   0.00000  Uiso   1.00
O647   O     0.46371   0.71443   0.17856   0.00000  Uiso   1.00
C648   C     0.41994   0.71687   0.17992   0.00000  Uiso   1.00
H649   H     0.41055   0.75218   0.18012   0.00000  Uiso   1.00
H650   H     0.40664   0.70045   0.20952   0.00000  Uiso   1.00
H651   H     0.40533   0.70258   0.14880   0.00000  Uiso   1.00
O652   O     0.53132   0.95347   0.32443   0.00000  Uiso   1.00
C653   C     0.57283   0.93826   0.32337   0.00000  Uiso   1.00
H654   H     0.58858   0.94748   0.29253   0.00000  Uiso   1.00
H655   H     0.57366   0.90144   0.32734   0.00000  Uiso   1.00
H656   H     0.59127   0.95161   0.35272   0.00000  Uiso   1.00
C657   C     0.75342   0.83331   0.25048   0.00000  Uiso   1.00
C658   C     0.91313   0.83340   0.24822   0.00000  Uiso   1.00
C659   C     0.76317   0.86951   0.01460   0.00000  Uiso   1.00
C660   C     0.91156   0.82104   0.48583   0.00000  Uiso   1.00
C661   C     0.68761   0.79284   0.24499   0.00000  Uiso   1.00
C662   C     0.97877   0.87409   0.25003   0.00000  Uiso   1.00
C663   C     0.97829   0.79308   0.24241   0.00000  Uiso   1.00
C664   C     0.68806   0.87393   0.25208   0.00000  Uiso   1.00
C665   C     0.95726   0.83356   0.24644   0.00000  Uiso   1.00
C666   C     0.70914   0.83330   0.24961   0.00000  Uiso   1.00
C667   C     0.85402   0.69026   0.28371   0.00000  Uiso   1.00
C668   C     0.81450   0.97648   0.21502   0.00000  Uiso   1.00
C669   C     0.81385   0.69108   0.21543   0.00000  Uiso   1.00
C670   C     0.85210   0.97570   0.28506   0.00000  Uiso   1.00
C671   C     0.83157   0.83371   0.16355   0.00000  Uiso   1.00
C672   C     0.83564   0.83322   0.33653   0.00000  Uiso   1.00
C673   C     0.87587   0.83153   0.41037   0.00000  Uiso   1.00
C674   C     0.79625   0.85161   0.08991   0.00000  Uiso   1.00
C675   C     0.83769   0.83343   0.38461   0.00000  Uiso   1.00
C676   C     0.83086   0.83492   0.11567   0.00000  Uiso   1.00
C677   C     0.80067   0.84175   0.40401   0.00000  Uiso   1.00
C678   C     0.86698   0.82256   0.09664   0.00000  Uiso   1.00
C679   C     0.80019   0.84853   0.44969   0.00000  Uiso   1.00
C680   C     0.87031   0.82665   0.05083   0.00000  Uiso   1.00
C681   C     0.83681   0.83959   0.47696   0.00000  Uiso   1.00
C682   C     0.83485   0.84008   0.02353   0.00000  Uiso   1.00
C683   C     0.87529   0.83055   0.45750   0.00000  Uiso   1.00
C684   C     0.79755   0.85398   0.04291   0.00000  Uiso   1.00
C685   C     0.76410   0.86491   0.46815   0.00000  Uiso   1.00
C686   C     0.90854   0.81792   0.03224   0.00000  Uiso   1.00
H687   H     0.77261   0.84486   0.38230   0.00000  Uiso   1.00
H688   H     0.89275   0.81103   0.11873   0.00000  Uiso   1.00
H689   H     0.70346   0.76107   0.24348   0.00000  Uiso   1.00
H690   H     0.96296   0.90583   0.25158   0.00000  Uiso   1.00
H691   H     0.96200   0.76164   0.23767   0.00000  Uiso   1.00
H692   H     0.70428   0.90549   0.25598   0.00000  Uiso   1.00
N693   N     0.83333   0.95240   0.25000   0.00000  Uiso   1.00
N694   N     0.83333   0.71427   0.25000   0.00000  Uiso   1.00
O695   O     0.77226   0.87154   0.24999   0.00000  Uiso   1.00
O696   O     0.89441   0.79513   0.25000   0.00000  Uiso   1.00
O697   O     0.89441   0.87154   0.25000   0.00000  Uiso   1.00
O698   O     0.77226   0.79513   0.24999   0.00000  Uiso   1.00
O699   O     0.83333   0.87156   0.18392   0.00000  Uiso   1.00
O700   O     0.83334   0.79511   0.31608   0.00000  Uiso   1.00
O701   O     0.83334   0.87156   0.31607   0.00000  Uiso   1.00
O702   O     0.83333   0.79511   0.18392   0.00000  Uiso   1.00
Zn703  Zn    0.83333   0.88437   0.25000   0.00000  Uiso   1.00
Zn704  Zn    0.83333   0.78229   0.25000   0.00000  Uiso   1.00
O705   O     0.91294   0.83958   0.39048   0.00000  Uiso   1.00
C706   C     0.92461   0.80190   0.36652   0.00000  Uiso   1.00
H707   H     0.91075   0.80416   0.33221   0.00000  Uiso   1.00
H708   H     0.91647   0.76955   0.38283   0.00000  Uiso   1.00
H709   H     0.95888   0.80254   0.36393   0.00000  Uiso   1.00
O710   O     0.76237   0.86763   0.11096   0.00000  Uiso   1.00
C711   C     0.73759   0.83165   0.12470   0.00000  Uiso   1.00
H712   H     0.74835   0.82128   0.15891   0.00000  Uiso   1.00
H713   H     0.73694   0.80268   0.10151   0.00000  Uiso   1.00
H714   H     0.70510   0.84367   0.12639   0.00000  Uiso   1.00
Br715  Br    0.71667   0.88459   0.42954   0.00000  Uiso   1.00
Br716  Br    0.95776   0.80269   0.07047   0.00000  Uiso   1.00
Br717  Br    0.71467   0.89905   0.03626   0.00000  Uiso   1.00
Br718  Br    0.96587   0.80859   0.46420   0.00000  Uiso   1.00
O719   O     0.87749   0.71291   0.31626   0.00000  Uiso   1.00
C720   C     0.92039   0.70816   0.30870   0.00000  Uiso   1.00
H721   H     0.93449   0.74131   0.30448   0.00000  Uiso   1.00
H722   H     0.92759   0.68911   0.27828   0.00000  Uiso   1.00
H723   H     0.93673   0.69271   0.33868   0.00000  Uiso   1.00
O724   O     0.79831   0.95437   0.17763   0.00000  Uiso   1.00
C725   C     0.75568   0.94469   0.18197   0.00000  Uiso   1.00
H726   H     0.75089   0.90823   0.18042   0.00000  Uiso   1.00
H727   H     0.73718   0.95911   0.15283   0.00000  Uiso   1.00
H728   H     0.74255   0.95662   0.21333   0.00000  Uiso   1.00
O729   O     0.79705   0.71443   0.17856   0.00000  Uiso   1.00
C730   C     0.75328   0.71687   0.17992   0.00000  Uiso   1.00
H731   H     0.74389   0.75218   0.18012   0.00000  Uiso   1.00
H732   H     0.73997   0.70045   0.20952   0.00000  Uiso   1.00
H733   H     0.73866   0.70258   0.14880   0.00000  Uiso   1.00
O734   O     0.86466   0.95347   0.32443   0.00000  Uiso   1.00
C735   C     0.90616   0.93826   0.32337   0.00000  Uiso   1.00
H736   H     0.92191   0.94748   0.29253   0.00000  Uiso   1.00
H737   H     0.90699   0.90144   0.32734   0.00000  Uiso   1.00
H738   H     0.92460   0.95161   0.35272   0.00000  Uiso   1.00
C739   C     0.08676   0.16664   0.75048   0.00000  Uiso   1.00
C740   C     0.24646   0.16674   0.74822   0.00000  Uiso   1.00
C741   C     0.09650   0.20284   0.51460   0.00000  Uiso   1.00
C742   C     0.24490   0.15438   0.98583   0.00000  Uiso   1.00
C743   C     0.02094   0.12618   0.74499   0.00000  Uiso   1.00
C744   C     0.31211   0.20742   0.75003   0.00000  Uiso   1.00
C745   C     0.31162   0.12641   0.74241   0.00000  Uiso   1.00
C746   C     0.02139   0.20727   0.75208   0.00000  Uiso   1.00
C747   C     0.29060   0.16689   0.74644   0.00000  Uiso   1.00
C748   C     0.04247   0.16663   0.74961   0.00000  Uiso   1.00
C749   C     0.18735   0.02359   0.78371   0.00000  Uiso   1.00
C750   C     0.14783   0.30982   0.71502   0.00000  Uiso   1.00
C751   C     0.14718   0.02441   0.71543   0.00000  Uiso   1.00
C752   C     0.18543   0.30903   0.78506   0.00000  Uiso   1.00
C753   C     0.16490   0.16705   0.66355   0.00000  Uiso   1.00
C754   C     0.16897   0.16655   0.83653   0.00000  Uiso   1.00
C755   C     0.20920   0.16486   0.91037   0.00000  Uiso   1.00
C756   C     0.12959   0.18494   0.58991   0.00000  Uiso   1.00
C757   C     0.17102   0.16676   0.88461   0.00000  Uiso   1.00
C758   C     0.16419   0.16826   0.61567   0.00000  Uiso   1.00
C759   C     0.13400   0.17508   0.90401   0.00000  Uiso   1.00
C760   C     0.20031   0.15589   0.59664   0.00000  Uiso   1.00
C761   C     0.13353   0.18186   0.94969   0.00000  Uiso   1.00
C762   C     0.20364   0.15998   0.55083   0.00000  Uiso   1.00
C763   C     0.17014   0.17292   0.97696   0.00000  Uiso   1.00
C764   C     0.16819   0.17341   0.52353   0.00000  Uiso   1.00
C765   C     0.20862   0.16388   0.95750   0.00000  Uiso   1.00
C766   C     0.13088   0.18731   0.54291   0.00000  Uiso   1.00
C767   C     0.09743   0.19825   0.96815   0.00000  Uiso   1.00
C768   C     0.24187   0.15125   0.53224   0.00000  Uiso   1.00
H769   H     0.10594   0.17819   0.88230   0.00000  Uiso   1.00
H770   H     0.22608   0.14436   0.61873   0.00000  Uiso   1.00
H771   H     0.03679   0.09441   0.74348   0.00000  Uiso   1.00
H772   H     0.29629   0.23916   0.75158   0.00000  Uiso   1.00
H773   H     0.29534   0.09497   0.73767   0.00000  Uiso   1.00
H774   H     0.03761   0.23883   0.75598   0.00000  Uiso   1.00
N775   N     0.16667   0.28573   0.75000   0.00000  Uiso   1.00
N776   N     0.16667   0.04760   0.75000   0.00000  Uiso   1.00
O777   O     0.10559   0.20487   0.74999   0.00000  Uiso   1.00
O778   O     0.22774   0.12846   0.75000   0.00000  Uiso   1.00
O779   O     0.22774   0.20487   0.75000   0.00000  Uiso   1.00
O780   O     0.10559   0.12846   0.74999   0.00000  Uiso   1.00
O781   O     0.16666   0.20489   0.68392   0.00000  Uiso   1.00
O782   O     0.16667   0.12844   0.81608   0.00000  Uiso   1.00
O783   O     0.16667   0.20489   0.81607   0.00000  Uiso   1.00
O784   O     0.16666   0.12844   0.68392   0.00000  Uiso   1.00
Zn785  Zn    0.16667   0.21771   0.75000   0.00000  Uiso   1.00
Zn786  Zn    0.16667   0.11563   0.75000   0.00000  Uiso   1.00
O787   O     0.24627   0.17291   0.89048   0.00000  Uiso   1.00
C788   C     0.25795   0.13524   0.86652   0.00000  Uiso   1.00
H789   H     0.24408   0.13749   0.83221   0.00000  Uiso   1.00
H790   H     0.24980   0.10289   0.88283   0.00000  Uiso   1.00
H791   H     0.29222   0.13587   0.86393   0.00000  Uiso   1.00
O792   O     0.09570   0.20096   0.61096   0.00000  Uiso   1.00
C793   C     0.07092   0.16499   0.62470   0.00000  Uiso   1.00
H794   H     0.08168   0.15461   0.65891   0.00000  Uiso   1.00
H795   H     0.07027   0.13602   0.60151   0.00000  Uiso   1.00
H796   H     0.03843   0.17701   0.62639   0.00000  Uiso   1.00
Br797  Br    0.05000   0.21793   0.92954   0.00000  Uiso   1.00
Br798  Br    0.29110   0.13602   0.57047   0.00000  Uiso   1.00
Br799  Br    0.04800   0.23238   0.53626   0.00000  Uiso   1.00
Br800  Br    0.29920   0.14193   0.96420   0.00000  Uiso   1.00
O801   O     0.21082   0.04624   0.81626   0.00000  Uiso   1.00
C802   C     0.25372   0.04149   0.80870   0.00000  Uiso   1.00
H803   H     0.26783   0.07464   0.80448   0.00000  Uiso   1.00
H804   H     0.26093   0.02244   0.77828   0.00000  Uiso   1.00
H805   H     0.27007   0.02605   0.83868   0.00000  Uiso   1.00
O806   O     0.13164   0.28770   0.67763   0.00000  Uiso   1.00
C807   C     0.08902   0.27803   0.68197   0.00000  Uiso   1.00
H808   H     0.08422   0.24157   0.68042   0.00000  Uiso   1.00
H809   H     0.07052   0.29244   0.65283   0.00000  Uiso   1.00
H810   H     0.07589   0.28995   0.71333   0.00000  Uiso   1.00
O811   O     0.13038   0.04777   0.67856   0.00000  Uiso   1.00
C812   C     0.08661   0.05020   0.67992   0.00000  Uiso   1.00
H813   H     0.07722   0.08551   0.68012   0.00000  Uiso   1.00
H814   H     0.07330   0.03378   0.70952   0.00000  Uiso   1.00
H815   H     0.07200   0.03591   0.64880   0.00000  Uiso   1.00
O816   O     0.19799   0.28680   0.82443   0.00000  Uiso   1.00
C817   C     0.23949   0.27159   0.82337   0.00000  Uiso   1.00
H818   H     0.25524   0.28081   0.79253   0.00000  Uiso   1.00
H819   H     0.24033   0.23478   0.82734   0.00000  Uiso   1.00
H820   H     0.25794   0.28495   0.85272   0.00000  Uiso   1.00
C821   C     0.42009   0.16664   0.75048   0.00000  Uiso   1.00
C822   C     0.57980   0.16674   0.74822   0.00000  Uiso   1.00
C823   C     0.42984   0.20284   0.51460   0.00000  Uiso   1.00
C824   C     0.57823   0.15438   0.98583   0.00000  Uiso   1.00
C825   C     0.35427   0.12618   0.74499   0.00000  Uiso   1.00
C826   C     0.64544   0.20742   0.75003   0.00000  Uiso   1.00
C827   C     0.64495   0.12641   0.74241   0.00000  Uiso   1.00
C828   C     0.35472   0.20727   0.75208   0.00000  Uiso   1.00
C829   C     0.62393   0.16689   0.74644   0.00000  Uiso   1.00
C830   C     0.37580   0.16663   0.74961   0.00000  Uiso   1.00
C831   C     0.52069   0.02359   0.78371   0.00000  Uiso   1.00
C832   C     0.48117   0.30982   0.71502   0.00000  Uiso   1.00
C833   C     0.48051   0.02441   0.71543   0.00000  Uiso   1.00
C834   C     0.51876   0.30903   0.78506   0.00000  Uiso   1.00
C835   C     0.49824   0.16705   0.66355   0.00000  Uiso   1.00
C836   C     0.50231   0.16655   0.83653   0.00000  Uiso   1.00
C837   C     0.54254   0.16486   0.91037   0.00000  Uiso   1.00
C838   C     0.46292   0.18494   0.58991   0.00000  Uiso   1.00
C839   C     0.50436   0.16676   0.88461   0.00000  Uiso   1.00
C840   C     0.49752   0.16826   0.61567   0.00000  Uiso   1.00
C841   C     0.46733   0.17508   0.90401   0.00000  Uiso   1.00
C842   C     0.53364   0.15589   0.59664   0.00000  Uiso   1.00
C843   C     0.46686   0.18186   0.94969   0.00000  Uiso   1.00
C844   C     0.53697   0.15998   0.55083   0.00000  Uiso   1.00
C845   C     0.50348   0.17292   0.97696   0.00000  Uiso   1.00
C846   C     0.50152   0.17341   0.52353   0.00000  Uiso   1.00
C847   C     0.54196   0.16388   0.95750   0.00000  Uiso   1.00
C848   C     0.46422   0.18731   0.54291   0.00000  Uiso   1.00
C849   C     0.43077   0.19825   0.96815   0.00000  Uiso   1.00
C850   C     0.57520   0.15125   0.53224   0.00000  Uiso   1.00
H851   H     0.43927   0.17819   0.88230   0.00000  Uiso   1.00
H852   H     0.55942   0.14436   0.61873   0.00000  Uiso   1.00
H853   H     0.37013   0.09441   0.74348   0.00000  Uiso   1.00
H854   H     0.62963   0.23916   0.75158   0.00000  Uiso   1.00
H855   H     0.62867   0.09497   0.73767   0.00000  Uiso   1.00
H856   H     0.37094   0.23883   0.75598   0.00000  Uiso   1.00
N857   N     0.50000   0.28573   0.75000   0.00000  Uiso   1.00
N858   N     0.50000   0.04760   0.75000   0.00000  Uiso   1.00
O859   O     0.43892   0.20487   0.74999   0.00000  Uiso   1.00
O860   O     0.56108   0.12846   0.75000   0.00000  Uiso   1.00
O861   O     0.56108   0.20487   0.75000   0.00000  Uiso   1.00
O862   O     0.43892   0.12846   0.74999   0.00000  Uiso   1.00
O863   O     0.49999   0.20489   0.68392   0.00000  Uiso   1.00
O864   O     0.50001   0.12844   0.81608   0.00000  Uiso   1.00
O865   O     0.50001   0.20489   0.81607   0.00000  Uiso   1.00
O866   O     0.49999   0.12844   0.68392   0.00000  Uiso   1.00
Zn867  Zn    0.50000   0.21771   0.75000   0.00000  Uiso   1.00
Zn868  Zn    0.50000   0.11563   0.75000   0.00000  Uiso   1.00
O869   O     0.57961   0.17291   0.89048   0.00000  Uiso   1.00
C870   C     0.59128   0.13524   0.86652   0.00000  Uiso   1.00
H871   H     0.57741   0.13749   0.83221   0.00000  Uiso   1.00
H872   H     0.58314   0.10289   0.88283   0.00000  Uiso   1.00
H873   H     0.62555   0.13587   0.86393   0.00000  Uiso   1.00
O874   O     0.42904   0.20096   0.61096   0.00000  Uiso   1.00
C875   C     0.40425   0.16499   0.62470   0.00000  Uiso   1.00
H876   H     0.41501   0.15461   0.65891   0.00000  Uiso   1.00
H877   H     0.40361   0.13602   0.60151   0.00000  Uiso   1.00
H878   H     0.37177   0.17701   0.62639   0.00000  Uiso   1.00
Br879  Br    0.38333   0.21793   0.92954   0.00000  Uiso   1.00
Br880  Br    0.62443   0.13602   0.57047   0.00000  Uiso   1.00
Br881  Br    0.38134   0.23238   0.53626   0.00000  Uiso   1.00
Br882  Br    0.63254   0.14193   0.96420   0.00000  Uiso   1.00
O883   O     0.54416   0.04624   0.81626   0.00000  Uiso   1.00
C884   C     0.58705   0.04149   0.80870   0.00000  Uiso   1.00
H885   H     0.60116   0.07464   0.80448   0.00000  Uiso   1.00
H886   H     0.59426   0.02244   0.77828   0.00000  Uiso   1.00
H887   H     0.60340   0.02605   0.83868   0.00000  Uiso   1.00
O888   O     0.46498   0.28770   0.67763   0.00000  Uiso   1.00
C889   C     0.42235   0.27803   0.68197   0.00000  Uiso   1.00
H890   H     0.41755   0.24157   0.68042   0.00000  Uiso   1.00
H891   H     0.40385   0.29244   0.65283   0.00000  Uiso   1.00
H892   H     0.40922   0.28995   0.71333   0.00000  Uiso   1.00
O893   O     0.46371   0.04777   0.67856   0.00000  Uiso   1.00
C894   C     0.41994   0.05020   0.67992   0.00000  Uiso   1.00
H895   H     0.41055   0.08551   0.68012   0.00000  Uiso   1.00
H896   H     0.40664   0.03378   0.70952   0.00000  Uiso   1.00
H897   H     0.40533   0.03591   0.64880   0.00000  Uiso   1.00
O898   O     0.53132   0.28680   0.82443   0.00000  Uiso   1.00
C899   C     0.57283   0.27159   0.82337   0.00000  Uiso   1.00
H900   H     0.58858   0.28081   0.79253   0.00000  Uiso   1.00
H901   H     0.57366   0.23478   0.82734   0.00000  Uiso   1.00
H902   H     0.59127   0.28495   0.85272   0.00000  Uiso   1.00
C903   C     0.75342   0.16664   0.75048   0.00000  Uiso   1.00
C904   C     0.91313   0.16674   0.74822   0.00000  Uiso   1.00
C905   C     0.76317   0.20284   0.51460   0.00000  Uiso   1.00
C906   C     0.91156   0.15438   0.98583   0.00000  Uiso   1.00
C907   C     0.68761   0.12618   0.74499   0.00000  Uiso   1.00
C908   C     0.97877   0.20742   0.75003   0.00000  Uiso   1.00
C909   C     0.97829   0.12641   0.74241   0.00000  Uiso   1.00
C910   C     0.68806   0.20727   0.75208   0.00000  Uiso   1.00
C911   C     0.95726   0.16689   0.74644   0.00000  Uiso   1.00
C912   C     0.70914   0.16663   0.74961   0.00000  Uiso   1.00
C913   C     0.85402   0.02359   0.78371   0.00000  Uiso   1.00
C914   C     0.81450   0.30982   0.71502   0.00000  Uiso   1.00
C915   C     0.81385   0.02441   0.71543   0.00000  Uiso   1.00
C916   C     0.85210   0.30903   0.78506   0.00000  Uiso   1.00
C917   C     0.83157   0.16705   0.66355   0.00000  Uiso   1.00
C918   C     0.83564   0.16655   0.83653   0.00000  Uiso   1.00
C919   C     0.87587   0.16486   0.91037   0.00000  Uiso   1.00
C920   C     0.79625   0.18494   0.58991   0.00000  Uiso   1.00
C921   C     0.83769   0.16676   0.88461   0.00000  Uiso   1.00
C922   C     0.83086   0.16826   0.61567   0.00000  Uiso   1.00
C923   C     0.80067   0.17508   0.90401   0.00000  Uiso   1.00
C924   C     0.86698   0.15589   0.59664   0.00000  Uiso   1.00
C925   C     0.80019   0.18186   0.94969   0.00000  Uiso   1.00
C926   C     0.87031   0.15998   0.55083   0.00000  Uiso   1.00
C927   C     0.83681   0.17292   0.97696   0.00000  Uiso   1.00
C928   C     0.83485   0.17341   0.52353   0.00000  Uiso   1.00
C929   C     0.87529   0.16388   0.95750   0.00000  Uiso   1.00
C930   C     0.79755   0.18731   0.54291   0.00000  Uiso   1.00
C931   C     0.76410   0.19825   0.96815   0.00000  Uiso   1.00
C932   C     0.90854   0.15125   0.53224   0.00000  Uiso   1.00
H933   H     0.77261   0.17819   0.88230   0.00000  Uiso   1.00
H934   H     0.89275   0.14436   0.61873   0.00000  Uiso   1.00
H935   H     0.70346   0.09441   0.74348   0.00000  Uiso   1.00
H936   H     0.96296   0.23916   0.75158   0.00000  Uiso   1.00
H937   H     0.96200   0.09497   0.73767   0.00000  Uiso   1.00
H938   H     0.70428   0.23883   0.75598   0.00000  Uiso   1.00
N939   N     0.83333   0.28573   0.75000   0.00000  Uiso   1.00
N940   N     0.83333   0.04760   0.75000   0.00000  Uiso   1.00
O941   O     0.77226   0.20487   0.74999   0.00000  Uiso   1.00
O942   O     0.89441   0.12846   0.75000   0.00000  Uiso   1.00
O943   O     0.89441   0.20487   0.75000   0.00000  Uiso   1.00
O944   O     0.77226   0.12846   0.74999   0.00000  Uiso   1.00
O945   O     0.83333   0.20489   0.68392   0.00000  Uiso   1.00
O946   O     0.83334   0.12844   0.81608   0.00000  Uiso   1.00
O947   O     0.83334   0.20489   0.81607   0.00000  Uiso   1.00
O948   O     0.83333   0.12844   0.68392   0.00000  Uiso   1.00
Zn949  Zn    0.83333   0.21771   0.75000   0.00000  Uiso   1.00
Zn950  Zn    0.83333   0.11563   0.75000   0.00000  Uiso   1.00
O951   O     0.91294   0.17291   0.89048   0.00000  Uiso   1.00
C952   C     0.92461   0.13524   0.86652   0.00000  Uiso   1.00
H953   H     0.91075   0.13749   0.83221   0.00000  Uiso   1.00
H954   H     0.91647   0.10289   0.88283   0.00000  Uiso   1.00
H955   H     0.95888   0.13587   0.86393   0.00000  Uiso   1.00
O956   O     0.76237   0.20096   0.61096   0.00000  Uiso   1.00
C957   C     0.73759   0.16499   0.62470   0.00000  Uiso   1.00
H958   H     0.74835   0.15461   0.65891   0.00000  Uiso   1.00
H959   H     0.73694   0.13602   0.60151   0.00000  Uiso   1.00
H960   H     0.70510   0.17701   0.62639   0.00000  Uiso   1.00
Br961  Br    0.71667   0.21793   0.92954   0.00000  Uiso   1.00
Br962  Br    0.95776   0.13602   0.57047   0.00000  Uiso   1.00
Br963  Br    0.71467   0.23238   0.53626   0.00000  Uiso   1.00
Br964  Br    0.96587   0.14193   0.96420   0.00000  Uiso   1.00
O965   O     0.87749   0.04624   0.81626   0.00000  Uiso   1.00
C966   C     0.92039   0.04149   0.80870   0.00000  Uiso   1.00
H967   H     0.93449   0.07464   0.80448   0.00000  Uiso   1.00
H968   H     0.92759   0.02244   0.77828   0.00000  Uiso   1.00
H969   H     0.93673   0.02605   0.83868   0.00000  Uiso   1.00
O970   O     0.79831   0.28770   0.67763   0.00000  Uiso   1.00
C971   C     0.75568   0.27803   0.68197   0.00000  Uiso   1.00
H972   H     0.75089   0.24157   0.68042   0.00000  Uiso   1.00
H973   H     0.73718   0.29244   0.65283   0.00000  Uiso   1.00
H974   H     0.74255   0.28995   0.71333   0.00000  Uiso   1.00
O975   O     0.79705   0.04777   0.67856   0.00000  Uiso   1.00
C976   C     0.75328   0.05020   0.67992   0.00000  Uiso   1.00
H977   H     0.74389   0.08551   0.68012   0.00000  Uiso   1.00
H978   H     0.73997   0.03378   0.70952   0.00000  Uiso   1.00
H979   H     0.73866   0.03591   0.64880   0.00000  Uiso   1.00
O980   O     0.86466   0.28680   0.82443   0.00000  Uiso   1.00
C981   C     0.90616   0.27159   0.82337   0.00000  Uiso   1.00
H982   H     0.92191   0.28081   0.79253   0.00000  Uiso   1.00
H983   H     0.90699   0.23478   0.82734   0.00000  Uiso   1.00
H984   H     0.92460   0.28495   0.85272   0.00000  Uiso   1.00
C985   C     0.08676   0.49997   0.75048   0.00000  Uiso   1.00
C986   C     0.24646   0.50007   0.74822   0.00000  Uiso   1.00
C987   C     0.09650   0.53617   0.51460   0.00000  Uiso   1.00
C988   C     0.24490   0.48771   0.98583   0.00000  Uiso   1.00
C989   C     0.02094   0.45951   0.74499   0.00000  Uiso   1.00
C990   C     0.31211   0.54075   0.75003   0.00000  Uiso   1.00
C991   C     0.31162   0.45975   0.74241   0.00000  Uiso   1.00
C992   C     0.02139   0.54060   0.75208   0.00000  Uiso   1.00
C993   C     0.29060   0.50022   0.74644   0.00000  Uiso   1.00
C994   C     0.04247   0.49997   0.74961   0.00000  Uiso   1.00
C995   C     0.18735   0.35693   0.78371   0.00000  Uiso   1.00
C996   C     0.14783   0.64315   0.71502   0.00000  Uiso   1.00
C997   C     0.14718   0.35775   0.71543   0.00000  Uiso   1.00
C998   C     0.18543   0.64237   0.78506   0.00000  Uiso   1.00
C999   C     0.16490   0.50038   0.66355   0.00000  Uiso   1.00
C1000  C     0.16897   0.49989   0.83653   0.00000  Uiso   1.00
C1001  C     0.20920   0.49820   0.91037   0.00000  Uiso   1.00
C1002  C     0.12959   0.51827   0.58991   0.00000  Uiso   1.00
C1003  C     0.17102   0.50010   0.88461   0.00000  Uiso   1.00
C1004  C     0.16419   0.50159   0.61567   0.00000  Uiso   1.00
C1005  C     0.13400   0.50841   0.90401   0.00000  Uiso   1.00
C1006  C     0.20031   0.48922   0.59664   0.00000  Uiso   1.00
C1007  C     0.13353   0.51519   0.94969   0.00000  Uiso   1.00
C1008  C     0.20364   0.49331   0.55083   0.00000  Uiso   1.00
C1009  C     0.17014   0.50626   0.97696   0.00000  Uiso   1.00
C1010  C     0.16819   0.50675   0.52353   0.00000  Uiso   1.00
C1011  C     0.20862   0.49721   0.95750   0.00000  Uiso   1.00
C1012  C     0.13088   0.52065   0.54291   0.00000  Uiso   1.00
C1013  C     0.09743   0.53158   0.96815   0.00000  Uiso   1.00
C1014  C     0.24187   0.48458   0.53224   0.00000  Uiso   1.00
H1015  H     0.10594   0.51153   0.88230   0.00000  Uiso   1.00
H1016  H     0.22608   0.47769   0.61873   0.00000  Uiso   1.00
H1017  H     0.03679   0.42774   0.74348   0.00000  Uiso   1.00
H1018  H     0.29629   0.57249   0.75158   0.00000  Uiso   1.00
H1019  H     0.29534   0.42831   0.73767   0.00000  Uiso   1.00
H1020  H     0.03761   0.57216   0.75598   0.00000  Uiso   1.00
N1021  N     0.16667   0.61907   0.75000   0.00000  Uiso   1.00
N1022  N     0.16667   0.38093   0.75000   0.00000  Uiso   1.00
O1023  O     0.10559   0.53821   0.74999   0.00000  Uiso   1.00
O1024  O     0.22774   0.46179   0.75000   0.00000  Uiso   1.00
O1025  O     0.22774   0.53821   0.75000   0.00000  Uiso   1.00
O1026  O     0.10559   0.46179   0.74999   0.00000  Uiso   1.00
O1027  O     0.16666   0.53823   0.68392   0.00000  Uiso   1.00
O1028  O     0.16667   0.46177   0.81608   0.00000  Uiso   1.00
O1029  O     0.16667   0.53823   0.81607   0.00000  Uiso   1.00
O1030  O     0.16666   0.46177   0.68392   0.00000  Uiso   1.00
Zn1031 Zn    0.16667   0.55104   0.75000   0.00000  Uiso   1.00
Zn1032 Zn    0.16667   0.44896   0.75000   0.00000  Uiso   1.00
O1033  O     0.24627   0.50625   0.89048   0.00000  Uiso   1.00
C1034  C     0.25795   0.46857   0.86652   0.00000  Uiso   1.00
H1035  H     0.24408   0.47083   0.83221   0.00000  Uiso   1.00
H1036  H     0.24980   0.43622   0.88283   0.00000  Uiso   1.00
H1037  H     0.29222   0.46921   0.86393   0.00000  Uiso   1.00
O1038  O     0.09570   0.53429   0.61096   0.00000  Uiso   1.00
C1039  C     0.07092   0.49832   0.62470   0.00000  Uiso   1.00
H1040  H     0.08168   0.48794   0.65891   0.00000  Uiso   1.00
H1041  H     0.07027   0.46935   0.60151   0.00000  Uiso   1.00
H1042  H     0.03843   0.51034   0.62639   0.00000  Uiso   1.00
Br1043 Br    0.05000   0.55126   0.92954   0.00000  Uiso   1.00
Br1044 Br    0.29110   0.46935   0.57047   0.00000  Uiso   1.00
Br1045 Br    0.04800   0.56572   0.53626   0.00000  Uiso   1.00
Br1046 Br    0.29920   0.47526   0.96420   0.00000  Uiso   1.00
O1047  O     0.21082   0.37957   0.81626   0.00000  Uiso   1.00
C1048  C     0.25372   0.37483   0.80870   0.00000  Uiso   1.00
H1049  H     0.26783   0.40797   0.80448   0.00000  Uiso   1.00
H1050  H     0.26093   0.35578   0.77828   0.00000  Uiso   1.00
H1051  H     0.27007   0.35938   0.83868   0.00000  Uiso   1.00
O1052  O     0.13164   0.62103   0.67763   0.00000  Uiso   1.00
C1053  C     0.08902   0.61136   0.68197   0.00000  Uiso   1.00
H1054  H     0.08422   0.57490   0.68042   0.00000  Uiso   1.00
H1055  H     0.07052   0.62577   0.65283   0.00000  Uiso   1.00
H1056  H     0.07589   0.62329   0.71333   0.00000  Uiso   1.00
O1057  O     0.13038   0.38110   0.67856   0.00000  Uiso   1.00
C1058  C     0.08661   0.38353   0.67992   0.00000  Uiso   1.00
H1059  H     0.07722   0.41884   0.68012   0.00000  Uiso   1.00
H1060  H     0.07330   0.36711   0.70952   0.00000  Uiso   1.00
H1061  H     0.07200   0.36924   0.64880   0.00000  Uiso   1.00
O1062  O     0.19799   0.62013   0.82443   0.00000  Uiso   1.00
C1063  C     0.23949   0.60492   0.82337   0.00000  Uiso   1.00
H1064  H     0.25524   0.61414   0.79253   0.00000  Uiso   1.00
H1065  H     0.24033   0.56811   0.82734   0.00000  Uiso   1.00
H1066  H     0.25794   0.61828   0.85272   0.00000  Uiso   1.00
C1067  C     0.42009   0.49997   0.75048   0.00000  Uiso   1.00
C1068  C     0.57980   0.50007   0.74822   0.00000  Uiso   1.00
C1069  C     0.42984   0.53617   0.51460   0.00000  Uiso   1.00
C1070  C     0.57823   0.48771   0.98583   0.00000  Uiso   1.00
C1071  C     0.35427   0.45951   0.74499   0.00000  Uiso   1.00
C1072  C     0.64544   0.54075   0.75003   0.00000  Uiso   1.00
C1073  C     0.64495   0.45975   0.74241   0.00000  Uiso   1.00
C1074  C     0.35472   0.54060   0.75208   0.00000  Uiso   1.00
C1075  C     0.62393   0.50022   0.74644   0.00000  Uiso   1.00
C1076  C     0.37580   0.49997   0.74961   0.00000  Uiso   1.00
C1077  C     0.52069   0.35693   0.78371   0.00000  Uiso   1.00
C1078  C     0.48117   0.64315   0.71502   0.00000  Uiso   1.00
C1079  C     0.48051   0.35775   0.71543   0.00000  Uiso   1.00
C1080  C     0.51876   0.64237   0.78506   0.00000  Uiso   1.00
C1081  C     0.49824   0.50038   0.66355   0.00000  Uiso   1.00
C1082  C     0.50231   0.49989   0.83653   0.00000  Uiso   1.00
C1083  C     0.54254   0.49820   0.91037   0.00000  Uiso   1.00
C1084  C     0.46292   0.51827   0.58991   0.00000  Uiso   1.00
C1085  C     0.50436   0.50010   0.88461   0.00000  Uiso   1.00
C1086  C     0.49752   0.50159   0.61567   0.00000  Uiso   1.00
C1087  C     0.46733   0.50841   0.90401   0.00000  Uiso   1.00
C1088  C     0.53364   0.48922   0.59664   0.00000  Uiso   1.00
C1089  C     0.46686   0.51519   0.94969   0.00000  Uiso   1.00
C1090  C     0.53697   0.49331   0.55083   0.00000  Uiso   1.00
C1091  C     0.50348   0.50626   0.97696   0.00000  Uiso   1.00
C1092  C     0.50152   0.50675   0.52353   0.00000  Uiso   1.00
C1093  C     0.54196   0.49721   0.95750   0.00000  Uiso   1.00
C1094  C     0.46422   0.52065   0.54291   0.00000  Uiso   1.00
C1095  C     0.43077   0.53158   0.96815   0.00000  Uiso   1.00
C1096  C     0.57520   0.48458   0.53224   0.00000  Uiso   1.00
H1097  H     0.43927   0.51153   0.88230   0.00000  Uiso   1.00
H1098  H     0.55942   0.47769   0.61873   0.00000  Uiso   1.00
H1099  H     0.37013   0.42774   0.74348   0.00000  Uiso   1.00
H1100  H     0.62963   0.57249   0.75158   0.00000  Uiso   1.00
H1101  H     0.62867   0.42831   0.73767   0.00000  Uiso   1.00
H1102  H     0.37094   0.57216   0.75598   0.00000  Uiso   1.00
N1103  N     0.50000   0.61907   0.75000   0.00000  Uiso   1.00
N1104  N     0.50000   0.38093   0.75000   0.00000  Uiso   1.00
O1105  O     0.43892   0.53821   0.74999   0.00000  Uiso   1.00
O1106  O     0.56108   0.46179   0.75000   0.00000  Uiso   1.00
O1107  O     0.56108   0.53821   0.75000   0.00000  Uiso   1.00
O1108  O     0.43892   0.46179   0.74999   0.00000  Uiso   1.00
O1109  O     0.49999   0.53823   0.68392   0.00000  Uiso   1.00
O1110  O     0.50001   0.46177   0.81608   0.00000  Uiso   1.00
O1111  O     0.50001   0.53823   0.81607   0.00000  Uiso   1.00
O1112  O     0.49999   0.46177   0.68392   0.00000  Uiso   1.00
Zn1113 Zn    0.50000   0.55104   0.75000   0.00000  Uiso   1.00
Zn1114 Zn    0.50000   0.44896   0.75000   0.00000  Uiso   1.00
O1115  O     0.57961   0.50625   0.89048   0.00000  Uiso   1.00
C1116  C     0.59128   0.46857   0.86652   0.00000  Uiso   1.00
H1117  H     0.57741   0.47083   0.83221   0.00000  Uiso   1.00
H1118  H     0.58314   0.43622   0.88283   0.00000  Uiso   1.00
H1119  H     0.62555   0.46921   0.86393   0.00000  Uiso   1.00
O1120  O     0.42904   0.53429   0.61096   0.00000  Uiso   1.00
C1121  C     0.40425   0.49832   0.62470   0.00000  Uiso   1.00
H1122  H     0.41501   0.48794   0.65891   0.00000  Uiso   1.00
H1123  H     0.40361   0.46935   0.60151   0.00000  Uiso   1.00
H1124  H     0.37177   0.51034   0.62639   0.00000  Uiso   1.00
Br1125 Br    0.38333   0.55126   0.92954   0.00000  Uiso   1.00
Br1126 Br    0.62443   0.46935   0.57047   0.00000  Uiso   1.00
Br1127 Br    0.38134   0.56572   0.53626   0.00000  Uiso   1.00
Br1128 Br    0.63254   0.47526   0.96420   0.00000  Uiso   1.00
O1129  O     0.54416   0.37957   0.81626   0.00000  Uiso   1.00
C1130  C     0.58705   0.37483   0.80870   0.00000  Uiso   1.00
H1131  H     0.60116   0.40797   0.80448   0.00000  Uiso   1.00
H1132  H     0.59426   0.35578   0.77828   0.00000  Uiso   1.00
H1133  H     0.60340   0.35938   0.83868   0.00000  Uiso   1.00
O1134  O     0.46498   0.62103   0.67763   0.00000  Uiso   1.00
C1135  C     0.42235   0.61136   0.68197   0.00000  Uiso   1.00
H1136  H     0.41755   0.57490   0.68042   0.00000  Uiso   1.00
H1137  H     0.40385   0.62577   0.65283   0.00000  Uiso   1.00
H1138  H     0.40922   0.62329   0.71333   0.00000  Uiso   1.00
O1139  O     0.46371   0.38110   0.67856   0.00000  Uiso   1.00
C1140  C     0.41994   0.38353   0.67992   0.00000  Uiso   1.00
H1141  H     0.41055   0.41884   0.68012   0.00000  Uiso   1.00
H1142  H     0.40664   0.36711   0.70952   0.00000  Uiso   1.00
H1143  H     0.40533   0.36924   0.64880   0.00000  Uiso   1.00
O1144  O     0.53132   0.62013   0.82443   0.00000  Uiso   1.00
C1145  C     0.57283   0.60492   0.82337   0.00000  Uiso   1.00
H1146  H     0.58858   0.61414   0.79253   0.00000  Uiso   1.00
H1147  H     0.57366   0.56811   0.82734   0.00000  Uiso   1.00
H1148  H     0.59127   0.61828   0.85272   0.00000  Uiso   1.00
C1149  C     0.75342   0.49997   0.75048   0.00000  Uiso   1.00
C1150  C     0.91313   0.50007   0.74822   0.00000  Uiso   1.00
C1151  C     0.76317   0.53617   0.51460   0.00000  Uiso   1.00
C1152  C     0.91156   0.48771   0.98583   0.00000  Uiso   1.00
C1153  C     0.68761   0.45951   0.74499   0.00000  Uiso   1.00
C1154  C     0.97877   0.54075   0.75003   0.00000  Uiso   1.00
C1155  C     0.97829   0.45975   0.74241   0.00000  Uiso   1.00
C1156  C     0.68806   0.54060   0.75208   0.00000  Uiso   1.00
C1157  C     0.95726   0.50022   0.74644   0.00000  Uiso   1.00
C1158  C     0.70914   0.49997   0.74961   0.00000  Uiso   1.00
C1159  C     0.85402   0.35693   0.78371   0.00000  Uiso   1.00
C1160  C     0.81450   0.64315   0.71502   0.00000  Uiso   1.00
C1161  C     0.81385   0.35775   0.71543   0.00000  Uiso   1.00
C1162  C     0.85210   0.64237   0.78506   0.00000  Uiso   1.00
C1163  C     0.83157   0.50038   0.66355   0.00000  Uiso   1.00
C1164  C     0.83564   0.49989   0.83653   0.00000  Uiso   1.00
C1165  C     0.87587   0.49820   0.91037   0.00000  Uiso   1.00
C1166  C     0.79625   0.51827   0.58991   0.00000  Uiso   1.00
C1167  C     0.83769   0.50010   0.88461   0.00000  Uiso   1.00
C1168  C     0.83086   0.50159   0.61567   0.00000  Uiso   1.00
C1169  C     0.80067   0.50841   0.90401   0.00000  Uiso   1.00
C1170  C     0.86698   0.48922   0.59664   0.00000  Uiso   1.00
C1171  C     0.80019   0.51519   0.94969   0.00000  Uiso   1.00
C1172  C     0.87031   0.49331   0.55083   0.00000  Uiso   1.00
C1173  C     0.83681   0.50626   0.97696   0.00000  Uiso   1.00
C1174  C     0.83485   0.50675   0.52353   0.00000  Uiso   1.00
C1175  C     0.87529   0.49721   0.95750   0.00000  Uiso   1.00
C1176  C     0.79755   0.52065   0.54291   0.00000  Uiso   1.00
C1177  C     0.76410   0.53158   0.96815   0.00000  Uiso   1.00
C1178  C     0.90854   0.48458   0.53224   0.00000  Uiso   1.00
H1179  H     0.77261   0.51153   0.88230   0.00000  Uiso   1.00
H1180  H     0.89275   0.47769   0.61873   0.00000  Uiso   1.00
H1181  H     0.70346   0.42774   0.74348   0.00000  Uiso   1.00
H1182  H     0.96296   0.57249   0.75158   0.00000  Uiso   1.00
H1183  H     0.96200   0.42831   0.73767   0.00000  Uiso   1.00
H1184  H     0.70428   0.57216   0.75598   0.00000  Uiso   1.00
N1185  N     0.83333   0.61907   0.75000   0.00000  Uiso   1.00
N1186  N     0.83333   0.38093   0.75000   0.00000  Uiso   1.00
O1187  O     0.77226   0.53821   0.74999   0.00000  Uiso   1.00
O1188  O     0.89441   0.46179   0.75000   0.00000  Uiso   1.00
O1189  O     0.89441   0.53821   0.75000   0.00000  Uiso   1.00
O1190  O     0.77226   0.46179   0.74999   0.00000  Uiso   1.00
O1191  O     0.83333   0.53823   0.68392   0.00000  Uiso   1.00
O1192  O     0.83334   0.46177   0.81608   0.00000  Uiso   1.00
O1193  O     0.83334   0.53823   0.81607   0.00000  Uiso   1.00
O1194  O     0.83333   0.46177   0.68392   0.00000  Uiso   1.00
Zn1195 Zn    0.83333   0.55104   0.75000   0.00000  Uiso   1.00
Zn1196 Zn    0.83333   0.44896   0.75000   0.00000  Uiso   1.00
O1197  O     0.91294   0.50625   0.89048   0.00000  Uiso   1.00
C1198  C     0.92461   0.46857   0.86652   0.00000  Uiso   1.00
H1199  H     0.91075   0.47083   0.83221   0.00000  Uiso   1.00
H1200  H     0.91647   0.43622   0.88283   0.00000  Uiso   1.00
H1201  H     0.95888   0.46921   0.86393   0.00000  Uiso   1.00
O1202  O     0.76237   0.53429   0.61096   0.00000  Uiso   1.00
C1203  C     0.73759   0.49832   0.62470   0.00000  Uiso   1.00
H1204  H     0.74835   0.48794   0.65891   0.00000  Uiso   1.00
H1205  H     0.73694   0.46935   0.60151   0.00000  Uiso   1.00
H1206  H     0.70510   0.51034   0.62639   0.00000  Uiso   1.00
Br1207 Br    0.71667   0.55126   0.92954   0.00000  Uiso   1.00
Br1208 Br    0.95776   0.46935   0.57047   0.00000  Uiso   1.00
Br1209 Br    0.71467   0.56572   0.53626   0.00000  Uiso   1.00
Br1210 Br    0.96587   0.47526   0.96420   0.00000  Uiso   1.00
O1211  O     0.87749   0.37957   0.81626   0.00000  Uiso   1.00
C1212  C     0.92039   0.37483   0.80870   0.00000  Uiso   1.00
H1213  H     0.93449   0.40797   0.80448   0.00000  Uiso   1.00
H1214  H     0.92759   0.35578   0.77828   0.00000  Uiso   1.00
H1215  H     0.93673   0.35938   0.83868   0.00000  Uiso   1.00
O1216  O     0.79831   0.62103   0.67763   0.00000  Uiso   1.00
C1217  C     0.75568   0.61136   0.68197   0.00000  Uiso   1.00
H1218  H     0.75089   0.57490   0.68042   0.00000  Uiso   1.00
H1219  H     0.73718   0.62577   0.65283   0.00000  Uiso   1.00
H1220  H     0.74255   0.62329   0.71333   0.00000  Uiso   1.00
O1221  O     0.79705   0.38110   0.67856   0.00000  Uiso   1.00
C1222  C     0.75328   0.38353   0.67992   0.00000  Uiso   1.00
H1223  H     0.74389   0.41884   0.68012   0.00000  Uiso   1.00
H1224  H     0.73997   0.36711   0.70952   0.00000  Uiso   1.00
H1225  H     0.73866   0.36924   0.64880   0.00000  Uiso   1.00
O1226  O     0.86466   0.62013   0.82443   0.00000  Uiso   1.00
C1227  C     0.90616   0.60492   0.82337   0.00000  Uiso   1.00
H1228  H     0.92191   0.61414   0.79253   0.00000  Uiso   1.00
H1229  H     0.90699   0.56811   0.82734   0.00000  Uiso   1.00
H1230  H     0.92460   0.61828   0.85272   0.00000  Uiso   1.00
C1231  C     0.08676   0.83331   0.75048   0.00000  Uiso   1.00
C1232  C     0.24646   0.83340   0.74822   0.00000  Uiso   1.00
C1233  C     0.09650   0.86951   0.51460   0.00000  Uiso   1.00
C1234  C     0.24490   0.82104   0.98583   0.00000  Uiso   1.00
C1235  C     0.02094   0.79284   0.74499   0.00000  Uiso   1.00
C1236  C     0.31211   0.87409   0.75003   0.00000  Uiso   1.00
C1237  C     0.31162   0.79308   0.74241   0.00000  Uiso   1.00
C1238  C     0.02139   0.87393   0.75208   0.00000  Uiso   1.00
C1239  C     0.29060   0.83356   0.74644   0.00000  Uiso   1.00
C1240  C     0.04247   0.83330   0.74961   0.00000  Uiso   1.00
C1241  C     0.18735   0.69026   0.78371   0.00000  Uiso   1.00
C1242  C     0.14783   0.97648   0.71502   0.00000  Uiso   1.00
C1243  C     0.14718   0.69108   0.71543   0.00000  Uiso   1.00
C1244  C     0.18543   0.97570   0.78506   0.00000  Uiso   1.00
C1245  C     0.16490   0.83371   0.66355   0.00000  Uiso   1.00
C1246  C     0.16897   0.83322   0.83653   0.00000  Uiso   1.00
C1247  C     0.20920   0.83153   0.91037   0.00000  Uiso   1.00
C1248  C     0.12959   0.85161   0.58991   0.00000  Uiso   1.00
C1249  C     0.17102   0.83343   0.88461   0.00000  Uiso   1.00
C1250  C     0.16419   0.83492   0.61567   0.00000  Uiso   1.00
C1251  C     0.13400   0.84175   0.90401   0.00000  Uiso   1.00
C1252  C     0.20031   0.82256   0.59664   0.00000  Uiso   1.00
C1253  C     0.13353   0.84853   0.94969   0.00000  Uiso   1.00
C1254  C     0.20364   0.82665   0.55083   0.00000  Uiso   1.00
C1255  C     0.17014   0.83959   0.97696   0.00000  Uiso   1.00
C1256  C     0.16819   0.84008   0.52353   0.00000  Uiso   1.00
C1257  C     0.20862   0.83055   0.95750   0.00000  Uiso   1.00
C1258  C     0.13088   0.85398   0.54291   0.00000  Uiso   1.00
C1259  C     0.09743   0.86491   0.96815   0.00000  Uiso   1.00
C1260  C     0.24187   0.81792   0.53224   0.00000  Uiso   1.00
H1261  H     0.10594   0.84486   0.88230   0.00000  Uiso   1.00
H1262  H     0.22608   0.81103   0.61873   0.00000  Uiso   1.00
H1263  H     0.03679   0.76107   0.74348   0.00000  Uiso   1.00
H1264  H     0.29629   0.90583   0.75158   0.00000  Uiso   1.00
H1265  H     0.29534   0.76164   0.73767   0.00000  Uiso   1.00
H1266  H     0.03761   0.90549   0.75598   0.00000  Uiso   1.00
N1267  N     0.16667   0.95240   0.75000   0.00000  Uiso   1.00
N1268  N     0.16667   0.71427   0.75000   0.00000  Uiso   1.00
O1269  O     0.10559   0.87154   0.74999   0.00000  Uiso   1.00
O1270  O     0.22774   0.79513   0.75000   0.00000  Uiso   1.00
O1271  O     0.22774   0.87154   0.75000   0.00000  Uiso   1.00
O1272  O     0.10559   0.79513   0.74999   0.00000  Uiso   1.00
O1273  O     0.16666   0.87156   0.68392   0.00000  Uiso   1.00
O1274  O     0.16667   0.79511   0.81608   0.00000  Uiso   1.00
O1275  O     0.16667   0.87156   0.81607   0.00000  Uiso   1.00
O1276  O     0.16666   0.79511   0.68392   0.00000  Uiso   1.00
Zn1277 Zn    0.16667   0.88437   0.75000   0.00000  Uiso   1.00
Zn1278 Zn    0.16667   0.78229   0.75000   0.00000  Uiso   1.00
O1279  O     0.24627   0.83958   0.89048   0.00000  Uiso   1.00
C1280  C     0.25795   0.80190   0.86652   0.00000  Uiso   1.00
H1281  H     0.24408   0.80416   0.83221   0.00000  Uiso   1.00
H1282  H     0.24980   0.76955   0.88283   0.00000  Uiso   1.00
H1283  H     0.29222   0.80254   0.86393   0.00000  Uiso   1.00
O1284  O     0.09570   0.86763   0.61096   0.00000  Uiso   1.00
C1285  C     0.07092   0.83165   0.62470   0.00000  Uiso   1.00
H1286  H     0.08168   0.82128   0.65891   0.00000  Uiso   1.00
H1287  H     0.07027   0.80268   0.60151   0.00000  Uiso   1.00
H1288  H     0.03843   0.84367   0.62639   0.00000  Uiso   1.00
Br1289 Br    0.05000   0.88459   0.92954   0.00000  Uiso   1.00
Br1290 Br    0.29110   0.80269   0.57047   0.00000  Uiso   1.00
Br1291 Br    0.04800   0.89905   0.53626   0.00000  Uiso   1.00
Br1292 Br    0.29920   0.80859   0.96420   0.00000  Uiso   1.00
O1293  O     0.21082   0.71291   0.81626   0.00000  Uiso   1.00
C1294  C     0.25372   0.70816   0.80870   0.00000  Uiso   1.00
H1295  H     0.26783   0.74131   0.80448   0.00000  Uiso   1.00
H1296  H     0.26093   0.68911   0.77828   0.00000  Uiso   1.00
H1297  H     0.27007   0.69271   0.83868   0.00000  Uiso   1.00
O1298  O     0.13164   0.95437   0.67763   0.00000  Uiso   1.00
C1299  C     0.08902   0.94469   0.68197   0.00000  Uiso   1.00
H1300  H     0.08422   0.90823   0.68042   0.00000  Uiso   1.00
H1301  H     0.07052   0.95911   0.65283   0.00000  Uiso   1.00
H1302  H     0.07589   0.95662   0.71333   0.00000  Uiso   1.00
O1303  O     0.13038   0.71443   0.67856   0.00000  Uiso   1.00
C1304  C     0.08661   0.71687   0.67992   0.00000  Uiso   1.00
H1305  H     0.07722   0.75218   0.68012   0.00000  Uiso   1.00
H1306  H     0.07330   0.70045   0.70952   0.00000  Uiso   1.00
H1307  H     0.07200   0.70258   0.64880   0.00000  Uiso   1.00
O1308  O     0.19799   0.95347   0.82443   0.00000  Uiso   1.00
C1309  C     0.23949   0.93826   0.82337   0.00000  Uiso   1.00
H1310  H     0.25524   0.94748   0.79253   0.00000  Uiso   1.00
H1311  H     0.24033   0.90144   0.82734   0.00000  Uiso   1.00
H1312  H     0.25794   0.95161   0.85272   0.00000  Uiso   1.00
C1313  C     0.42009   0.83331   0.75048   0.00000  Uiso   1.00
C1314  C     0.57980   0.83340   0.74822   0.00000  Uiso   1.00
C1315  C     0.42984   0.86951   0.51460   0.00000  Uiso   1.00
C1316  C     0.57823   0.82104   0.98583   0.00000  Uiso   1.00
C1317  C     0.35427   0.79284   0.74499   0.00000  Uiso   1.00
C1318  C     0.64544   0.87409   0.75003   0.00000  Uiso   1.00
C1319  C     0.64495   0.79308   0.74241   0.00000  Uiso   1.00
C1320  C     0.35472   0.87393   0.75208   0.00000  Uiso   1.00
C1321  C     0.62393   0.83356   0.74644   0.00000  Uiso   1.00
C1322  C     0.37580   0.83330   0.74961   0.00000  Uiso   1.00
C1323  C     0.52069   0.69026   0.78371   0.00000  Uiso   1.00
C1324  C     0.48117   0.97648   0.71502   0.00000  Uiso   1.00
C1325  C     0.48051   0.69108   0.71543   0.00000  Uiso   1.00
C1326  C     0.51876   0.97570   0.78506   0.00000  Uiso   1.00
C1327  C     0.49824   0.83371   0.66355   0.00000  Uiso   1.00
C1328  C     0.50231   0.83322   0.83653   0.00000  Uiso   1.00
C1329  C     0.54254   0.83153   0.91037   0.00000  Uiso   1.00
C1330  C     0.46292   0.85161   0.58991   0.00000  Uiso   1.00
C1331  C     0.50436   0.83343   0.88461   0.00000  Uiso   1.00
C1332  C     0.49752   0.83492   0.61567   0.00000  Uiso   1.00
C1333  C     0.46733   0.84175   0.90401   0.00000  Uiso   1.00
C1334  C     0.53364   0.82256   0.59664   0.00000  Uiso   1.00
C1335  C     0.46686   0.84853   0.94969   0.00000  Uiso   1.00
C1336  C     0.53697   0.82665   0.55083   0.00000  Uiso   1.00
C1337  C     0.50348   0.83959   0.97696   0.00000  Uiso   1.00
C1338  C     0.50152   0.84008   0.52353   0.00000  Uiso   1.00
C1339  C     0.54196   0.83055   0.95750   0.00000  Uiso   1.00
C1340  C     0.46422   0.85398   0.54291   0.00000  Uiso   1.00
C1341  C     0.43077   0.86491   0.96815   0.00000  Uiso   1.00
C1342  C     0.57520   0.81792   0.53224   0.00000  Uiso   1.00
H1343  H     0.43927   0.84486   0.88230   0.00000  Uiso   1.00
H1344  H     0.55942   0.81103   0.61873   0.00000  Uiso   1.00
H1345  H     0.37013   0.76107   0.74348   0.00000  Uiso   1.00
H1346  H     0.62963   0.90583   0.75158   0.00000  Uiso   1.00
H1347  H     0.62867   0.76164   0.73767   0.00000  Uiso   1.00
H1348  H     0.37094   0.90549   0.75598   0.00000  Uiso   1.00
N1349  N     0.50000   0.95240   0.75000   0.00000  Uiso   1.00
N1350  N     0.50000   0.71427   0.75000   0.00000  Uiso   1.00
O1351  O     0.43892   0.87154   0.74999   0.00000  Uiso   1.00
O1352  O     0.56108   0.79513   0.75000   0.00000  Uiso   1.00
O1353  O     0.56108   0.87154   0.75000   0.00000  Uiso   1.00
O1354  O     0.43892   0.79513   0.74999   0.00000  Uiso   1.00
O1355  O     0.49999   0.87156   0.68392   0.00000  Uiso   1.00
O1356  O     0.50001   0.79511   0.81608   0.00000  Uiso   1.00
O1357  O     0.50001   0.87156   0.81607   0.00000  Uiso   1.00
O1358  O     0.49999   0.79511   0.68392   0.00000  Uiso   1.00
Zn1359 Zn    0.50000   0.88437   0.75000   0.00000  Uiso   1.00
Zn1360 Zn    0.50000   0.78229   0.75000   0.00000  Uiso   1.00
O1361  O     0.57961   0.83958   0.89048   0.00000  Uiso   1.00
C1362  C     0.59128   0.80190   0.86652   0.00000  Uiso   1.00
H1363  H     0.57741   0.80416   0.83221   0.00000  Uiso   1.00
H1364  H     0.58314   0.76955   0.88283   0.00000  Uiso   1.00
H1365  H     0.62555   0.80254   0.86393   0.00000  Uiso   1.00
O1366  O     0.42904   0.86763   0.61096   0.00000  Uiso   1.00
C1367  C     0.40425   0.83165   0.62470   0.00000  Uiso   1.00
H1368  H     0.41501   0.82128   0.65891   0.00000  Uiso   1.00
H1369  H     0.40361   0.80268   0.60151   0.00000  Uiso   1.00
H1370  H     0.37177   0.84367   0.62639   0.00000  Uiso   1.00
Br1371 Br    0.38333   0.88459   0.92954   0.00000  Uiso   1.00
Br1372 Br    0.62443   0.80269   0.57047   0.00000  Uiso   1.00
Br1373 Br    0.38134   0.89905   0.53626   0.00000  Uiso   1.00
Br1374 Br    0.63254   0.80859   0.96420   0.00000  Uiso   1.00
O1375  O     0.54416   0.71291   0.81626   0.00000  Uiso   1.00
C1376  C     0.58705   0.70816   0.80870   0.00000  Uiso   1.00
H1377  H     0.60116   0.74131   0.80448   0.00000  Uiso   1.00
H1378  H     0.59426   0.68911   0.77828   0.00000  Uiso   1.00
H1379  H     0.60340   0.69271   0.83868   0.00000  Uiso   1.00
O1380  O     0.46498   0.95437   0.67763   0.00000  Uiso   1.00
C1381  C     0.42235   0.94469   0.68197   0.00000  Uiso   1.00
H1382  H     0.41755   0.90823   0.68042   0.00000  Uiso   1.00
H1383  H     0.40385   0.95911   0.65283   0.00000  Uiso   1.00
H1384  H     0.40922   0.95662   0.71333   0.00000  Uiso   1.00
O1385  O     0.46371   0.71443   0.67856   0.00000  Uiso   1.00
C1386  C     0.41994   0.71687   0.67992   0.00000  Uiso   1.00
H1387  H     0.41055   0.75218   0.68012   0.00000  Uiso   1.00
H1388  H     0.40664   0.70045   0.70952   0.00000  Uiso   1.00
H1389  H     0.40533   0.70258   0.64880   0.00000  Uiso   1.00
O1390  O     0.53132   0.95347   0.82443   0.00000  Uiso   1.00
C1391  C     0.57283   0.93826   0.82337   0.00000  Uiso   1.00
H1392  H     0.58858   0.94748   0.79253   0.00000  Uiso   1.00
H1393  H     0.57366   0.90144   0.82734   0.00000  Uiso   1.00
H1394  H     0.59127   0.95161   0.85272   0.00000  Uiso   1.00
C1395  C     0.75342   0.83331   0.75048   0.00000  Uiso   1.00
C1396  C     0.91313   0.83340   0.74822   0.00000  Uiso   1.00
C1397  C     0.76317   0.86951   0.51460   0.00000  Uiso   1.00
C1398  C     0.91156   0.82104   0.98583   0.00000  Uiso   1.00
C1399  C     0.68761   0.79284   0.74499   0.00000  Uiso   1.00
C1400  C     0.97877   0.87409   0.75003   0.00000  Uiso   1.00
C1401  C     0.97829   0.79308   0.74241   0.00000  Uiso   1.00
C1402  C     0.68806   0.87393   0.75208   0.00000  Uiso   1.00
C1403  C     0.95726   0.83356   0.74644   0.00000  Uiso   1.00
C1404  C     0.70914   0.83330   0.74961   0.00000  Uiso   1.00
C1405  C     0.85402   0.69026   0.78371   0.00000  Uiso   1.00
C1406  C     0.81450   0.97648   0.71502   0.00000  Uiso   1.00
C1407  C     0.81385   0.69108   0.71543   0.00000  Uiso   1.00
C1408  C     0.85210   0.97570   0.78506   0.00000  Uiso   1.00
C1409  C     0.83157   0.83371   0.66355   0.00000  Uiso   1.00
C1410  C     0.83564   0.83322   0.83653   0.00000  Uiso   1.00
C1411  C     0.87587   0.83153   0.91037   0.00000  Uiso   1.00
C1412  C     0.79625   0.85161   0.58991   0.00000  Uiso   1.00
C1413  C     0.83769   0.83343   0.88461   0.00000  Uiso   1.00
C1414  C     0.83086   0.83492   0.61567   0.00000  Uiso   1.00
C1415  C     0.80067   0.84175   0.90401   0.00000  Uiso   1.00
C1416  C     0.86698   0.82256   0.59664   0.00000  Uiso   1.00
C1417  C     0.80019   0.84853   0.94969   0.00000  Uiso   1.00
C1418  C     0.87031   0.82665   0.55083   0.00000  Uiso   1.00
C1419  C     0.83681   0.83959   0.97696   0.00000  Uiso   1.00
C1420  C     0.83485   0.84008   0.52353   0.00000  Uiso   1.00
C1421  C     0.87529   0.83055   0.95750   0.00000  Uiso   1.00
C1422  C     0.79755   0.85398   0.54291   0.00000  Uiso   1.00
C1423  C     0.76410   0.86491   0.96815   0.00000  Uiso   1.00
C1424  C     0.90854   0.81792   0.53224   0.00000  Uiso   1.00
H1425  H     0.77261   0.84486   0.88230   0.00000  Uiso   1.00
H1426  H     0.89275   0.81103   0.61873   0.00000  Uiso   1.00
H1427  H     0.70346   0.76107   0.74348   0.00000  Uiso   1.00
H1428  H     0.96296   0.90583   0.75158   0.00000  Uiso   1.00
H1429  H     0.96200   0.76164   0.73767   0.00000  Uiso   1.00
H1430  H     0.70428   0.90549   0.75598   0.00000  Uiso   1.00
N1431  N     0.83333   0.95240   0.75000   0.00000  Uiso   1.00
N1432  N     0.83333   0.71427   0.75000   0.00000  Uiso   1.00
O1433  O     0.77226   0.87154   0.74999   0.00000  Uiso   1.00
O1434  O     0.89441   0.79513   0.75000   0.00000  Uiso   1.00
O1435  O     0.89441   0.87154   0.75000   0.00000  Uiso   1.00
O1436  O     0.77226   0.79513   0.74999   0.00000  Uiso   1.00
O1437  O     0.83333   0.87156   0.68392   0.00000  Uiso   1.00
O1438  O     0.83334   0.79511   0.81608   0.00000  Uiso   1.00
O1439  O     0.83334   0.87156   0.81607   0.00000  Uiso   1.00
O1440  O     0.83333   0.79511   0.68392   0.00000  Uiso   1.00
Zn1441 Zn    0.83333   0.88437   0.75000   0.00000  Uiso   1.00
Zn1442 Zn    0.83333   0.78229   0.75000   0.00000  Uiso   1.00
O1443  O     0.91294   0.83958   0.89048   0.00000  Uiso   1.00
C1444  C     0.92461   0.80190   0.86652   0.00000  Uiso   1.00
H1445  H     0.91075   0.80416   0.83221   0.00000  Uiso   1.00
H1446  H     0.91647   0.76955   0.88283   0.00000  Uiso   1.00
H1447  H     0.95888   0.80254   0.86393   0.00000  Uiso   1.00
O1448  O     0.76237   0.86763   0.61096   0.00000  Uiso   1.00
C1449  C     0.73759   0.83165   0.62470   0.00000  Uiso   1.00
H1450  H     0.74835   0.82128   0.65891   0.00000  Uiso   1.00
H1451  H     0.73694   0.80268   0.60151   0.00000  Uiso   1.00
H1452  H     0.70510   0.84367   0.62639   0.00000  Uiso   1.00
Br1453 Br    0.71667   0.88459   0.92954   0.00000  Uiso   1.00
Br1454 Br    0.95776   0.80269   0.57047   0.00000  Uiso   1.00
Br1455 Br    0.71467   0.89905   0.53626   0.00000  Uiso   1.00
Br1456 Br    0.96587   0.80859   0.96420   0.00000  Uiso   1.00
O1457  O     0.87749   0.71291   0.81626   0.00000  Uiso   1.00
C1458  C     0.92039   0.70816   0.80870   0.00000  Uiso   1.00
H1459  H     0.93449   0.74131   0.80448   0.00000  Uiso   1.00
H1460  H     0.92759   0.68911   0.77828   0.00000  Uiso   1.00
H1461  H     0.93673   0.69271   0.83868   0.00000  Uiso   1.00
O1462  O     0.79831   0.95437   0.67763   0.00000  Uiso   1.00
C1463  C     0.75568   0.94469   0.68197   0.00000  Uiso   1.00
H1464  H     0.75089   0.90823   0.68042   0.00000  Uiso   1.00
H1465  H     0.73718   0.95911   0.65283   0.00000  Uiso   1.00
H1466  H     0.74255   0.95662   0.71333   0.00000  Uiso   1.00
O1467  O     0.79705   0.71443   0.67856   0.00000  Uiso   1.00
C1468  C     0.75328   0.71687   0.67992   0.00000  Uiso   1.00
H1469  H     0.74389   0.75218   0.68012   0.00000  Uiso   1.00
H1470  H     0.73997   0.70045   0.70952   0.00000  Uiso   1.00
H1471  H     0.73866   0.70258   0.64880   0.00000  Uiso   1.00
O1472  O     0.86466   0.95347   0.82443   0.00000  Uiso   1.00
C1473  C     0.90616   0.93826   0.82337   0.00000  Uiso   1.00
H1474  H     0.92191   0.94748   0.79253   0.00000  Uiso   1.00
H1475  H     0.90699   0.90144   0.82734   0.00000  Uiso   1.00
H1476  H     0.92460   0.95161   0.85272   0.00000  Uiso   1.00
loop_
_geom_bond_atom_site_label_1
_geom_bond_atom_site_label_2
_geom_bond_distance
_geom_bond_site_symmetry_2
_ccdc_geom_bond_type
C1     C10     1.423   .     S
C1     O39     1.293   .     A
C1     O42     1.292   .     A
C2     O41     1.292   .     A
C2     O40     1.294   .     A
C2     C9      1.423   .     S
C3     C28     1.425   .     A
C3     Br61    1.942   .     S
C3     C767    1.401   1_554 S
C4     Br62    1.937   .     S
C4     C27     1.426   .     A
C4     C768    1.400   .     S
C5     H33     1.080   .     S
C5     C10     1.397   .     A
C5     C171    1.369   1_455 S
C6     C9      1.396   .     A
C6     H34     1.079   .     S
C6     C90     1.368   .     S
C7     C9      1.396   .     A
C7     H35     1.082   .     S
C7     C87     1.369   .     S
C8     H36     1.082   .     S
C8     C10     1.396   .     A
C8     C170    1.368   1_455 S
C11    N38     1.369   .     A
C11    O63     1.380   .     S
C11    C506    1.432   1_545 S
C12    N37     1.373   .     A
C12    O68     1.381   .     S
C12    C259    1.432   .     S
C13    N38     1.372   .     A
C13    O73     1.380   .     S
C13    C504    1.432   1_545 S
C14    N37     1.375   .     A
C14    O78     1.384   .     S
C14    C257    1.432   .     S
C15    C20     1.432   .     S
C15    O43     1.291   .     A
C15    O46     1.297   .     A
C16    O44     1.300   .     A
C16    O45     1.292   .     A
C16    C19     1.437   .     S
C17    C27     1.412   .     A
C17    O49     1.384   .     S
C17    C19     1.410   .     A
C18    C28     1.411   .     A
C18    O54     1.380   .     S
C18    C20     1.403   .     A
C19    C21     1.380   .     A
C20    C22     1.377   .     A
C21    H31     1.082   .     S
C21    C23     1.386   .     A
C22    H32     1.082   .     S
C22    C24     1.385   .     A
C23    C29     1.406   .     A
C23    C25     1.415   .     A
C24    C26     1.416   .     A
C24    C30     1.406   .     A
C25    C27     1.427   .     A
C25    C764    1.399   .     S
C26    C28     1.428   .     A
C26    C763    1.399   1_554 S
C29    Br59    1.943   .     S
C29    C741    1.401   .     S
C30    Br60    1.946   .     S
C30    C742    1.400   1_554 S
N37    Zn47    2.032   .     S
N38    Zn48    2.032   .     S
O39    Zn47    2.001   .     S
O40    Zn48    2.001   .     S
O41    Zn47    2.001   .     S
O42    Zn48    2.001   .     S
O43    Zn47    2.019   .     S
O44    Zn48    2.019   .     S
O45    Zn47    2.009   .     S
O46    Zn48    2.009   .     S
O49    C50     1.406   .     S
C50    H52     1.115   .     S
C50    H53     1.109   .     S
C50    H51     1.096   .     S
O54    C55     1.410   .     S
C55    H56     1.101   .     S
C55    H57     1.116   .     S
C55    H58     1.109   .     S
O63    C64     1.419   .     S
C64    H67     1.107   .     S
C64    H66     1.116   .     S
C64    H65     1.098   .     S
O68    C69     1.414   .     S
C69    H71     1.108   .     S
C69    H72     1.115   .     S
C69    H70     1.101   .     S
O73    C74     1.412   .     S
C74    H76     1.115   .     S
C74    H77     1.108   .     S
C74    H75     1.098   .     S
O78    C79     1.412   .     S
C79    H80     1.111   .     S
C79    H81     1.105   .     S
C79    H82     1.108   .     S
C83    C92     1.423   .     S
C83    O121    1.293   .     A
C83    O124    1.292   .     A
C84    O123    1.292   .     A
C84    O122    1.294   .     A
C84    C91     1.423   .     S
C85    C110    1.425   .     A
C85    Br143   1.942   .     S
C85    C849    1.401   1_554 S
C86    Br144   1.937   .     S
C86    C109    1.426   .     A
C86    C850    1.400   .     S
C87    H115    1.080   .     S
C87    C92     1.397   .     A
C88    C91     1.396   .     A
C88    H116    1.079   .     S
C88    C172    1.368   .     S
C89    C91     1.396   .     A
C89    H117    1.082   .     S
C89    C169    1.369   .     S
C90    H118    1.082   .     S
C90    C92     1.396   .     A
C93    N120    1.369   .     A
C93    O145    1.380   .     S
C93    C588    1.432   1_545 S
C94    N119    1.373   .     A
C94    O150    1.381   .     S
C94    C341    1.432   .     S
C95    N120    1.372   .     A
C95    O155    1.380   .     S
C95    C586    1.432   1_545 S
C96    N119    1.375   .     A
C96    O160    1.384   .     S
C96    C339    1.432   .     S
C97    C102    1.432   .     S
C97    O125    1.291   .     A
C97    O128    1.297   .     A
C98    O126    1.300   .     A
C98    O127    1.292   .     A
C98    C101    1.437   .     S
C99    C109    1.412   .     A
C99    O131    1.384   .     S
C99    C101    1.410   .     A
C100   C110    1.411   .     A
C100   O136    1.380   .     S
C100   C102    1.403   .     A
C101   C103    1.380   .     A
C102   C104    1.377   .     A
C103   H113    1.082   .     S
C103   C105    1.386   .     A
C104   H114    1.082   .     S
C104   C106    1.385   .     A
C105   C111    1.406   .     A
C105   C107    1.415   .     A
C106   C108    1.416   .     A
C106   C112    1.406   .     A
C107   C109    1.427   .     A
C107   C846    1.399   .     S
C108   C110    1.428   .     A
C108   C845    1.399   1_554 S
C111   Br141   1.943   .     S
C111   C823    1.401   .     S
C112   Br142   1.946   .     S
C112   C824    1.400   1_554 S
N119   Zn129   2.032   .     S
N120   Zn130   2.032   .     S
O121   Zn129   2.001   .     S
O122   Zn130   2.001   .     S
O123   Zn129   2.001   .     S
O124   Zn130   2.001   .     S
O125   Zn129   2.019   .     S
O126   Zn130   2.019   .     S
O127   Zn129   2.009   .     S
O128   Zn130   2.009   .     S
O131   C132    1.406   .     S
C132   H134    1.115   .     S
C132   H135    1.109   .     S
C132   H133    1.096   .     S
O136   C137    1.410   .     S
C137   H138    1.101   .     S
C137   H139    1.116   .     S
C137   H140    1.109   .     S
O145   C146    1.419   .     S
C146   H149    1.107   .     S
C146   H148    1.116   .     S
C146   H147    1.098   .     S
O150   C151    1.414   .     S
C151   H153    1.108   .     S
C151   H154    1.115   .     S
C151   H152    1.101   .     S
O155   C156    1.412   .     S
C156   H158    1.115   .     S
C156   H159    1.108   .     S
C156   H157    1.098   .     S
O160   C161    1.412   .     S
C161   H162    1.111   .     S
C161   H163    1.105   .     S
C161   H164    1.108   .     S
C165   C174    1.423   .     S
C165   O203    1.293   .     A
C165   O206    1.292   .     A
C166   O205    1.292   .     A
C166   O204    1.294   .     A
C166   C173    1.423   .     S
C167   C192    1.425   .     A
C167   Br225   1.942   .     S
C167   C931    1.401   1_554 S
C168   Br226   1.937   .     S
C168   C191    1.426   .     A
C168   C932    1.400   .     S
C169   H197    1.080   .     S
C169   C174    1.397   .     A
C170   C173    1.396   .     A
C170   H198    1.079   .     S
C170   C8      1.368   1_655 S
C171   C173    1.396   .     A
C171   H199    1.082   .     S
C171   C5      1.369   1_655 S
C172   H200    1.082   .     S
C172   C174    1.396   .     A
C175   N202    1.369   .     A
C175   O227    1.380   .     S
C175   C670    1.432   1_545 S
C176   N201    1.373   .     A
C176   O232    1.381   .     S
C176   C423    1.432   .     S
C177   N202    1.372   .     A
C177   O237    1.380   .     S
C177   C668    1.432   1_545 S
C178   N201    1.375   .     A
C178   O242    1.384   .     S
C178   C421    1.432   .     S
C179   C184    1.432   .     S
C179   O207    1.291   .     A
C179   O210    1.297   .     A
C180   O208    1.300   .     A
C180   O209    1.292   .     A
C180   C183    1.437   .     S
C181   C191    1.412   .     A
C181   O213    1.384   .     S
C181   C183    1.410   .     A
C182   C192    1.411   .     A
C182   O218    1.380   .     S
C182   C184    1.403   .     A
C183   C185    1.380   .     A
C184   C186    1.377   .     A
C185   H195    1.082   .     S
C185   C187    1.386   .     A
C186   H196    1.082   .     S
C186   C188    1.385   .     A
C187   C193    1.406   .     A
C187   C189    1.415   .     A
C188   C190    1.416   .     A
C188   C194    1.406   .     A
C189   C191    1.427   .     A
C189   C928    1.399   .     S
C190   C192    1.428   .     A
C190   C927    1.399   1_554 S
C193   Br223   1.943   .     S
C193   C905    1.401   .     S
C194   Br224   1.946   .     S
C194   C906    1.400   1_554 S
N201   Zn211   2.032   .     S
N202   Zn212   2.032   .     S
O203   Zn211   2.001   .     S
O204   Zn212   2.001   .     S
O205   Zn211   2.001   .     S
O206   Zn212   2.001   .     S
O207   Zn211   2.019   .     S
O208   Zn212   2.019   .     S
O209   Zn211   2.009   .     S
O210   Zn212   2.009   .     S
O213   C214    1.406   .     S
C214   H216    1.115   .     S
C214   H217    1.109   .     S
C214   H215    1.096   .     S
O218   C219    1.410   .     S
C219   H220    1.101   .     S
C219   H221    1.116   .     S
C219   H222    1.109   .     S
O227   C228    1.419   .     S
C228   H231    1.107   .     S
C228   H230    1.116   .     S
C228   H229    1.098   .     S
O232   C233    1.414   .     S
C233   H235    1.108   .     S
C233   H236    1.115   .     S
C233   H234    1.101   .     S
O237   C238    1.412   .     S
C238   H240    1.115   .     S
C238   H241    1.108   .     S
C238   H239    1.098   .     S
O242   C243    1.412   .     S
C243   H244    1.111   .     S
C243   H245    1.105   .     S
C243   H246    1.108   .     S
C247   C256    1.423   .     S
C247   O285    1.293   .     A
C247   O288    1.292   .     A
C248   O287    1.292   .     A
C248   O286    1.294   .     A
C248   C255    1.423   .     S
C249   C274    1.425   .     A
C249   Br307   1.942   .     S
C249   C1013   1.401   1_554 S
C250   Br308   1.937   .     S
C250   C273    1.426   .     A
C250   C1014   1.400   .     S
C251   H279    1.080   .     S
C251   C256    1.397   .     A
C251   C417    1.369   1_455 S
C252   C255    1.396   .     A
C252   H280    1.079   .     S
C252   C336    1.368   .     S
C253   C255    1.396   .     A
C253   H281    1.082   .     S
C253   C333    1.369   .     S
C254   H282    1.082   .     S
C254   C256    1.396   .     A
C254   C416    1.368   1_455 S
C257   N284    1.369   .     A
C257   O309    1.380   .     S
C258   N283    1.373   .     A
C258   O314    1.381   .     S
C258   C505    1.432   .     S
C259   N284    1.372   .     A
C259   O319    1.380   .     S
C260   N283    1.375   .     A
C260   O324    1.384   .     S
C260   C503    1.432   .     S
C261   C266    1.432   .     S
C261   O289    1.291   .     A
C261   O292    1.297   .     A
C262   O290    1.300   .     A
C262   O291    1.292   .     A
C262   C265    1.437   .     S
C263   C273    1.412   .     A
C263   O295    1.384   .     S
C263   C265    1.410   .     A
C264   C274    1.411   .     A
C264   O300    1.380   .     S
C264   C266    1.403   .     A
C265   C267    1.380   .     A
C266   C268    1.377   .     A
C267   H277    1.082   .     S
C267   C269    1.386   .     A
C268   H278    1.082   .     S
C268   C270    1.385   .     A
C269   C275    1.406   .     A
C269   C271    1.415   .     A
C270   C272    1.416   .     A
C270   C276    1.406   .     A
C271   C273    1.427   .     A
C271   C1010   1.399   .     S
C272   C274    1.428   .     A
C272   C1009   1.399   1_554 S
C275   Br305   1.943   .     S
C275   C987    1.401   .     S
C276   Br306   1.946   .     S
C276   C988    1.400   1_554 S
N283   Zn293   2.032   .     S
N284   Zn294   2.032   .     S
O285   Zn293   2.001   .     S
O286   Zn294   2.001   .     S
O287   Zn293   2.001   .     S
O288   Zn294   2.001   .     S
O289   Zn293   2.019   .     S
O290   Zn294   2.019   .     S
O291   Zn293   2.009   .     S
O292   Zn294   2.009   .     S
O295   C296    1.406   .     S
C296   H298    1.115   .     S
C296   H299    1.109   .     S
C296   H297    1.096   .     S
O300   C301    1.410   .     S
C301   H302    1.101   .     S
C301   H303    1.116   .     S
C301   H304    1.109   .     S
O309   C310    1.419   .     S
C310   H313    1.107   .     S
C310   H312    1.116   .     S
C310   H311    1.098   .     S
O314   C315    1.414   .     S
C315   H317    1.108   .     S
C315   H318    1.115   .     S
C315   H316    1.101   .     S
O319   C320    1.412   .     S
C320   H322    1.115   .     S
C320   H323    1.108   .     S
C320   H321    1.098   .     S
O324   C325    1.412   .     S
C325   H326    1.111   .     S
C325   H327    1.105   .     S
C325   H328    1.108   .     S
C329   C338    1.423   .     S
C329   O367    1.293   .     A
C329   O370    1.292   .     A
C330   O369    1.292   .     A
C330   O368    1.294   .     A
C330   C337    1.423   .     S
C331   C356    1.425   .     A
C331   Br389   1.942   .     S
C331   C1095   1.401   1_554 S
C332   Br390   1.937   .     S
C332   C355    1.426   .     A
C332   C1096   1.400   .     S
C333   H361    1.080   .     S
C333   C338    1.397   .     A
C334   C337    1.396   .     A
C334   H362    1.079   .     S
C334   C418    1.368   .     S
C335   C337    1.396   .     A
C335   H363    1.082   .     S
C335   C415    1.369   .     S
C336   H364    1.082   .     S
C336   C338    1.396   .     A
C339   N366    1.369   .     A
C339   O391    1.380   .     S
C340   N365    1.373   .     A
C340   O396    1.381   .     S
C340   C587    1.432   .     S
C341   N366    1.372   .     A
C341   O401    1.380   .     S
C342   N365    1.375   .     A
C342   O406    1.384   .     S
C342   C585    1.432   .     S
C343   C348    1.432   .     S
C343   O371    1.291   .     A
C343   O374    1.297   .     A
C344   O372    1.300   .     A
C344   O373    1.292   .     A
C344   C347    1.437   .     S
C345   C355    1.412   .     A
C345   O377    1.384   .     S
C345   C347    1.410   .     A
C346   C356    1.411   .     A
C346   O382    1.380   .     S
C346   C348    1.403   .     A
C347   C349    1.380   .     A
C348   C350    1.377   .     A
C349   H359    1.082   .     S
C349   C351    1.386   .     A
C350   H360    1.082   .     S
C350   C352    1.385   .     A
C351   C357    1.406   .     A
C351   C353    1.415   .     A
C352   C354    1.416   .     A
C352   C358    1.406   .     A
C353   C355    1.427   .     A
C353   C1092   1.399   .     S
C354   C356    1.428   .     A
C354   C1091   1.399   1_554 S
C357   Br387   1.943   .     S
C357   C1069   1.401   .     S
C358   Br388   1.946   .     S
C358   C1070   1.400   1_554 S
N365   Zn375   2.032   .     S
N366   Zn376   2.032   .     S
O367   Zn375   2.001   .     S
O368   Zn376   2.001   .     S
O369   Zn375   2.001   .     S
O370   Zn376   2.001   .     S
O371   Zn375   2.019   .     S
O372   Zn376   2.019   .     S
O373   Zn375   2.009   .     S
O374   Zn376   2.009   .     S
O377   C378    1.406   .     S
C378   H380    1.115   .     S
C378   H381    1.109   .     S
C378   H379    1.096   .     S
O382   C383    1.410   .     S
C383   H384    1.101   .     S
C383   H385    1.116   .     S
C383   H386    1.109   .     S
O391   C392    1.419   .     S
C392   H395    1.107   .     S
C392   H394    1.116   .     S
C392   H393    1.098   .     S
O396   C397    1.414   .     S
C397   H399    1.108   .     S
C397   H400    1.115   .     S
C397   H398    1.101   .     S
O401   C402    1.412   .     S
C402   H404    1.115   .     S
C402   H405    1.108   .     S
C402   H403    1.098   .     S
O406   C407    1.412   .     S
C407   H408    1.111   .     S
C407   H409    1.105   .     S
C407   H410    1.108   .     S
C411   C420    1.423   .     S
C411   O449    1.293   .     A
C411   O452    1.292   .     A
C412   O451    1.292   .     A
C412   O450    1.294   .     A
C412   C419    1.423   .     S
C413   C438    1.425   .     A
C413   Br471   1.942   .     S
C413   C1177   1.401   1_554 S
C414   Br472   1.937   .     S
C414   C437    1.426   .     A
C414   C1178   1.400   .     S
C415   H443    1.080   .     S
C415   C420    1.397   .     A
C416   C419    1.396   .     A
C416   H444    1.079   .     S
C416   C254    1.368   1_655 S
C417   C419    1.396   .     A
C417   H445    1.082   .     S
C417   C251    1.369   1_655 S
C418   H446    1.082   .     S
C418   C420    1.396   .     A
C421   N448    1.369   .     A
C421   O473    1.380   .     S
C422   N447    1.373   .     A
C422   O478    1.381   .     S
C422   C669    1.432   .     S
C423   N448    1.372   .     A
C423   O483    1.380   .     S
C424   N447    1.375   .     A
C424   O488    1.384   .     S
C424   C667    1.432   .     S
C425   C430    1.432   .     S
C425   O453    1.291   .     A
C425   O456    1.297   .     A
C426   O454    1.300   .     A
C426   O455    1.292   .     A
C426   C429    1.437   .     S
C427   C437    1.412   .     A
C427   O459    1.384   .     S
C427   C429    1.410   .     A
C428   C438    1.411   .     A
C428   O464    1.380   .     S
C428   C430    1.403   .     A
C429   C431    1.380   .     A
C430   C432    1.377   .     A
C431   H441    1.082   .     S
C431   C433    1.386   .     A
C432   H442    1.082   .     S
C432   C434    1.385   .     A
C433   C439    1.406   .     A
C433   C435    1.415   .     A
C434   C436    1.416   .     A
C434   C440    1.406   .     A
C435   C437    1.427   .     A
C435   C1174   1.399   .     S
C436   C438    1.428   .     A
C436   C1173   1.399   1_554 S
C439   Br469   1.943   .     S
C439   C1151   1.401   .     S
C440   Br470   1.946   .     S
C440   C1152   1.400   1_554 S
N447   Zn457   2.032   .     S
N448   Zn458   2.032   .     S
O449   Zn457   2.001   .     S
O450   Zn458   2.001   .     S
O451   Zn457   2.001   .     S
O452   Zn458   2.001   .     S
O453   Zn457   2.019   .     S
O454   Zn458   2.019   .     S
O455   Zn457   2.009   .     S
O456   Zn458   2.009   .     S
O459   C460    1.406   .     S
C460   H462    1.115   .     S
C460   H463    1.109   .     S
C460   H461    1.096   .     S
O464   C465    1.410   .     S
C465   H466    1.101   .     S
C465   H467    1.116   .     S
C465   H468    1.109   .     S
O473   C474    1.419   .     S
C474   H477    1.107   .     S
C474   H476    1.116   .     S
C474   H475    1.098   .     S
O478   C479    1.414   .     S
C479   H481    1.108   .     S
C479   H482    1.115   .     S
C479   H480    1.101   .     S
O483   C484    1.412   .     S
C484   H486    1.115   .     S
C484   H487    1.108   .     S
C484   H485    1.098   .     S
O488   C489    1.412   .     S
C489   H490    1.111   .     S
C489   H491    1.105   .     S
C489   H492    1.108   .     S
C493   C502    1.423   .     S
C493   O531    1.293   .     A
C493   O534    1.292   .     A
C494   O533    1.292   .     A
C494   O532    1.294   .     A
C494   C501    1.423   .     S
C495   C520    1.425   .     A
C495   Br553   1.942   .     S
C495   C1259   1.401   1_554 S
C496   Br554   1.937   .     S
C496   C519    1.426   .     A
C496   C1260   1.400   .     S
C497   H525    1.080   .     S
C497   C502    1.397   .     A
C497   C663    1.369   1_455 S
C498   C501    1.396   .     A
C498   H526    1.079   .     S
C498   C582    1.368   .     S
C499   C501    1.396   .     A
C499   H527    1.082   .     S
C499   C579    1.369   .     S
C500   H528    1.082   .     S
C500   C502    1.396   .     A
C500   C662    1.368   1_455 S
C503   N530    1.369   .     A
C503   O555    1.380   .     S
C504   N529    1.373   .     A
C504   O560    1.381   .     S
C504   C13     1.432   1_565 S
C505   N530    1.372   .     A
C505   O565    1.380   .     S
C506   N529    1.375   .     A
C506   O570    1.384   .     S
C506   C11     1.432   1_565 S
C507   C512    1.432   .     S
C507   O535    1.291   .     A
C507   O538    1.297   .     A
C508   O536    1.300   .     A
C508   O537    1.292   .     A
C508   C511    1.437   .     S
C509   C519    1.412   .     A
C509   O541    1.384   .     S
C509   C511    1.410   .     A
C510   C520    1.411   .     A
C510   O546    1.380   .     S
C510   C512    1.403   .     A
C511   C513    1.380   .     A
C512   C514    1.377   .     A
C513   H523    1.082   .     S
C513   C515    1.386   .     A
C514   H524    1.082   .     S
C514   C516    1.385   .     A
C515   C521    1.406   .     A
C515   C517    1.415   .     A
C516   C518    1.416   .     A
C516   C522    1.406   .     A
C517   C519    1.427   .     A
C517   C1256   1.399   .     S
C518   C520    1.428   .     A
C518   C1255   1.399   1_554 S
C521   Br551   1.943   .     S
C521   C1233   1.401   .     S
C522   Br552   1.946   .     S
C522   C1234   1.400   1_554 S
N529   Zn539   2.032   .     S
N530   Zn540   2.032   .     S
O531   Zn539   2.001   .     S
O532   Zn540   2.001   .     S
O533   Zn539   2.001   .     S
O534   Zn540   2.001   .     S
O535   Zn539   2.019   .     S
O536   Zn540   2.019   .     S
O537   Zn539   2.009   .     S
O538   Zn540   2.009   .     S
O541   C542    1.406   .     S
C542   H544    1.115   .     S
C542   H545    1.109   .     S
C542   H543    1.096   .     S
O546   C547    1.410   .     S
C547   H548    1.101   .     S
C547   H549    1.116   .     S
C547   H550    1.109   .     S
O555   C556    1.419   .     S
C556   H559    1.107   .     S
C556   H558    1.116   .     S
C556   H557    1.098   .     S
O560   C561    1.414   .     S
C561   H563    1.108   .     S
C561   H564    1.115   .     S
C561   H562    1.101   .     S
O565   C566    1.412   .     S
C566   H568    1.115   .     S
C566   H569    1.108   .     S
C566   H567    1.098   .     S
O570   C571    1.412   .     S
C571   H572    1.111   .     S
C571   H573    1.105   .     S
C571   H574    1.108   .     S
C575   C584    1.423   .     S
C575   O613    1.293   .     A
C575   O616    1.292   .     A
C576   O615    1.292   .     A
C576   O614    1.294   .     A
C576   C583    1.423   .     S
C577   C602    1.425   .     A
C577   Br635   1.942   .     S
C577   C1341   1.401   1_554 S
C578   Br636   1.937   .     S
C578   C601    1.426   .     A
C578   C1342   1.400   .     S
C579   H607    1.080   .     S
C579   C584    1.397   .     A
C580   C583    1.396   .     A
C580   H608    1.079   .     S
C580   C664    1.368   .     S
C581   C583    1.396   .     A
C581   H609    1.082   .     S
C581   C661    1.369   .     S
C582   H610    1.082   .     S
C582   C584    1.396   .     A
C585   N612    1.369   .     A
C585   O637    1.380   .     S
C586   N611    1.373   .     A
C586   O642    1.381   .     S
C586   C95     1.432   1_565 S
C587   N612    1.372   .     A
C587   O647    1.380   .     S
C588   N611    1.375   .     A
C588   O652    1.384   .     S
C588   C93     1.432   1_565 S
C589   C594    1.432   .     S
C589   O617    1.291   .     A
C589   O620    1.297   .     A
C590   O618    1.300   .     A
C590   O619    1.292   .     A
C590   C593    1.437   .     S
C591   C601    1.412   .     A
C591   O623    1.384   .     S
C591   C593    1.410   .     A
C592   C602    1.411   .     A
C592   O628    1.380   .     S
C592   C594    1.403   .     A
C593   C595    1.380   .     A
C594   C596    1.377   .     A
C595   H605    1.082   .     S
C595   C597    1.386   .     A
C596   H606    1.082   .     S
C596   C598    1.385   .     A
C597   C603    1.406   .     A
C597   C599    1.415   .     A
C598   C600    1.416   .     A
C598   C604    1.406   .     A
C599   C601    1.427   .     A
C599   C1338   1.399   .     S
C600   C602    1.428   .     A
C600   C1337   1.399   1_554 S
C603   Br633   1.943   .     S
C603   C1315   1.401   .     S
C604   Br634   1.946   .     S
C604   C1316   1.400   1_554 S
N611   Zn621   2.032   .     S
N612   Zn622   2.032   .     S
O613   Zn621   2.001   .     S
O614   Zn622   2.001   .     S
O615   Zn621   2.001   .     S
O616   Zn622   2.001   .     S
O617   Zn621   2.019   .     S
O618   Zn622   2.019   .     S
O619   Zn621   2.009   .     S
O620   Zn622   2.009   .     S
O623   C624    1.406   .     S
C624   H626    1.115   .     S
C624   H627    1.109   .     S
C624   H625    1.096   .     S
O628   C629    1.410   .     S
C629   H630    1.101   .     S
C629   H631    1.116   .     S
C629   H632    1.109   .     S
O637   C638    1.419   .     S
C638   H641    1.107   .     S
C638   H640    1.116   .     S
C638   H639    1.098   .     S
O642   C643    1.414   .     S
C643   H645    1.108   .     S
C643   H646    1.115   .     S
C643   H644    1.101   .     S
O647   C648    1.412   .     S
C648   H650    1.115   .     S
C648   H651    1.108   .     S
C648   H649    1.098   .     S
O652   C653    1.412   .     S
C653   H654    1.111   .     S
C653   H655    1.105   .     S
C653   H656    1.108   .     S
C657   C666    1.423   .     S
C657   O695    1.293   .     A
C657   O698    1.292   .     A
C658   O697    1.292   .     A
C658   O696    1.294   .     A
C658   C665    1.423   .     S
C659   C684    1.425   .     A
C659   Br717   1.942   .     S
C659   C1423   1.401   1_554 S
C660   Br718   1.937   .     S
C660   C683    1.426   .     A
C660   C1424   1.400   .     S
C661   H689    1.080   .     S
C661   C666    1.397   .     A
C662   C665    1.396   .     A
C662   H690    1.079   .     S
C662   C500    1.368   1_655 S
C663   C665    1.396   .     A
C663   H691    1.082   .     S
C663   C497    1.369   1_655 S
C664   H692    1.082   .     S
C664   C666    1.396   .     A
C667   N694    1.369   .     A
C667   O719    1.380   .     S
C668   N693    1.373   .     A
C668   O724    1.381   .     S
C668   C177    1.432   1_565 S
C669   N694    1.372   .     A
C669   O729    1.380   .     S
C670   N693    1.375   .     A
C670   O734    1.384   .     S
C670   C175    1.432   1_565 S
C671   C676    1.432   .     S
C671   O699    1.291   .     A
C671   O702    1.297   .     A
C672   O700    1.300   .     A
C672   O701    1.292   .     A
C672   C675    1.437   .     S
C673   C683    1.412   .     A
C673   O705    1.384   .     S
C673   C675    1.410   .     A
C674   C684    1.411   .     A
C674   O710    1.380   .     S
C674   C676    1.403   .     A
C675   C677    1.380   .     A
C676   C678    1.377   .     A
C677   H687    1.082   .     S
C677   C679    1.386   .     A
C678   H688    1.082   .     S
C678   C680    1.385   .     A
C679   C685    1.406   .     A
C679   C681    1.415   .     A
C680   C682    1.416   .     A
C680   C686    1.406   .     A
C681   C683    1.427   .     A
C681   C1420   1.399   .     S
C682   C684    1.428   .     A
C682   C1419   1.399   1_554 S
C685   Br715   1.943   .     S
C685   C1397   1.401   .     S
C686   Br716   1.946   .     S
C686   C1398   1.400   1_554 S
N693   Zn703   2.032   .     S
N694   Zn704   2.032   .     S
O695   Zn703   2.001   .     S
O696   Zn704   2.001   .     S
O697   Zn703   2.001   .     S
O698   Zn704   2.001   .     S
O699   Zn703   2.019   .     S
O700   Zn704   2.019   .     S
O701   Zn703   2.009   .     S
O702   Zn704   2.009   .     S
O705   C706    1.406   .     S
C706   H708    1.115   .     S
C706   H709    1.109   .     S
C706   H707    1.096   .     S
O710   C711    1.410   .     S
C711   H712    1.101   .     S
C711   H713    1.116   .     S
C711   H714    1.109   .     S
O719   C720    1.419   .     S
C720   H723    1.107   .     S
C720   H722    1.116   .     S
C720   H721    1.098   .     S
O724   C725    1.414   .     S
C725   H727    1.108   .     S
C725   H728    1.115   .     S
C725   H726    1.101   .     S
O729   C730    1.412   .     S
C730   H732    1.115   .     S
C730   H733    1.108   .     S
C730   H731    1.098   .     S
O734   C735    1.412   .     S
C735   H736    1.111   .     S
C735   H737    1.105   .     S
C735   H738    1.108   .     S
C739   C748    1.423   .     S
C739   O777    1.293   .     A
C739   O780    1.292   .     A
C740   O779    1.292   .     A
C740   O778    1.294   .     A
C740   C747    1.423   .     S
C741   C766    1.425   .     A
C741   Br799   1.942   .     S
C742   Br800   1.937   .     S
C742   C765    1.426   .     A
C742   C30     1.400   1_556 S
C743   H771    1.080   .     S
C743   C748    1.397   .     A
C743   C909    1.369   1_455 S
C744   C747    1.396   .     A
C744   H772    1.079   .     S
C744   C828    1.368   .     S
C745   C747    1.396   .     A
C745   H773    1.082   .     S
C745   C825    1.369   .     S
C746   H774    1.082   .     S
C746   C748    1.396   .     A
C746   C908    1.368   1_455 S
C749   N776    1.369   .     A
C749   O801    1.380   .     S
C749   C1244   1.432   1_545 S
C750   N775    1.373   .     A
C750   O806    1.381   .     S
C750   C997    1.432   .     S
C751   N776    1.372   .     A
C751   O811    1.380   .     S
C751   C1242   1.432   1_545 S
C752   N775    1.375   .     A
C752   O816    1.384   .     S
C752   C995    1.432   .     S
C753   C758    1.432   .     S
C753   O781    1.291   .     A
C753   O784    1.297   .     A
C754   O782    1.300   .     A
C754   O783    1.292   .     A
C754   C757    1.437   .     S
C755   C765    1.412   .     A
C755   O787    1.384   .     S
C755   C757    1.410   .     A
C756   C766    1.411   .     A
C756   O792    1.380   .     S
C756   C758    1.403   .     A
C757   C759    1.380   .     A
C758   C760    1.377   .     A
C759   H769    1.082   .     S
C759   C761    1.386   .     A
C760   H770    1.082   .     S
C760   C762    1.385   .     A
C761   C767    1.406   .     A
C761   C763    1.415   .     A
C762   C764    1.416   .     A
C762   C768    1.406   .     A
C763   C765    1.427   .     A
C763   C26     1.399   1_556 S
C764   C766    1.428   .     A
C767   Br797   1.943   .     S
C767   C3      1.401   1_556 S
C768   Br798   1.946   .     S
N775   Zn785   2.032   .     S
N776   Zn786   2.032   .     S
O777   Zn785   2.001   .     S
O778   Zn786   2.001   .     S
O779   Zn785   2.001   .     S
O780   Zn786   2.001   .     S
O781   Zn785   2.019   .     S
O782   Zn786   2.019   .     S
O783   Zn785   2.009   .     S
O784   Zn786   2.009   .     S
O787   C788    1.406   .     S
C788   H790    1.115   .     S
C788   H791    1.109   .     S
C788   H789    1.096   .     S
O792   C793    1.410   .     S
C793   H794    1.101   .     S
C793   H795    1.116   .     S
C793   H796    1.109   .     S
O801   C802    1.419   .     S
C802   H805    1.107   .     S
C802   H804    1.116   .     S
C802   H803    1.098   .     S
O806   C807    1.414   .     S
C807   H809    1.108   .     S
C807   H810    1.115   .     S
C807   H808    1.101   .     S
O811   C812    1.412   .     S
C812   H814    1.115   .     S
C812   H815    1.108   .     S
C812   H813    1.098   .     S
O816   C817    1.412   .     S
C817   H818    1.111   .     S
C817   H819    1.105   .     S
C817   H820    1.108   .     S
C821   C830    1.423   .     S
C821   O859    1.293   .     A
C821   O862    1.292   .     A
C822   O861    1.292   .     A
C822   O860    1.294   .     A
C822   C829    1.423   .     S
C823   C848    1.425   .     A
C823   Br881   1.942   .     S
C824   Br882   1.937   .     S
C824   C847    1.426   .     A
C824   C112    1.400   1_556 S
C825   H853    1.080   .     S
C825   C830    1.397   .     A
C826   C829    1.396   .     A
C826   H854    1.079   .     S
C826   C910    1.368   .     S
C827   C829    1.396   .     A
C827   H855    1.082   .     S
C827   C907    1.369   .     S
C828   H856    1.082   .     S
C828   C830    1.396   .     A
C831   N858    1.369   .     A
C831   O883    1.380   .     S
C831   C1326   1.432   1_545 S
C832   N857    1.373   .     A
C832   O888    1.381   .     S
C832   C1079   1.432   .     S
C833   N858    1.372   .     A
C833   O893    1.380   .     S
C833   C1324   1.432   1_545 S
C834   N857    1.375   .     A
C834   O898    1.384   .     S
C834   C1077   1.432   .     S
C835   C840    1.432   .     S
C835   O863    1.291   .     A
C835   O866    1.297   .     A
C836   O864    1.300   .     A
C836   O865    1.292   .     A
C836   C839    1.437   .     S
C837   C847    1.412   .     A
C837   O869    1.384   .     S
C837   C839    1.410   .     A
C838   C848    1.411   .     A
C838   O874    1.380   .     S
C838   C840    1.403   .     A
C839   C841    1.380   .     A
C840   C842    1.377   .     A
C841   H851    1.082   .     S
C841   C843    1.386   .     A
C842   H852    1.082   .     S
C842   C844    1.385   .     A
C843   C849    1.406   .     A
C843   C845    1.415   .     A
C844   C846    1.416   .     A
C844   C850    1.406   .     A
C845   C847    1.427   .     A
C845   C108    1.399   1_556 S
C846   C848    1.428   .     A
C849   Br879   1.943   .     S
C849   C85     1.401   1_556 S
C850   Br880   1.946   .     S
N857   Zn867   2.032   .     S
N858   Zn868   2.032   .     S
O859   Zn867   2.001   .     S
O860   Zn868   2.001   .     S
O861   Zn867   2.001   .     S
O862   Zn868   2.001   .     S
O863   Zn867   2.019   .     S
O864   Zn868   2.019   .     S
O865   Zn867   2.009   .     S
O866   Zn868   2.009   .     S
O869   C870    1.406   .     S
C870   H872    1.115   .     S
C870   H873    1.109   .     S
C870   H871    1.096   .     S
O874   C875    1.410   .     S
C875   H876    1.101   .     S
C875   H877    1.116   .     S
C875   H878    1.109   .     S
O883   C884    1.419   .     S
C884   H887    1.107   .     S
C884   H886    1.116   .     S
C884   H885    1.098   .     S
O888   C889    1.414   .     S
C889   H891    1.108   .     S
C889   H892    1.115   .     S
C889   H890    1.101   .     S
O893   C894    1.412   .     S
C894   H896    1.115   .     S
C894   H897    1.108   .     S
C894   H895    1.098   .     S
O898   C899    1.412   .     S
C899   H900    1.111   .     S
C899   H901    1.105   .     S
C899   H902    1.108   .     S
C903   C912    1.423   .     S
C903   O941    1.293   .     A
C903   O944    1.292   .     A
C904   O943    1.292   .     A
C904   O942    1.294   .     A
C904   C911    1.423   .     S
C905   C930    1.425   .     A
C905   Br963   1.942   .     S
C906   Br964   1.937   .     S
C906   C929    1.426   .     A
C906   C194    1.400   1_556 S
C907   H935    1.080   .     S
C907   C912    1.397   .     A
C908   C911    1.396   .     A
C908   H936    1.079   .     S
C908   C746    1.368   1_655 S
C909   C911    1.396   .     A
C909   H937    1.082   .     S
C909   C743    1.369   1_655 S
C910   H938    1.082   .     S
C910   C912    1.396   .     A
C913   N940    1.369   .     A
C913   O965    1.380   .     S
C913   C1408   1.432   1_545 S
C914   N939    1.373   .     A
C914   O970    1.381   .     S
C914   C1161   1.432   .     S
C915   N940    1.372   .     A
C915   O975    1.380   .     S
C915   C1406   1.432   1_545 S
C916   N939    1.375   .     A
C916   O980    1.384   .     S
C916   C1159   1.432   .     S
C917   C922    1.432   .     S
C917   O945    1.291   .     A
C917   O948    1.297   .     A
C918   O946    1.300   .     A
C918   O947    1.292   .     A
C918   C921    1.437   .     S
C919   C929    1.412   .     A
C919   O951    1.384   .     S
C919   C921    1.410   .     A
C920   C930    1.411   .     A
C920   O956    1.380   .     S
C920   C922    1.403   .     A
C921   C923    1.380   .     A
C922   C924    1.377   .     A
C923   H933    1.082   .     S
C923   C925    1.386   .     A
C924   H934    1.082   .     S
C924   C926    1.385   .     A
C925   C931    1.406   .     A
C925   C927    1.415   .     A
C926   C928    1.416   .     A
C926   C932    1.406   .     A
C927   C929    1.427   .     A
C927   C190    1.399   1_556 S
C928   C930    1.428   .     A
C931   Br961   1.943   .     S
C931   C167    1.401   1_556 S
C932   Br962   1.946   .     S
N939   Zn949   2.032   .     S
N940   Zn950   2.032   .     S
O941   Zn949   2.001   .     S
O942   Zn950   2.001   .     S
O943   Zn949   2.001   .     S
O944   Zn950   2.001   .     S
O945   Zn949   2.019   .     S
O946   Zn950   2.019   .     S
O947   Zn949   2.009   .     S
O948   Zn950   2.009   .     S
O951   C952    1.406   .     S
C952   H954    1.115   .     S
C952   H955    1.109   .     S
C952   H953    1.096   .     S
O956   C957    1.410   .     S
C957   H958    1.101   .     S
C957   H959    1.116   .     S
C957   H960    1.109   .     S
O965   C966    1.419   .     S
C966   H969    1.107   .     S
C966   H968    1.116   .     S
C966   H967    1.098   .     S
O970   C971    1.414   .     S
C971   H973    1.108   .     S
C971   H974    1.115   .     S
C971   H972    1.101   .     S
O975   C976    1.412   .     S
C976   H978    1.115   .     S
C976   H979    1.108   .     S
C976   H977    1.098   .     S
O980   C981    1.412   .     S
C981   H982    1.111   .     S
C981   H983    1.105   .     S
C981   H984    1.108   .     S
C985   C994    1.423   .     S
C985   O1023   1.293   .     A
C985   O1026   1.292   .     A
C986   O1025   1.292   .     A
C986   O1024   1.294   .     A
C986   C993    1.423   .     S
C987   C1012   1.425   .     A
C987   Br1045  1.942   .     S
C988   Br1046  1.937   .     S
C988   C1011   1.426   .     A
C988   C276    1.400   1_556 S
C989   H1017   1.080   .     S
C989   C994    1.397   .     A
C989   C1155   1.369   1_455 S
C990   C993    1.396   .     A
C990   H1018   1.079   .     S
C990   C1074   1.368   .     S
C991   C993    1.396   .     A
C991   H1019   1.082   .     S
C991   C1071   1.369   .     S
C992   H1020   1.082   .     S
C992   C994    1.396   .     A
C992   C1154   1.368   1_455 S
C995   N1022   1.369   .     A
C995   O1047   1.380   .     S
C996   N1021   1.373   .     A
C996   O1052   1.381   .     S
C996   C1243   1.432   .     S
C997   N1022   1.372   .     A
C997   O1057   1.380   .     S
C998   N1021   1.375   .     A
C998   O1062   1.384   .     S
C998   C1241   1.432   .     S
C999   C1004   1.432   .     S
C999   O1027   1.291   .     A
C999   O1030   1.297   .     A
C1000  O1028   1.300   .     A
C1000  O1029   1.292   .     A
C1000  C1003   1.437   .     S
C1001  C1011   1.412   .     A
C1001  O1033   1.384   .     S
C1001  C1003   1.410   .     A
C1002  C1012   1.411   .     A
C1002  O1038   1.380   .     S
C1002  C1004   1.403   .     A
C1003  C1005   1.380   .     A
C1004  C1006   1.377   .     A
C1005  H1015   1.082   .     S
C1005  C1007   1.386   .     A
C1006  H1016   1.082   .     S
C1006  C1008   1.385   .     A
C1007  C1013   1.406   .     A
C1007  C1009   1.415   .     A
C1008  C1010   1.416   .     A
C1008  C1014   1.406   .     A
C1009  C1011   1.427   .     A
C1009  C272    1.399   1_556 S
C1010  C1012   1.428   .     A
C1013  Br1043  1.943   .     S
C1013  C249    1.401   1_556 S
C1014  Br1044  1.946   .     S
N1021  Zn1031  2.032   .     S
N1022  Zn1032  2.032   .     S
O1023  Zn1031  2.001   .     S
O1024  Zn1032  2.001   .     S
O1025  Zn1031  2.001   .     S
O1026  Zn1032  2.001   .     S
O1027  Zn1031  2.019   .     S
O1028  Zn1032  2.019   .     S
O1029  Zn1031  2.009   .     S
O1030  Zn1032  2.009   .     S
O1033  C1034   1.406   .     S
C1034  H1036   1.115   .     S
C1034  H1037   1.109   .     S
C1034  H1035   1.096   .     S
O1038  C1039   1.410   .     S
C1039  H1040   1.101   .     S
C1039  H1041   1.116   .     S
C1039  H1042   1.109   .     S
O1047  C1048   1.419   .     S
C1048  H1051   1.107   .     S
C1048  H1050   1.116   .     S
C1048  H1049   1.098   .     S
O1052  C1053   1.414   .     S
C1053  H1055   1.108   .     S
C1053  H1056   1.115   .     S
C1053  H1054   1.101   .     S
O1057  C1058   1.412   .     S
C1058  H1060   1.115   .     S
C1058  H1061   1.108   .     S
C1058  H1059   1.098   .     S
O1062  C1063   1.412   .     S
C1063  H1064   1.111   .     S
C1063  H1065   1.105   .     S
C1063  H1066   1.108   .     S
C1067  C1076   1.423   .     S
C1067  O1105   1.293   .     A
C1067  O1108   1.292   .     A
C1068  O1107   1.292   .     A
C1068  O1106   1.294   .     A
C1068  C1075   1.423   .     S
C1069  C1094   1.425   .     A
C1069  Br1127  1.942   .     S
C1070  Br1128  1.937   .     S
C1070  C1093   1.426   .     A
C1070  C358    1.400   1_556 S
C1071  H1099   1.080   .     S
C1071  C1076   1.397   .     A
C1072  C1075   1.396   .     A
C1072  H1100   1.079   .     S
C1072  C1156   1.368   .     S
C1073  C1075   1.396   .     A
C1073  H1101   1.082   .     S
C1073  C1153   1.369   .     S
C1074  H1102   1.082   .     S
C1074  C1076   1.396   .     A
C1077  N1104   1.369   .     A
C1077  O1129   1.380   .     S
C1078  N1103   1.373   .     A
C1078  O1134   1.381   .     S
C1078  C1325   1.432   .     S
C1079  N1104   1.372   .     A
C1079  O1139   1.380   .     S
C1080  N1103   1.375   .     A
C1080  O1144   1.384   .     S
C1080  C1323   1.432   .     S
C1081  C1086   1.432   .     S
C1081  O1109   1.291   .     A
C1081  O1112   1.297   .     A
C1082  O1110   1.300   .     A
C1082  O1111   1.292   .     A
C1082  C1085   1.437   .     S
C1083  C1093   1.412   .     A
C1083  O1115   1.384   .     S
C1083  C1085   1.410   .     A
C1084  C1094   1.411   .     A
C1084  O1120   1.380   .     S
C1084  C1086   1.403   .     A
C1085  C1087   1.380   .     A
C1086  C1088   1.377   .     A
C1087  H1097   1.082   .     S
C1087  C1089   1.386   .     A
C1088  H1098   1.082   .     S
C1088  C1090   1.385   .     A
C1089  C1095   1.406   .     A
C1089  C1091   1.415   .     A
C1090  C1092   1.416   .     A
C1090  C1096   1.406   .     A
C1091  C1093   1.427   .     A
C1091  C354    1.399   1_556 S
C1092  C1094   1.428   .     A
C1095  Br1125  1.943   .     S
C1095  C331    1.401   1_556 S
C1096  Br1126  1.946   .     S
N1103  Zn1113  2.032   .     S
N1104  Zn1114  2.032   .     S
O1105  Zn1113  2.001   .     S
O1106  Zn1114  2.001   .     S
O1107  Zn1113  2.001   .     S
O1108  Zn1114  2.001   .     S
O1109  Zn1113  2.019   .     S
O1110  Zn1114  2.019   .     S
O1111  Zn1113  2.009   .     S
O1112  Zn1114  2.009   .     S
O1115  C1116   1.406   .     S
C1116  H1118   1.115   .     S
C1116  H1119   1.109   .     S
C1116  H1117   1.096   .     S
O1120  C1121   1.410   .     S
C1121  H1122   1.101   .     S
C1121  H1123   1.116   .     S
C1121  H1124   1.109   .     S
O1129  C1130   1.419   .     S
C1130  H1133   1.107   .     S
C1130  H1132   1.116   .     S
C1130  H1131   1.098   .     S
O1134  C1135   1.414   .     S
C1135  H1137   1.108   .     S
C1135  H1138   1.115   .     S
C1135  H1136   1.101   .     S
O1139  C1140   1.412   .     S
C1140  H1142   1.115   .     S
C1140  H1143   1.108   .     S
C1140  H1141   1.098   .     S
O1144  C1145   1.412   .     S
C1145  H1146   1.111   .     S
C1145  H1147   1.105   .     S
C1145  H1148   1.108   .     S
C1149  C1158   1.423   .     S
C1149  O1187   1.293   .     A
C1149  O1190   1.292   .     A
C1150  O1189   1.292   .     A
C1150  O1188   1.294   .     A
C1150  C1157   1.423   .     S
C1151  C1176   1.425   .     A
C1151  Br1209  1.942   .     S
C1152  Br1210  1.937   .     S
C1152  C1175   1.426   .     A
C1152  C440    1.400   1_556 S
C1153  H1181   1.080   .     S
C1153  C1158   1.397   .     A
C1154  C1157   1.396   .     A
C1154  H1182   1.079   .     S
C1154  C992    1.368   1_655 S
C1155  C1157   1.396   .     A
C1155  H1183   1.082   .     S
C1155  C989    1.369   1_655 S
C1156  H1184   1.082   .     S
C1156  C1158   1.396   .     A
C1159  N1186   1.369   .     A
C1159  O1211   1.380   .     S
C1160  N1185   1.373   .     A
C1160  O1216   1.381   .     S
C1160  C1407   1.432   .     S
C1161  N1186   1.372   .     A
C1161  O1221   1.380   .     S
C1162  N1185   1.375   .     A
C1162  O1226   1.384   .     S
C1162  C1405   1.432   .     S
C1163  C1168   1.432   .     S
C1163  O1191   1.291   .     A
C1163  O1194   1.297   .     A
C1164  O1192   1.300   .     A
C1164  O1193   1.292   .     A
C1164  C1167   1.437   .     S
C1165  C1175   1.412   .     A
C1165  O1197   1.384   .     S
C1165  C1167   1.410   .     A
C1166  C1176   1.411   .     A
C1166  O1202   1.380   .     S
C1166  C1168   1.403   .     A
C1167  C1169   1.380   .     A
C1168  C1170   1.377   .     A
C1169  H1179   1.082   .     S
C1169  C1171   1.386   .     A
C1170  H1180   1.082   .     S
C1170  C1172   1.385   .     A
C1171  C1177   1.406   .     A
C1171  C1173   1.415   .     A
C1172  C1174   1.416   .     A
C1172  C1178   1.406   .     A
C1173  C1175   1.427   .     A
C1173  C436    1.399   1_556 S
C1174  C1176   1.428   .     A
C1177  Br1207  1.943   .     S
C1177  C413    1.401   1_556 S
C1178  Br1208  1.946   .     S
N1185  Zn1195  2.032   .     S
N1186  Zn1196  2.032   .     S
O1187  Zn1195  2.001   .     S
O1188  Zn1196  2.001   .     S
O1189  Zn1195  2.001   .     S
O1190  Zn1196  2.001   .     S
O1191  Zn1195  2.019   .     S
O1192  Zn1196  2.019   .     S
O1193  Zn1195  2.009   .     S
O1194  Zn1196  2.009   .     S
O1197  C1198   1.406   .     S
C1198  H1200   1.115   .     S
C1198  H1201   1.109   .     S
C1198  H1199   1.096   .     S
O1202  C1203   1.410   .     S
C1203  H1204   1.101   .     S
C1203  H1205   1.116   .     S
C1203  H1206   1.109   .     S
O1211  C1212   1.419   .     S
C1212  H1215   1.107   .     S
C1212  H1214   1.116   .     S
C1212  H1213   1.098   .     S
O1216  C1217   1.414   .     S
C1217  H1219   1.108   .     S
C1217  H1220   1.115   .     S
C1217  H1218   1.101   .     S
O1221  C1222   1.412   .     S
C1222  H1224   1.115   .     S
C1222  H1225   1.108   .     S
C1222  H1223   1.098   .     S
O1226  C1227   1.412   .     S
C1227  H1228   1.111   .     S
C1227  H1229   1.105   .     S
C1227  H1230   1.108   .     S
C1231  C1240   1.423   .     S
C1231  O1269   1.293   .     A
C1231  O1272   1.292   .     A
C1232  O1271   1.292   .     A
C1232  O1270   1.294   .     A
C1232  C1239   1.423   .     S
C1233  C1258   1.425   .     A
C1233  Br1291  1.942   .     S
C1234  Br1292  1.937   .     S
C1234  C1257   1.426   .     A
C1234  C522    1.400   1_556 S
C1235  H1263   1.080   .     S
C1235  C1240   1.397   .     A
C1235  C1401   1.369   1_455 S
C1236  C1239   1.396   .     A
C1236  H1264   1.079   .     S
C1236  C1320   1.368   .     S
C1237  C1239   1.396   .     A
C1237  H1265   1.082   .     S
C1237  C1317   1.369   .     S
C1238  H1266   1.082   .     S
C1238  C1240   1.396   .     A
C1238  C1400   1.368   1_455 S
C1241  N1268   1.369   .     A
C1241  O1293   1.380   .     S
C1242  N1267   1.373   .     A
C1242  O1298   1.381   .     S
C1242  C751    1.432   1_565 S
C1243  N1268   1.372   .     A
C1243  O1303   1.380   .     S
C1244  N1267   1.375   .     A
C1244  O1308   1.384   .     S
C1244  C749    1.432   1_565 S
C1245  C1250   1.432   .     S
C1245  O1273   1.291   .     A
C1245  O1276   1.297   .     A
C1246  O1274   1.300   .     A
C1246  O1275   1.292   .     A
C1246  C1249   1.437   .     S
C1247  C1257   1.412   .     A
C1247  O1279   1.384   .     S
C1247  C1249   1.410   .     A
C1248  C1258   1.411   .     A
C1248  O1284   1.380   .     S
C1248  C1250   1.403   .     A
C1249  C1251   1.380   .     A
C1250  C1252   1.377   .     A
C1251  H1261   1.082   .     S
C1251  C1253   1.386   .     A
C1252  H1262   1.082   .     S
C1252  C1254   1.385   .     A
C1253  C1259   1.406   .     A
C1253  C1255   1.415   .     A
C1254  C1256   1.416   .     A
C1254  C1260   1.406   .     A
C1255  C1257   1.427   .     A
C1255  C518    1.399   1_556 S
C1256  C1258   1.428   .     A
C1259  Br1289  1.943   .     S
C1259  C495    1.401   1_556 S
C1260  Br1290  1.946   .     S
N1267  Zn1277  2.032   .     S
N1268  Zn1278  2.032   .     S
O1269  Zn1277  2.001   .     S
O1270  Zn1278  2.001   .     S
O1271  Zn1277  2.001   .     S
O1272  Zn1278  2.001   .     S
O1273  Zn1277  2.019   .     S
O1274  Zn1278  2.019   .     S
O1275  Zn1277  2.009   .     S
O1276  Zn1278  2.009   .     S
O1279  C1280   1.406   .     S
C1280  H1282   1.115   .     S
C1280  H1283   1.109   .     S
C1280  H1281   1.096   .     S
O1284  C1285   1.410   .     S
C1285  H1286   1.101   .     S
C1285  H1287   1.116   .     S
C1285  H1288   1.109   .     S
O1293  C1294   1.419   .     S
C1294  H1297   1.107   .     S
C1294  H1296   1.116   .     S
C1294  H1295   1.098   .     S
O1298  C1299   1.414   .     S
C1299  H1301   1.108   .     S
C1299  H1302   1.115   .     S
C1299  H1300   1.101   .     S
O1303  C1304   1.412   .     S
C1304  H1306   1.115   .     S
C1304  H1307   1.108   .     S
C1304  H1305   1.098   .     S
O1308  C1309   1.412   .     S
C1309  H1310   1.111   .     S
C1309  H1311   1.105   .     S
C1309  H1312   1.108   .     S
C1313  C1322   1.423   .     S
C1313  O1351   1.293   .     A
C1313  O1354   1.292   .     A
C1314  O1353   1.292   .     A
C1314  O1352   1.294   .     A
C1314  C1321   1.423   .     S
C1315  C1340   1.425   .     A
C1315  Br1373  1.942   .     S
C1316  Br1374  1.937   .     S
C1316  C1339   1.426   .     A
C1316  C604    1.400   1_556 S
C1317  H1345   1.080   .     S
C1317  C1322   1.397   .     A
C1318  C1321   1.396   .     A
C1318  H1346   1.079   .     S
C1318  C1402   1.368   .     S
C1319  C1321   1.396   .     A
C1319  H1347   1.082   .     S
C1319  C1399   1.369   .     S
C1320  H1348   1.082   .     S
C1320  C1322   1.396   .     A
C1323  N1350   1.369   .     A
C1323  O1375   1.380   .     S
C1324  N1349   1.373   .     A
C1324  O1380   1.381   .     S
C1324  C833    1.432   1_565 S
C1325  N1350   1.372   .     A
C1325  O1385   1.380   .     S
C1326  N1349   1.375   .     A
C1326  O1390   1.384   .     S
C1326  C831    1.432   1_565 S
C1327  C1332   1.432   .     S
C1327  O1355   1.291   .     A
C1327  O1358   1.297   .     A
C1328  O1356   1.300   .     A
C1328  O1357   1.292   .     A
C1328  C1331   1.437   .     S
C1329  C1339   1.412   .     A
C1329  O1361   1.384   .     S
C1329  C1331   1.410   .     A
C1330  C1340   1.411   .     A
C1330  O1366   1.380   .     S
C1330  C1332   1.403   .     A
C1331  C1333   1.380   .     A
C1332  C1334   1.377   .     A
C1333  H1343   1.082   .     S
C1333  C1335   1.386   .     A
C1334  H1344   1.082   .     S
C1334  C1336   1.385   .     A
C1335  C1341   1.406   .     A
C1335  C1337   1.415   .     A
C1336  C1338   1.416   .     A
C1336  C1342   1.406   .     A
C1337  C1339   1.427   .     A
C1337  C600    1.399   1_556 S
C1338  C1340   1.428   .     A
C1341  Br1371  1.943   .     S
C1341  C577    1.401   1_556 S
C1342  Br1372  1.946   .     S
N1349  Zn1359  2.032   .     S
N1350  Zn1360  2.032   .     S
O1351  Zn1359  2.001   .     S
O1352  Zn1360  2.001   .     S
O1353  Zn1359  2.001   .     S
O1354  Zn1360  2.001   .     S
O1355  Zn1359  2.019   .     S
O1356  Zn1360  2.019   .     S
O1357  Zn1359  2.009   .     S
O1358  Zn1360  2.009   .     S
O1361  C1362   1.406   .     S
C1362  H1364   1.115   .     S
C1362  H1365   1.109   .     S
C1362  H1363   1.096   .     S
O1366  C1367   1.410   .     S
C1367  H1368   1.101   .     S
C1367  H1369   1.116   .     S
C1367  H1370   1.109   .     S
O1375  C1376   1.419   .     S
C1376  H1379   1.107   .     S
C1376  H1378   1.116   .     S
C1376  H1377   1.098   .     S
O1380  C1381   1.414   .     S
C1381  H1383   1.108   .     S
C1381  H1384   1.115   .     S
C1381  H1382   1.101   .     S
O1385  C1386   1.412   .     S
C1386  H1388   1.115   .     S
C1386  H1389   1.108   .     S
C1386  H1387   1.098   .     S
O1390  C1391   1.412   .     S
C1391  H1392   1.111   .     S
C1391  H1393   1.105   .     S
C1391  H1394   1.108   .     S
C1395  C1404   1.423   .     S
C1395  O1433   1.293   .     A
C1395  O1436   1.292   .     A
C1396  O1435   1.292   .     A
C1396  O1434   1.294   .     A
C1396  C1403   1.423   .     S
C1397  C1422   1.425   .     A
C1397  Br1455  1.942   .     S
C1398  Br1456  1.937   .     S
C1398  C1421   1.426   .     A
C1398  C686    1.400   1_556 S
C1399  H1427   1.080   .     S
C1399  C1404   1.397   .     A
C1400  C1403   1.396   .     A
C1400  H1428   1.079   .     S
C1400  C1238   1.368   1_655 S
C1401  C1403   1.396   .     A
C1401  H1429   1.082   .     S
C1401  C1235   1.369   1_655 S
C1402  H1430   1.082   .     S
C1402  C1404   1.396   .     A
C1405  N1432   1.369   .     A
C1405  O1457   1.380   .     S
C1406  N1431   1.373   .     A
C1406  O1462   1.381   .     S
C1406  C915    1.432   1_565 S
C1407  N1432   1.372   .     A
C1407  O1467   1.380   .     S
C1408  N1431   1.375   .     A
C1408  O1472   1.384   .     S
C1408  C913    1.432   1_565 S
C1409  C1414   1.432   .     S
C1409  O1437   1.291   .     A
C1409  O1440   1.297   .     A
C1410  O1438   1.300   .     A
C1410  O1439   1.292   .     A
C1410  C1413   1.437   .     S
C1411  C1421   1.412   .     A
C1411  O1443   1.384   .     S
C1411  C1413   1.410   .     A
C1412  C1422   1.411   .     A
C1412  O1448   1.380   .     S
C1412  C1414   1.403   .     A
C1413  C1415   1.380   .     A
C1414  C1416   1.377   .     A
C1415  H1425   1.082   .     S
C1415  C1417   1.386   .     A
C1416  H1426   1.082   .     S
C1416  C1418   1.385   .     A
C1417  C1423   1.406   .     A
C1417  C1419   1.415   .     A
C1418  C1420   1.416   .     A
C1418  C1424   1.406   .     A
C1419  C1421   1.427   .     A
C1419  C682    1.399   1_556 S
C1420  C1422   1.428   .     A
C1423  Br1453  1.943   .     S
C1423  C659    1.401   1_556 S
C1424  Br1454  1.946   .     S
N1431  Zn1441  2.032   .     S
N1432  Zn1442  2.032   .     S
O1433  Zn1441  2.001   .     S
O1434  Zn1442  2.001   .     S
O1435  Zn1441  2.001   .     S
O1436  Zn1442  2.001   .     S
O1437  Zn1441  2.019   .     S
O1438  Zn1442  2.019   .     S
O1439  Zn1441  2.009   .     S
O1440  Zn1442  2.009   .     S
O1443  C1444   1.406   .     S
C1444  H1446   1.115   .     S
C1444  H1447   1.109   .     S
C1444  H1445   1.096   .     S
O1448  C1449   1.410   .     S
C1449  H1450   1.101   .     S
C1449  H1451   1.116   .     S
C1449  H1452   1.109   .     S
O1457  C1458   1.419   .     S
C1458  H1461   1.107   .     S
C1458  H1460   1.116   .     S
C1458  H1459   1.098   .     S
O1462  C1463   1.414   .     S
C1463  H1465   1.108   .     S
C1463  H1466   1.115   .     S
C1463  H1464   1.101   .     S
O1467  C1468   1.412   .     S
C1468  H1470   1.115   .     S
C1468  H1471   1.108   .     S
C1468  H1469   1.098   .     S
O1472  C1473   1.412   .     S
C1473  H1474   1.111   .     S
C1473  H1475   1.105   .     S
C1473  H1476   1.108   .     S
