data_str_m3_o2_o10_pcu_sym.62
_audit_creation_date              2020-01-03
_audit_creation_method            'Materials Studio'
_symmetry_space_group_name_H-M    'P1'
_symmetry_Int_Tables_number       1
_symmetry_cell_setting            triclinic
loop_
_symmetry_equiv_pos_as_xyz
  x,y,z
_cell_length_a                    26.1043
_cell_length_b                    29.8669
_cell_length_c                    28.4487
_cell_angle_alpha                 88.0804
_cell_angle_beta                  98.4153
_cell_angle_gamma                 91.3938
loop_
_atom_site_label
_atom_site_type_symbol
_atom_site_fract_x
_atom_site_fract_y
_atom_site_fract_z
_atom_site_U_iso_or_equiv
_atom_site_adp_type
_atom_site_occupancy
C1     C     0.16641   0.16419   0.25065   0.00000  Uiso   1.00
C2     C     0.16636   0.20921   0.44911   0.00000  Uiso   1.00
C3     C     0.16294   0.24909   0.02624   0.00000  Uiso   1.00
C4     C     0.16224   0.24928   0.47285   0.00000  Uiso   1.00
C5     C     0.06739   0.25276   0.23739   0.00000  Uiso   1.00
C6     C     0.26615   0.25249   0.26201   0.00000  Uiso   1.00
C7     C     0.01263   0.25764   0.22926   0.00000  Uiso   1.00
C8     C     0.32078   0.26090   0.26752   0.00000  Uiso   1.00
C9     C     0.20806   0.04749   0.27111   0.00000  Uiso   1.00
C10    C     0.13737   0.45429   0.21208   0.00000  Uiso   1.00
C11    C     0.20923   0.09371   0.27096   0.00000  Uiso   1.00
C12    C     0.16636   0.33612   0.24947   0.00000  Uiso   1.00
C13    C     0.13879   0.40813   0.21089   0.00000  Uiso   1.00
C14    C     0.16487   0.11673   0.25197   0.00000  Uiso   1.00
C15    C     0.16538   0.38414   0.24946   0.00000  Uiso   1.00
C16    C     0.11897   0.09447   0.23406   0.00000  Uiso   1.00
C17    C     0.18877   0.40600   0.29005   0.00000  Uiso   1.00
C18    C     0.11738   0.04819   0.23514   0.00000  Uiso   1.00
C19    C     0.18644   0.45193   0.29172   0.00000  Uiso   1.00
C20    C     0.16211   0.02464   0.25319   0.00000  Uiso   1.00
C21    C     0.16145   0.47625   0.25247   0.00000  Uiso   1.00
C22    C     0.00243   0.28165   0.14775   0.00000  Uiso   1.00
C23    C     0.12984   0.22061   0.05019   0.00000  Uiso   1.00
C24    C     0.01175   0.33088   0.16204   0.00000  Uiso   1.00
C25    C     0.02204   0.36048   0.11952   0.00000  Uiso   1.00
C26    C     0.00202   0.31488   0.32420   0.00000  Uiso   1.00
C27    C     0.04394   0.34767   0.31087   0.00000  Uiso   1.00
C28    C     0.03220   0.39583   0.32125   0.00000  Uiso   1.00
C29    C     0.05308   0.21038   0.00087   0.00000  Uiso   1.00
C30    C     0.02044   0.17527   0.47111   0.00000  Uiso   1.00
C31    C     0.32107   0.19615   0.42722   0.00000  Uiso   1.00
C32    C     0.09710   0.33352   0.46764   0.00000  Uiso   1.00
C33    C     0.08336   0.38287   0.46860   0.00000  Uiso   1.00
C34    C     0.15877   0.28972   0.44498   0.00000  Uiso   1.00
C35    C     0.02623   0.38825   0.47278   0.00000  Uiso   1.00
C36    C     0.19283   0.35401   0.12577   0.00000  Uiso   1.00
C37    C     0.20061   0.38510   0.08336   0.00000  Uiso   1.00
C38    C     0.17658   0.43065   0.08745   0.00000  Uiso   1.00
C39    C     0.10897   0.15592   0.36757   0.00000  Uiso   1.00
C40    C     0.10594   0.10491   0.36486   0.00000  Uiso   1.00
C41    C     0.05050   0.08837   0.34906   0.00000  Uiso   1.00
C42    C     0.27248   0.27962   0.02089   0.00000  Uiso   1.00
C43    C     0.21674   0.15327   0.48464   0.00000  Uiso   1.00
C44    C     0.13456   0.22044   0.10024   0.00000  Uiso   1.00
C45    C     0.16382   0.28923   0.39632   0.00000  Uiso   1.00
C46    C     0.19453   0.28114   0.10336   0.00000  Uiso   1.00
C47    C     0.16499   0.21019   0.39919   0.00000  Uiso   1.00
C48    C     0.19751   0.27803   0.05441   0.00000  Uiso   1.00
H49    H     0.24314   0.02967   0.28443   0.00000  Uiso   1.00
H50    H     0.16332   0.32063   0.37635   0.00000  Uiso   1.00
H51    H     0.30470   0.28096   0.11705   0.00000  Uiso   1.00
H52    H     0.03590   0.26834   0.13315   0.00000  Uiso   1.00
H53    H     0.31084   0.34325   0.17635   0.00000  Uiso   1.00
H54    H     0.04602   0.33380   0.18989   0.00000  Uiso   1.00
H55    H     0.05768   0.34985   0.10631   0.00000  Uiso   1.00
H56    H     0.02718   0.39592   0.13017   0.00000  Uiso   1.00
H57    H     0.32252   0.35809   0.09022   0.00000  Uiso   1.00
H58    H     0.00223   0.31544   0.36325   0.00000  Uiso   1.00
H59    H     0.29633   0.32651   0.30761   0.00000  Uiso   1.00
H60    H     0.11815   0.47279   0.18137   0.00000  Uiso   1.00
H61    H     0.08184   0.33848   0.33141   0.00000  Uiso   1.00
H62    H     0.04668   0.34562   0.27247   0.00000  Uiso   1.00
H63    H     0.32868   0.40634   0.29949   0.00000  Uiso   1.00
H64    H     0.06397   0.41847   0.31225   0.00000  Uiso   1.00
H65    H     0.02899   0.39895   0.35947   0.00000  Uiso   1.00
H66    H     0.06448   0.23767   0.47681   0.00000  Uiso   1.00
H67    H     0.02941   0.22489   0.02581   0.00000  Uiso   1.00
H68    H     0.04611   0.15017   0.45929   0.00000  Uiso   1.00
H69    H     0.32837   0.15688   0.49353   0.00000  Uiso   1.00
H70    H     0.29205   0.21875   0.43784   0.00000  Uiso   1.00
H71    H     0.24468   0.11150   0.28470   0.00000  Uiso   1.00
H72    H     0.30041   0.16931   0.40542   0.00000  Uiso   1.00
H73    H     0.01263   0.21541   0.40491   0.00000  Uiso   1.00
H74    H     0.08874   0.31641   0.00110   0.00000  Uiso   1.00
H75    H     0.07184   0.31841   0.43682   0.00000  Uiso   1.00
H76    H     0.10724   0.39890   0.49923   0.00000  Uiso   1.00
H77    H     0.09198   0.40030   0.43544   0.00000  Uiso   1.00
H78    H     0.00132   0.37237   0.44258   0.00000  Uiso   1.00
H79    H     0.01724   0.42442   0.47228   0.00000  Uiso   1.00
H80    H     0.01742   0.37263   0.00671   0.00000  Uiso   1.00
H81    H     0.20688   0.37267   0.15835   0.00000  Uiso   1.00
H82    H     0.11895   0.39129   0.18023   0.00000  Uiso   1.00
H83    H     0.15068   0.34668   0.12528   0.00000  Uiso   1.00
H84    H     0.24249   0.39012   0.08159   0.00000  Uiso   1.00
H85    H     0.18163   0.37021   0.05000   0.00000  Uiso   1.00
H86    H     0.13451   0.42656   0.08940   0.00000  Uiso   1.00
H87    H     0.18157   0.45212   0.05575   0.00000  Uiso   1.00
H88    H     0.19581   0.44761   0.11970   0.00000  Uiso   1.00
H89    H     0.09041   0.17125   0.33336   0.00000  Uiso   1.00
H90    H     0.08622   0.16562   0.39560   0.00000  Uiso   1.00
H91    H     0.13100   0.09369   0.33941   0.00000  Uiso   1.00
H92    H     0.12037   0.08979   0.40043   0.00000  Uiso   1.00
H93    H     0.08460   0.11290   0.21982   0.00000  Uiso   1.00
H94    H     0.02480   0.09865   0.37448   0.00000  Uiso   1.00
H95    H     0.04959   0.05124   0.34780   0.00000  Uiso   1.00
H96    H     0.03582   0.10227   0.31302   0.00000  Uiso   1.00
H97    H     0.27861   0.24701   0.04092   0.00000  Uiso   1.00
H98    H     0.30949   0.29898   0.02719   0.00000  Uiso   1.00
H99    H     0.26417   0.27394   0.48226   0.00000  Uiso   1.00
H100   H     0.24220   0.17833   0.00524   0.00000  Uiso   1.00
H101   H     0.23250   0.14443   0.45202   0.00000  Uiso   1.00
H102   H     0.21636   0.12238   0.00734   0.00000  Uiso   1.00
H103   H     0.20888   0.38757   0.32043   0.00000  Uiso   1.00
H104   H     0.08147   0.03086   0.22197   0.00000  Uiso   1.00
H105   H     0.20426   0.46845   0.32352   0.00000  Uiso   1.00
H106   H     0.11111   0.19719   0.11837   0.00000  Uiso   1.00
N107   N     0.16667   0.24999   0.12623   0.00000  Uiso   1.00
N108   N     0.16667   0.25001   0.37376   0.00000  Uiso   1.00
O109   O     0.16667   0.18454   0.28974   0.00000  Uiso   1.00
O110   O     0.01288   0.27058   0.31265   0.00000  Uiso   1.00
O111   O     0.09669   0.18920   0.02660   0.00000  Uiso   1.00
O112   O     0.15045   0.33027   0.46438   0.00000  Uiso   1.00
O113   O     0.22251   0.31463   0.12851   0.00000  Uiso   1.00
O114   O     0.16165   0.16998   0.37650   0.00000  Uiso   1.00
O115   O     0.23300   0.30545   0.03484   0.00000  Uiso   1.00
O116   O     0.16571   0.16837   0.47339   0.00000  Uiso   1.00
O117   O     0.16666   0.31547   0.21026   0.00000  Uiso   1.00
O118   O     0.16667   0.18453   0.21026   0.00000  Uiso   1.00
O119   O     0.16666   0.31547   0.28974   0.00000  Uiso   1.00
O120   O     0.09058   0.25000   0.28045   0.00000  Uiso   1.00
O121   O     0.24275   0.25000   0.21955   0.00000  Uiso   1.00
O122   O     0.09058   0.25000   0.20096   0.00000  Uiso   1.00
O123   O     0.24275   0.25001   0.29903   0.00000  Uiso   1.00
O124   O     0.31920   0.25225   0.18330   0.00000  Uiso   1.00
Zn125  Zn    0.16667   0.25001   0.30307   0.00000  Uiso   1.00
Zn126  Zn    0.16667   0.25000   0.19693   0.00000  Uiso   1.00
C127   C     0.49974   0.16419   0.25065   0.00000  Uiso   1.00
C128   C     0.49969   0.20921   0.44911   0.00000  Uiso   1.00
C129   C     0.49627   0.24909   0.02624   0.00000  Uiso   1.00
C130   C     0.49558   0.24928   0.47285   0.00000  Uiso   1.00
C131   C     0.40072   0.25276   0.23739   0.00000  Uiso   1.00
C132   C     0.59948   0.25249   0.26201   0.00000  Uiso   1.00
C133   C     0.34597   0.25764   0.22926   0.00000  Uiso   1.00
C134   C     0.65411   0.26090   0.26752   0.00000  Uiso   1.00
C135   C     0.54140   0.04749   0.27111   0.00000  Uiso   1.00
C136   C     0.47071   0.45429   0.21208   0.00000  Uiso   1.00
C137   C     0.54256   0.09371   0.27096   0.00000  Uiso   1.00
C138   C     0.49969   0.33612   0.24947   0.00000  Uiso   1.00
C139   C     0.47212   0.40813   0.21089   0.00000  Uiso   1.00
C140   C     0.49820   0.11673   0.25197   0.00000  Uiso   1.00
C141   C     0.49871   0.38414   0.24946   0.00000  Uiso   1.00
C142   C     0.45231   0.09447   0.23406   0.00000  Uiso   1.00
C143   C     0.52210   0.40600   0.29005   0.00000  Uiso   1.00
C144   C     0.45071   0.04819   0.23514   0.00000  Uiso   1.00
C145   C     0.51977   0.45193   0.29172   0.00000  Uiso   1.00
C146   C     0.49545   0.02464   0.25319   0.00000  Uiso   1.00
C147   C     0.49479   0.47625   0.25247   0.00000  Uiso   1.00
C148   C     0.33576   0.28165   0.14775   0.00000  Uiso   1.00
C149   C     0.46317   0.22061   0.05019   0.00000  Uiso   1.00
C150   C     0.34508   0.33088   0.16204   0.00000  Uiso   1.00
C151   C     0.35538   0.36048   0.11952   0.00000  Uiso   1.00
C152   C     0.33535   0.31488   0.32420   0.00000  Uiso   1.00
C153   C     0.37727   0.34767   0.31087   0.00000  Uiso   1.00
C154   C     0.36553   0.39583   0.32125   0.00000  Uiso   1.00
C155   C     0.38642   0.21038   0.00087   0.00000  Uiso   1.00
C156   C     0.35377   0.17527   0.47111   0.00000  Uiso   1.00
C157   C     0.65440   0.19615   0.42722   0.00000  Uiso   1.00
C158   C     0.43043   0.33352   0.46764   0.00000  Uiso   1.00
C159   C     0.41670   0.38287   0.46860   0.00000  Uiso   1.00
C160   C     0.49210   0.28972   0.44498   0.00000  Uiso   1.00
C161   C     0.35956   0.38825   0.47278   0.00000  Uiso   1.00
C162   C     0.52617   0.35401   0.12577   0.00000  Uiso   1.00
C163   C     0.53395   0.38510   0.08336   0.00000  Uiso   1.00
C164   C     0.50991   0.43065   0.08745   0.00000  Uiso   1.00
C165   C     0.44231   0.15592   0.36757   0.00000  Uiso   1.00
C166   C     0.43927   0.10491   0.36486   0.00000  Uiso   1.00
C167   C     0.38384   0.08837   0.34906   0.00000  Uiso   1.00
C168   C     0.60581   0.27962   0.02089   0.00000  Uiso   1.00
C169   C     0.55008   0.15327   0.48464   0.00000  Uiso   1.00
C170   C     0.46790   0.22044   0.10024   0.00000  Uiso   1.00
C171   C     0.49715   0.28923   0.39632   0.00000  Uiso   1.00
C172   C     0.52786   0.28114   0.10336   0.00000  Uiso   1.00
C173   C     0.49833   0.21019   0.39919   0.00000  Uiso   1.00
C174   C     0.53084   0.27803   0.05441   0.00000  Uiso   1.00
H175   H     0.57647   0.02967   0.28443   0.00000  Uiso   1.00
H176   H     0.49665   0.32063   0.37635   0.00000  Uiso   1.00
H177   H     0.63803   0.28096   0.11705   0.00000  Uiso   1.00
H178   H     0.36923   0.26834   0.13315   0.00000  Uiso   1.00
H179   H     0.64418   0.34325   0.17635   0.00000  Uiso   1.00
H180   H     0.37935   0.33380   0.18989   0.00000  Uiso   1.00
H181   H     0.39101   0.34985   0.10631   0.00000  Uiso   1.00
H182   H     0.36051   0.39592   0.13017   0.00000  Uiso   1.00
H183   H     0.65586   0.35809   0.09022   0.00000  Uiso   1.00
H184   H     0.33556   0.31544   0.36325   0.00000  Uiso   1.00
H185   H     0.62967   0.32651   0.30761   0.00000  Uiso   1.00
H186   H     0.45148   0.47279   0.18137   0.00000  Uiso   1.00
H187   H     0.41517   0.33848   0.33141   0.00000  Uiso   1.00
H188   H     0.38002   0.34562   0.27247   0.00000  Uiso   1.00
H189   H     0.66202   0.40634   0.29949   0.00000  Uiso   1.00
H190   H     0.39730   0.41847   0.31225   0.00000  Uiso   1.00
H191   H     0.36233   0.39895   0.35947   0.00000  Uiso   1.00
H192   H     0.39782   0.23767   0.47681   0.00000  Uiso   1.00
H193   H     0.36274   0.22489   0.02581   0.00000  Uiso   1.00
H194   H     0.37944   0.15017   0.45929   0.00000  Uiso   1.00
H195   H     0.66170   0.15688   0.49353   0.00000  Uiso   1.00
H196   H     0.62539   0.21875   0.43784   0.00000  Uiso   1.00
H197   H     0.57801   0.11150   0.28470   0.00000  Uiso   1.00
H198   H     0.63374   0.16931   0.40542   0.00000  Uiso   1.00
H199   H     0.34596   0.21541   0.40491   0.00000  Uiso   1.00
H200   H     0.42208   0.31641   0.00110   0.00000  Uiso   1.00
H201   H     0.40517   0.31841   0.43682   0.00000  Uiso   1.00
H202   H     0.44058   0.39890   0.49923   0.00000  Uiso   1.00
H203   H     0.42531   0.40030   0.43544   0.00000  Uiso   1.00
H204   H     0.33465   0.37237   0.44258   0.00000  Uiso   1.00
H205   H     0.35057   0.42442   0.47228   0.00000  Uiso   1.00
H206   H     0.35075   0.37263   0.00671   0.00000  Uiso   1.00
H207   H     0.54021   0.37267   0.15835   0.00000  Uiso   1.00
H208   H     0.45228   0.39129   0.18023   0.00000  Uiso   1.00
H209   H     0.48401   0.34668   0.12528   0.00000  Uiso   1.00
H210   H     0.57583   0.39012   0.08159   0.00000  Uiso   1.00
H211   H     0.51496   0.37021   0.05000   0.00000  Uiso   1.00
H212   H     0.46784   0.42656   0.08940   0.00000  Uiso   1.00
H213   H     0.51490   0.45212   0.05575   0.00000  Uiso   1.00
H214   H     0.52914   0.44761   0.11970   0.00000  Uiso   1.00
H215   H     0.42374   0.17125   0.33336   0.00000  Uiso   1.00
H216   H     0.41955   0.16562   0.39560   0.00000  Uiso   1.00
H217   H     0.46433   0.09369   0.33941   0.00000  Uiso   1.00
H218   H     0.45371   0.08979   0.40043   0.00000  Uiso   1.00
H219   H     0.41793   0.11290   0.21982   0.00000  Uiso   1.00
H220   H     0.35813   0.09865   0.37448   0.00000  Uiso   1.00
H221   H     0.38293   0.05124   0.34780   0.00000  Uiso   1.00
H222   H     0.36916   0.10227   0.31302   0.00000  Uiso   1.00
H223   H     0.61194   0.24701   0.04092   0.00000  Uiso   1.00
H224   H     0.64282   0.29898   0.02719   0.00000  Uiso   1.00
H225   H     0.59750   0.27394   0.48226   0.00000  Uiso   1.00
H226   H     0.57553   0.17833   0.00524   0.00000  Uiso   1.00
H227   H     0.56583   0.14443   0.45202   0.00000  Uiso   1.00
H228   H     0.54969   0.12238   0.00734   0.00000  Uiso   1.00
H229   H     0.54221   0.38757   0.32043   0.00000  Uiso   1.00
H230   H     0.41480   0.03086   0.22197   0.00000  Uiso   1.00
H231   H     0.53759   0.46845   0.32352   0.00000  Uiso   1.00
H232   H     0.44444   0.19719   0.11837   0.00000  Uiso   1.00
N233   N     0.50000   0.24999   0.12623   0.00000  Uiso   1.00
N234   N     0.50000   0.25001   0.37376   0.00000  Uiso   1.00
O235   O     0.50000   0.18454   0.28974   0.00000  Uiso   1.00
O236   O     0.34621   0.27058   0.31265   0.00000  Uiso   1.00
O237   O     0.43002   0.18920   0.02660   0.00000  Uiso   1.00
O238   O     0.48378   0.33027   0.46438   0.00000  Uiso   1.00
O239   O     0.55585   0.31463   0.12851   0.00000  Uiso   1.00
O240   O     0.49498   0.16998   0.37650   0.00000  Uiso   1.00
O241   O     0.56633   0.30545   0.03484   0.00000  Uiso   1.00
O242   O     0.49904   0.16837   0.47339   0.00000  Uiso   1.00
O243   O     0.50000   0.31547   0.21026   0.00000  Uiso   1.00
O244   O     0.50000   0.18453   0.21026   0.00000  Uiso   1.00
O245   O     0.50000   0.31547   0.28974   0.00000  Uiso   1.00
O246   O     0.42392   0.25000   0.28045   0.00000  Uiso   1.00
O247   O     0.57608   0.25000   0.21955   0.00000  Uiso   1.00
O248   O     0.42392   0.25000   0.20096   0.00000  Uiso   1.00
O249   O     0.57608   0.25001   0.29903   0.00000  Uiso   1.00
O250   O     0.65253   0.25225   0.18330   0.00000  Uiso   1.00
Zn251  Zn    0.50000   0.25001   0.30307   0.00000  Uiso   1.00
Zn252  Zn    0.50000   0.25000   0.19693   0.00000  Uiso   1.00
C253   C     0.83308   0.16419   0.25065   0.00000  Uiso   1.00
C254   C     0.83303   0.20921   0.44911   0.00000  Uiso   1.00
C255   C     0.82960   0.24909   0.02624   0.00000  Uiso   1.00
C256   C     0.82891   0.24928   0.47285   0.00000  Uiso   1.00
C257   C     0.73406   0.25276   0.23739   0.00000  Uiso   1.00
C258   C     0.93281   0.25249   0.26201   0.00000  Uiso   1.00
C259   C     0.67930   0.25764   0.22926   0.00000  Uiso   1.00
C260   C     0.98744   0.26090   0.26752   0.00000  Uiso   1.00
C261   C     0.87473   0.04749   0.27111   0.00000  Uiso   1.00
C262   C     0.80404   0.45429   0.21208   0.00000  Uiso   1.00
C263   C     0.87589   0.09371   0.27096   0.00000  Uiso   1.00
C264   C     0.83302   0.33612   0.24947   0.00000  Uiso   1.00
C265   C     0.80545   0.40813   0.21089   0.00000  Uiso   1.00
C266   C     0.83153   0.11673   0.25197   0.00000  Uiso   1.00
C267   C     0.83205   0.38414   0.24946   0.00000  Uiso   1.00
C268   C     0.78564   0.09447   0.23406   0.00000  Uiso   1.00
C269   C     0.85544   0.40600   0.29005   0.00000  Uiso   1.00
C270   C     0.78404   0.04819   0.23514   0.00000  Uiso   1.00
C271   C     0.85310   0.45193   0.29172   0.00000  Uiso   1.00
C272   C     0.82878   0.02464   0.25319   0.00000  Uiso   1.00
C273   C     0.82812   0.47625   0.25247   0.00000  Uiso   1.00
C274   C     0.66909   0.28165   0.14775   0.00000  Uiso   1.00
C275   C     0.79650   0.22061   0.05019   0.00000  Uiso   1.00
C276   C     0.67842   0.33088   0.16204   0.00000  Uiso   1.00
C277   C     0.68871   0.36048   0.11952   0.00000  Uiso   1.00
C278   C     0.66869   0.31488   0.32420   0.00000  Uiso   1.00
C279   C     0.71061   0.34767   0.31087   0.00000  Uiso   1.00
C280   C     0.69887   0.39583   0.32125   0.00000  Uiso   1.00
C281   C     0.71975   0.21038   0.00087   0.00000  Uiso   1.00
C282   C     0.68710   0.17527   0.47111   0.00000  Uiso   1.00
C283   C     0.98773   0.19615   0.42722   0.00000  Uiso   1.00
C284   C     0.76377   0.33352   0.46764   0.00000  Uiso   1.00
C285   C     0.75003   0.38287   0.46860   0.00000  Uiso   1.00
C286   C     0.82543   0.28972   0.44498   0.00000  Uiso   1.00
C287   C     0.69289   0.38825   0.47278   0.00000  Uiso   1.00
C288   C     0.85950   0.35401   0.12577   0.00000  Uiso   1.00
C289   C     0.86728   0.38510   0.08336   0.00000  Uiso   1.00
C290   C     0.84325   0.43065   0.08745   0.00000  Uiso   1.00
C291   C     0.77564   0.15592   0.36757   0.00000  Uiso   1.00
C292   C     0.77261   0.10491   0.36486   0.00000  Uiso   1.00
C293   C     0.71717   0.08837   0.34906   0.00000  Uiso   1.00
C294   C     0.93914   0.27962   0.02089   0.00000  Uiso   1.00
C295   C     0.88341   0.15327   0.48464   0.00000  Uiso   1.00
C296   C     0.80123   0.22044   0.10024   0.00000  Uiso   1.00
C297   C     0.83048   0.28923   0.39632   0.00000  Uiso   1.00
C298   C     0.86120   0.28114   0.10336   0.00000  Uiso   1.00
C299   C     0.83166   0.21019   0.39919   0.00000  Uiso   1.00
C300   C     0.86417   0.27803   0.05441   0.00000  Uiso   1.00
H301   H     0.90980   0.02967   0.28443   0.00000  Uiso   1.00
H302   H     0.82998   0.32063   0.37635   0.00000  Uiso   1.00
H303   H     0.97137   0.28096   0.11705   0.00000  Uiso   1.00
H304   H     0.70256   0.26834   0.13315   0.00000  Uiso   1.00
H305   H     0.97751   0.34325   0.17635   0.00000  Uiso   1.00
H306   H     0.71269   0.33380   0.18989   0.00000  Uiso   1.00
H307   H     0.72434   0.34985   0.10631   0.00000  Uiso   1.00
H308   H     0.69385   0.39592   0.13017   0.00000  Uiso   1.00
H309   H     0.98919   0.35809   0.09022   0.00000  Uiso   1.00
H310   H     0.66889   0.31544   0.36325   0.00000  Uiso   1.00
H311   H     0.96300   0.32651   0.30761   0.00000  Uiso   1.00
H312   H     0.78482   0.47279   0.18137   0.00000  Uiso   1.00
H313   H     0.74850   0.33848   0.33141   0.00000  Uiso   1.00
H314   H     0.71335   0.34562   0.27247   0.00000  Uiso   1.00
H315   H     0.99535   0.40634   0.29949   0.00000  Uiso   1.00
H316   H     0.73064   0.41847   0.31225   0.00000  Uiso   1.00
H317   H     0.69566   0.39895   0.35947   0.00000  Uiso   1.00
H318   H     0.73115   0.23767   0.47681   0.00000  Uiso   1.00
H319   H     0.69607   0.22489   0.02581   0.00000  Uiso   1.00
H320   H     0.71278   0.15017   0.45929   0.00000  Uiso   1.00
H321   H     0.99504   0.15688   0.49353   0.00000  Uiso   1.00
H322   H     0.95872   0.21875   0.43784   0.00000  Uiso   1.00
H323   H     0.91134   0.11150   0.28470   0.00000  Uiso   1.00
H324   H     0.96708   0.16931   0.40542   0.00000  Uiso   1.00
H325   H     0.67930   0.21541   0.40491   0.00000  Uiso   1.00
H326   H     0.75541   0.31641   0.00110   0.00000  Uiso   1.00
H327   H     0.73850   0.31841   0.43682   0.00000  Uiso   1.00
H328   H     0.77391   0.39890   0.49923   0.00000  Uiso   1.00
H329   H     0.75864   0.40030   0.43544   0.00000  Uiso   1.00
H330   H     0.66798   0.37237   0.44258   0.00000  Uiso   1.00
H331   H     0.68391   0.42442   0.47228   0.00000  Uiso   1.00
H332   H     0.68408   0.37263   0.00671   0.00000  Uiso   1.00
H333   H     0.87355   0.37267   0.15835   0.00000  Uiso   1.00
H334   H     0.78561   0.39129   0.18023   0.00000  Uiso   1.00
H335   H     0.81735   0.34668   0.12528   0.00000  Uiso   1.00
H336   H     0.90916   0.39012   0.08159   0.00000  Uiso   1.00
H337   H     0.84830   0.37021   0.05000   0.00000  Uiso   1.00
H338   H     0.80118   0.42656   0.08940   0.00000  Uiso   1.00
H339   H     0.84824   0.45212   0.05575   0.00000  Uiso   1.00
H340   H     0.86248   0.44761   0.11970   0.00000  Uiso   1.00
H341   H     0.75707   0.17125   0.33336   0.00000  Uiso   1.00
H342   H     0.75288   0.16562   0.39560   0.00000  Uiso   1.00
H343   H     0.79767   0.09369   0.33941   0.00000  Uiso   1.00
H344   H     0.78704   0.08979   0.40043   0.00000  Uiso   1.00
H345   H     0.75127   0.11290   0.21982   0.00000  Uiso   1.00
H346   H     0.69146   0.09865   0.37448   0.00000  Uiso   1.00
H347   H     0.71626   0.05124   0.34780   0.00000  Uiso   1.00
H348   H     0.70249   0.10227   0.31302   0.00000  Uiso   1.00
H349   H     0.94528   0.24701   0.04092   0.00000  Uiso   1.00
H350   H     0.97615   0.29898   0.02719   0.00000  Uiso   1.00
H351   H     0.93084   0.27394   0.48226   0.00000  Uiso   1.00
H352   H     0.90887   0.17833   0.00524   0.00000  Uiso   1.00
H353   H     0.89916   0.14443   0.45202   0.00000  Uiso   1.00
H354   H     0.88303   0.12238   0.00734   0.00000  Uiso   1.00
H355   H     0.87555   0.38757   0.32043   0.00000  Uiso   1.00
H356   H     0.74814   0.03086   0.22197   0.00000  Uiso   1.00
H357   H     0.87093   0.46845   0.32352   0.00000  Uiso   1.00
H358   H     0.77778   0.19719   0.11837   0.00000  Uiso   1.00
N359   N     0.83333   0.24999   0.12623   0.00000  Uiso   1.00
N360   N     0.83333   0.25001   0.37376   0.00000  Uiso   1.00
O361   O     0.83334   0.18454   0.28974   0.00000  Uiso   1.00
O362   O     0.67955   0.27058   0.31265   0.00000  Uiso   1.00
O363   O     0.76335   0.18920   0.02660   0.00000  Uiso   1.00
O364   O     0.81711   0.33027   0.46438   0.00000  Uiso   1.00
O365   O     0.88918   0.31463   0.12851   0.00000  Uiso   1.00
O366   O     0.82831   0.16998   0.37650   0.00000  Uiso   1.00
O367   O     0.89966   0.30545   0.03484   0.00000  Uiso   1.00
O368   O     0.83238   0.16837   0.47339   0.00000  Uiso   1.00
O369   O     0.83333   0.31547   0.21026   0.00000  Uiso   1.00
O370   O     0.83334   0.18453   0.21026   0.00000  Uiso   1.00
O371   O     0.83333   0.31547   0.28974   0.00000  Uiso   1.00
O372   O     0.75725   0.25000   0.28045   0.00000  Uiso   1.00
O373   O     0.90942   0.25000   0.21955   0.00000  Uiso   1.00
O374   O     0.75725   0.25000   0.20096   0.00000  Uiso   1.00
O375   O     0.90942   0.25001   0.29903   0.00000  Uiso   1.00
O376   O     0.98586   0.25225   0.18330   0.00000  Uiso   1.00
Zn377  Zn    0.83333   0.25001   0.30307   0.00000  Uiso   1.00
Zn378  Zn    0.83333   0.25000   0.19693   0.00000  Uiso   1.00
C379   C     0.16641   0.66419   0.25065   0.00000  Uiso   1.00
C380   C     0.16636   0.70921   0.44911   0.00000  Uiso   1.00
C381   C     0.16294   0.74909   0.02624   0.00000  Uiso   1.00
C382   C     0.16224   0.74928   0.47285   0.00000  Uiso   1.00
C383   C     0.06739   0.75276   0.23739   0.00000  Uiso   1.00
C384   C     0.26615   0.75249   0.26201   0.00000  Uiso   1.00
C385   C     0.01263   0.75764   0.22926   0.00000  Uiso   1.00
C386   C     0.32078   0.76090   0.26752   0.00000  Uiso   1.00
C387   C     0.20806   0.54749   0.27111   0.00000  Uiso   1.00
C388   C     0.13737   0.95429   0.21208   0.00000  Uiso   1.00
C389   C     0.20923   0.59371   0.27096   0.00000  Uiso   1.00
C390   C     0.16636   0.83612   0.24947   0.00000  Uiso   1.00
C391   C     0.13879   0.90813   0.21089   0.00000  Uiso   1.00
C392   C     0.16487   0.61673   0.25197   0.00000  Uiso   1.00
C393   C     0.16538   0.88414   0.24946   0.00000  Uiso   1.00
C394   C     0.11897   0.59447   0.23406   0.00000  Uiso   1.00
C395   C     0.18877   0.90600   0.29005   0.00000  Uiso   1.00
C396   C     0.11738   0.54819   0.23514   0.00000  Uiso   1.00
C397   C     0.18644   0.95193   0.29172   0.00000  Uiso   1.00
C398   C     0.16211   0.52464   0.25319   0.00000  Uiso   1.00
C399   C     0.16145   0.97625   0.25247   0.00000  Uiso   1.00
C400   C     0.00243   0.78165   0.14775   0.00000  Uiso   1.00
C401   C     0.12984   0.72061   0.05019   0.00000  Uiso   1.00
C402   C     0.01175   0.83088   0.16204   0.00000  Uiso   1.00
C403   C     0.02204   0.86048   0.11952   0.00000  Uiso   1.00
C404   C     0.00202   0.81488   0.32420   0.00000  Uiso   1.00
C405   C     0.04394   0.84767   0.31087   0.00000  Uiso   1.00
C406   C     0.03220   0.89583   0.32125   0.00000  Uiso   1.00
C407   C     0.05308   0.71038   0.00087   0.00000  Uiso   1.00
C408   C     0.02044   0.67527   0.47111   0.00000  Uiso   1.00
C409   C     0.32107   0.69615   0.42722   0.00000  Uiso   1.00
C410   C     0.09710   0.83352   0.46764   0.00000  Uiso   1.00
C411   C     0.08336   0.88287   0.46860   0.00000  Uiso   1.00
C412   C     0.15877   0.78972   0.44498   0.00000  Uiso   1.00
C413   C     0.02623   0.88825   0.47278   0.00000  Uiso   1.00
C414   C     0.19283   0.85401   0.12577   0.00000  Uiso   1.00
C415   C     0.20061   0.88510   0.08336   0.00000  Uiso   1.00
C416   C     0.17658   0.93065   0.08745   0.00000  Uiso   1.00
C417   C     0.10897   0.65592   0.36757   0.00000  Uiso   1.00
C418   C     0.10594   0.60491   0.36486   0.00000  Uiso   1.00
C419   C     0.05050   0.58837   0.34906   0.00000  Uiso   1.00
C420   C     0.27248   0.77962   0.02089   0.00000  Uiso   1.00
C421   C     0.21674   0.65327   0.48464   0.00000  Uiso   1.00
C422   C     0.13456   0.72044   0.10024   0.00000  Uiso   1.00
C423   C     0.16382   0.78923   0.39632   0.00000  Uiso   1.00
C424   C     0.19453   0.78114   0.10336   0.00000  Uiso   1.00
C425   C     0.16499   0.71019   0.39919   0.00000  Uiso   1.00
C426   C     0.19751   0.77803   0.05441   0.00000  Uiso   1.00
H427   H     0.24314   0.52967   0.28443   0.00000  Uiso   1.00
H428   H     0.16332   0.82063   0.37635   0.00000  Uiso   1.00
H429   H     0.30470   0.78096   0.11705   0.00000  Uiso   1.00
H430   H     0.03590   0.76834   0.13315   0.00000  Uiso   1.00
H431   H     0.31084   0.84325   0.17635   0.00000  Uiso   1.00
H432   H     0.04602   0.83380   0.18989   0.00000  Uiso   1.00
H433   H     0.05768   0.84985   0.10631   0.00000  Uiso   1.00
H434   H     0.02718   0.89592   0.13017   0.00000  Uiso   1.00
H435   H     0.32252   0.85809   0.09022   0.00000  Uiso   1.00
H436   H     0.00223   0.81544   0.36325   0.00000  Uiso   1.00
H437   H     0.29633   0.82651   0.30761   0.00000  Uiso   1.00
H438   H     0.11815   0.97279   0.18137   0.00000  Uiso   1.00
H439   H     0.08184   0.83848   0.33141   0.00000  Uiso   1.00
H440   H     0.04668   0.84562   0.27247   0.00000  Uiso   1.00
H441   H     0.32868   0.90634   0.29949   0.00000  Uiso   1.00
H442   H     0.06397   0.91847   0.31225   0.00000  Uiso   1.00
H443   H     0.02899   0.89895   0.35947   0.00000  Uiso   1.00
H444   H     0.06448   0.73767   0.47681   0.00000  Uiso   1.00
H445   H     0.02941   0.72489   0.02581   0.00000  Uiso   1.00
H446   H     0.04611   0.65017   0.45929   0.00000  Uiso   1.00
H447   H     0.32837   0.65688   0.49353   0.00000  Uiso   1.00
H448   H     0.29205   0.71875   0.43784   0.00000  Uiso   1.00
H449   H     0.24468   0.61150   0.28470   0.00000  Uiso   1.00
H450   H     0.30041   0.66931   0.40542   0.00000  Uiso   1.00
H451   H     0.01263   0.71541   0.40491   0.00000  Uiso   1.00
H452   H     0.08874   0.81641   0.00110   0.00000  Uiso   1.00
H453   H     0.07184   0.81841   0.43682   0.00000  Uiso   1.00
H454   H     0.10724   0.89890   0.49923   0.00000  Uiso   1.00
H455   H     0.09198   0.90030   0.43544   0.00000  Uiso   1.00
H456   H     0.00132   0.87237   0.44258   0.00000  Uiso   1.00
H457   H     0.01724   0.92442   0.47228   0.00000  Uiso   1.00
H458   H     0.01742   0.87263   0.00671   0.00000  Uiso   1.00
H459   H     0.20688   0.87267   0.15835   0.00000  Uiso   1.00
H460   H     0.11895   0.89129   0.18023   0.00000  Uiso   1.00
H461   H     0.15068   0.84668   0.12528   0.00000  Uiso   1.00
H462   H     0.24249   0.89012   0.08159   0.00000  Uiso   1.00
H463   H     0.18163   0.87021   0.05000   0.00000  Uiso   1.00
H464   H     0.13451   0.92656   0.08940   0.00000  Uiso   1.00
H465   H     0.18157   0.95212   0.05575   0.00000  Uiso   1.00
H466   H     0.19581   0.94761   0.11970   0.00000  Uiso   1.00
H467   H     0.09041   0.67125   0.33336   0.00000  Uiso   1.00
H468   H     0.08622   0.66562   0.39560   0.00000  Uiso   1.00
H469   H     0.13100   0.59369   0.33941   0.00000  Uiso   1.00
H470   H     0.12037   0.58979   0.40043   0.00000  Uiso   1.00
H471   H     0.08460   0.61290   0.21982   0.00000  Uiso   1.00
H472   H     0.02480   0.59865   0.37448   0.00000  Uiso   1.00
H473   H     0.04959   0.55124   0.34780   0.00000  Uiso   1.00
H474   H     0.03582   0.60227   0.31302   0.00000  Uiso   1.00
H475   H     0.27861   0.74701   0.04092   0.00000  Uiso   1.00
H476   H     0.30949   0.79898   0.02719   0.00000  Uiso   1.00
H477   H     0.26417   0.77394   0.48226   0.00000  Uiso   1.00
H478   H     0.24220   0.67833   0.00524   0.00000  Uiso   1.00
H479   H     0.23250   0.64443   0.45202   0.00000  Uiso   1.00
H480   H     0.21636   0.62238   0.00734   0.00000  Uiso   1.00
H481   H     0.20888   0.88757   0.32043   0.00000  Uiso   1.00
H482   H     0.08147   0.53086   0.22197   0.00000  Uiso   1.00
H483   H     0.20426   0.96845   0.32352   0.00000  Uiso   1.00
H484   H     0.11111   0.69719   0.11837   0.00000  Uiso   1.00
N485   N     0.16667   0.74999   0.12623   0.00000  Uiso   1.00
N486   N     0.16667   0.75001   0.37376   0.00000  Uiso   1.00
O487   O     0.16667   0.68454   0.28974   0.00000  Uiso   1.00
O488   O     0.01288   0.77058   0.31265   0.00000  Uiso   1.00
O489   O     0.09669   0.68920   0.02660   0.00000  Uiso   1.00
O490   O     0.15045   0.83027   0.46438   0.00000  Uiso   1.00
O491   O     0.22251   0.81463   0.12851   0.00000  Uiso   1.00
O492   O     0.16165   0.66998   0.37650   0.00000  Uiso   1.00
O493   O     0.23300   0.80545   0.03484   0.00000  Uiso   1.00
O494   O     0.16571   0.66837   0.47339   0.00000  Uiso   1.00
O495   O     0.16666   0.81547   0.21026   0.00000  Uiso   1.00
O496   O     0.16667   0.68453   0.21026   0.00000  Uiso   1.00
O497   O     0.16666   0.81547   0.28974   0.00000  Uiso   1.00
O498   O     0.09058   0.75000   0.28045   0.00000  Uiso   1.00
O499   O     0.24275   0.75000   0.21955   0.00000  Uiso   1.00
O500   O     0.09058   0.75000   0.20096   0.00000  Uiso   1.00
O501   O     0.24275   0.75001   0.29903   0.00000  Uiso   1.00
O502   O     0.31920   0.75225   0.18330   0.00000  Uiso   1.00
Zn503  Zn    0.16667   0.75001   0.30307   0.00000  Uiso   1.00
Zn504  Zn    0.16667   0.75000   0.19693   0.00000  Uiso   1.00
C505   C     0.49974   0.66419   0.25065   0.00000  Uiso   1.00
C506   C     0.49969   0.70921   0.44911   0.00000  Uiso   1.00
C507   C     0.49627   0.74909   0.02624   0.00000  Uiso   1.00
C508   C     0.49558   0.74928   0.47285   0.00000  Uiso   1.00
C509   C     0.40072   0.75276   0.23739   0.00000  Uiso   1.00
C510   C     0.59948   0.75249   0.26201   0.00000  Uiso   1.00
C511   C     0.34597   0.75764   0.22926   0.00000  Uiso   1.00
C512   C     0.65411   0.76090   0.26752   0.00000  Uiso   1.00
C513   C     0.54140   0.54749   0.27111   0.00000  Uiso   1.00
C514   C     0.47071   0.95429   0.21208   0.00000  Uiso   1.00
C515   C     0.54256   0.59371   0.27096   0.00000  Uiso   1.00
C516   C     0.49969   0.83612   0.24947   0.00000  Uiso   1.00
C517   C     0.47212   0.90813   0.21089   0.00000  Uiso   1.00
C518   C     0.49820   0.61673   0.25197   0.00000  Uiso   1.00
C519   C     0.49871   0.88414   0.24946   0.00000  Uiso   1.00
C520   C     0.45231   0.59447   0.23406   0.00000  Uiso   1.00
C521   C     0.52210   0.90600   0.29005   0.00000  Uiso   1.00
C522   C     0.45071   0.54819   0.23514   0.00000  Uiso   1.00
C523   C     0.51977   0.95193   0.29172   0.00000  Uiso   1.00
C524   C     0.49545   0.52464   0.25319   0.00000  Uiso   1.00
C525   C     0.49479   0.97625   0.25247   0.00000  Uiso   1.00
C526   C     0.33576   0.78165   0.14775   0.00000  Uiso   1.00
C527   C     0.46317   0.72061   0.05019   0.00000  Uiso   1.00
C528   C     0.34508   0.83088   0.16204   0.00000  Uiso   1.00
C529   C     0.35538   0.86048   0.11952   0.00000  Uiso   1.00
C530   C     0.33535   0.81488   0.32420   0.00000  Uiso   1.00
C531   C     0.37727   0.84767   0.31087   0.00000  Uiso   1.00
C532   C     0.36553   0.89583   0.32125   0.00000  Uiso   1.00
C533   C     0.38642   0.71038   0.00087   0.00000  Uiso   1.00
C534   C     0.35377   0.67527   0.47111   0.00000  Uiso   1.00
C535   C     0.65440   0.69615   0.42722   0.00000  Uiso   1.00
C536   C     0.43043   0.83352   0.46764   0.00000  Uiso   1.00
C537   C     0.41670   0.88287   0.46860   0.00000  Uiso   1.00
C538   C     0.49210   0.78972   0.44498   0.00000  Uiso   1.00
C539   C     0.35956   0.88825   0.47278   0.00000  Uiso   1.00
C540   C     0.52617   0.85401   0.12577   0.00000  Uiso   1.00
C541   C     0.53395   0.88510   0.08336   0.00000  Uiso   1.00
C542   C     0.50991   0.93065   0.08745   0.00000  Uiso   1.00
C543   C     0.44231   0.65592   0.36757   0.00000  Uiso   1.00
C544   C     0.43927   0.60491   0.36486   0.00000  Uiso   1.00
C545   C     0.38384   0.58837   0.34906   0.00000  Uiso   1.00
C546   C     0.60581   0.77962   0.02089   0.00000  Uiso   1.00
C547   C     0.55008   0.65327   0.48464   0.00000  Uiso   1.00
C548   C     0.46790   0.72044   0.10024   0.00000  Uiso   1.00
C549   C     0.49715   0.78923   0.39632   0.00000  Uiso   1.00
C550   C     0.52786   0.78114   0.10336   0.00000  Uiso   1.00
C551   C     0.49833   0.71019   0.39919   0.00000  Uiso   1.00
C552   C     0.53084   0.77803   0.05441   0.00000  Uiso   1.00
H553   H     0.57647   0.52967   0.28443   0.00000  Uiso   1.00
H554   H     0.49665   0.82063   0.37635   0.00000  Uiso   1.00
H555   H     0.63803   0.78096   0.11705   0.00000  Uiso   1.00
H556   H     0.36923   0.76834   0.13315   0.00000  Uiso   1.00
H557   H     0.64418   0.84325   0.17635   0.00000  Uiso   1.00
H558   H     0.37935   0.83380   0.18989   0.00000  Uiso   1.00
H559   H     0.39101   0.84985   0.10631   0.00000  Uiso   1.00
H560   H     0.36051   0.89592   0.13017   0.00000  Uiso   1.00
H561   H     0.65586   0.85809   0.09022   0.00000  Uiso   1.00
H562   H     0.33556   0.81544   0.36325   0.00000  Uiso   1.00
H563   H     0.62967   0.82651   0.30761   0.00000  Uiso   1.00
H564   H     0.45148   0.97279   0.18137   0.00000  Uiso   1.00
H565   H     0.41517   0.83848   0.33141   0.00000  Uiso   1.00
H566   H     0.38002   0.84562   0.27247   0.00000  Uiso   1.00
H567   H     0.66202   0.90634   0.29949   0.00000  Uiso   1.00
H568   H     0.39730   0.91847   0.31225   0.00000  Uiso   1.00
H569   H     0.36233   0.89895   0.35947   0.00000  Uiso   1.00
H570   H     0.39782   0.73767   0.47681   0.00000  Uiso   1.00
H571   H     0.36274   0.72489   0.02581   0.00000  Uiso   1.00
H572   H     0.37944   0.65017   0.45929   0.00000  Uiso   1.00
H573   H     0.66170   0.65688   0.49353   0.00000  Uiso   1.00
H574   H     0.62539   0.71875   0.43784   0.00000  Uiso   1.00
H575   H     0.57801   0.61150   0.28470   0.00000  Uiso   1.00
H576   H     0.63374   0.66931   0.40542   0.00000  Uiso   1.00
H577   H     0.34596   0.71541   0.40491   0.00000  Uiso   1.00
H578   H     0.42208   0.81641   0.00110   0.00000  Uiso   1.00
H579   H     0.40517   0.81841   0.43682   0.00000  Uiso   1.00
H580   H     0.44058   0.89890   0.49923   0.00000  Uiso   1.00
H581   H     0.42531   0.90030   0.43544   0.00000  Uiso   1.00
H582   H     0.33465   0.87237   0.44258   0.00000  Uiso   1.00
H583   H     0.35057   0.92442   0.47228   0.00000  Uiso   1.00
H584   H     0.35075   0.87263   0.00671   0.00000  Uiso   1.00
H585   H     0.54021   0.87267   0.15835   0.00000  Uiso   1.00
H586   H     0.45228   0.89129   0.18023   0.00000  Uiso   1.00
H587   H     0.48401   0.84668   0.12528   0.00000  Uiso   1.00
H588   H     0.57583   0.89012   0.08159   0.00000  Uiso   1.00
H589   H     0.51496   0.87021   0.05000   0.00000  Uiso   1.00
H590   H     0.46784   0.92656   0.08940   0.00000  Uiso   1.00
H591   H     0.51490   0.95212   0.05575   0.00000  Uiso   1.00
H592   H     0.52914   0.94761   0.11970   0.00000  Uiso   1.00
H593   H     0.42374   0.67125   0.33336   0.00000  Uiso   1.00
H594   H     0.41955   0.66562   0.39560   0.00000  Uiso   1.00
H595   H     0.46433   0.59369   0.33941   0.00000  Uiso   1.00
H596   H     0.45371   0.58979   0.40043   0.00000  Uiso   1.00
H597   H     0.41793   0.61290   0.21982   0.00000  Uiso   1.00
H598   H     0.35813   0.59865   0.37448   0.00000  Uiso   1.00
H599   H     0.38293   0.55124   0.34780   0.00000  Uiso   1.00
H600   H     0.36916   0.60227   0.31302   0.00000  Uiso   1.00
H601   H     0.61194   0.74701   0.04092   0.00000  Uiso   1.00
H602   H     0.64282   0.79898   0.02719   0.00000  Uiso   1.00
H603   H     0.59750   0.77394   0.48226   0.00000  Uiso   1.00
H604   H     0.57553   0.67833   0.00524   0.00000  Uiso   1.00
H605   H     0.56583   0.64443   0.45202   0.00000  Uiso   1.00
H606   H     0.54969   0.62238   0.00734   0.00000  Uiso   1.00
H607   H     0.54221   0.88757   0.32043   0.00000  Uiso   1.00
H608   H     0.41480   0.53086   0.22197   0.00000  Uiso   1.00
H609   H     0.53759   0.96845   0.32352   0.00000  Uiso   1.00
H610   H     0.44444   0.69719   0.11837   0.00000  Uiso   1.00
N611   N     0.50000   0.74999   0.12623   0.00000  Uiso   1.00
N612   N     0.50000   0.75001   0.37376   0.00000  Uiso   1.00
O613   O     0.50000   0.68454   0.28974   0.00000  Uiso   1.00
O614   O     0.34621   0.77058   0.31265   0.00000  Uiso   1.00
O615   O     0.43002   0.68920   0.02660   0.00000  Uiso   1.00
O616   O     0.48378   0.83027   0.46438   0.00000  Uiso   1.00
O617   O     0.55585   0.81463   0.12851   0.00000  Uiso   1.00
O618   O     0.49498   0.66998   0.37650   0.00000  Uiso   1.00
O619   O     0.56633   0.80545   0.03484   0.00000  Uiso   1.00
O620   O     0.49904   0.66837   0.47339   0.00000  Uiso   1.00
O621   O     0.50000   0.81547   0.21026   0.00000  Uiso   1.00
O622   O     0.50000   0.68453   0.21026   0.00000  Uiso   1.00
O623   O     0.50000   0.81547   0.28974   0.00000  Uiso   1.00
O624   O     0.42392   0.75000   0.28045   0.00000  Uiso   1.00
O625   O     0.57608   0.75000   0.21955   0.00000  Uiso   1.00
O626   O     0.42392   0.75000   0.20096   0.00000  Uiso   1.00
O627   O     0.57608   0.75001   0.29903   0.00000  Uiso   1.00
O628   O     0.65253   0.75225   0.18330   0.00000  Uiso   1.00
Zn629  Zn    0.50000   0.75001   0.30307   0.00000  Uiso   1.00
Zn630  Zn    0.50000   0.75000   0.19693   0.00000  Uiso   1.00
C631   C     0.83308   0.66419   0.25065   0.00000  Uiso   1.00
C632   C     0.83303   0.70921   0.44911   0.00000  Uiso   1.00
C633   C     0.82960   0.74909   0.02624   0.00000  Uiso   1.00
C634   C     0.82891   0.74928   0.47285   0.00000  Uiso   1.00
C635   C     0.73406   0.75276   0.23739   0.00000  Uiso   1.00
C636   C     0.93281   0.75249   0.26201   0.00000  Uiso   1.00
C637   C     0.67930   0.75764   0.22926   0.00000  Uiso   1.00
C638   C     0.98744   0.76090   0.26752   0.00000  Uiso   1.00
C639   C     0.87473   0.54749   0.27111   0.00000  Uiso   1.00
C640   C     0.80404   0.95429   0.21208   0.00000  Uiso   1.00
C641   C     0.87589   0.59371   0.27096   0.00000  Uiso   1.00
C642   C     0.83302   0.83612   0.24947   0.00000  Uiso   1.00
C643   C     0.80545   0.90813   0.21089   0.00000  Uiso   1.00
C644   C     0.83153   0.61673   0.25197   0.00000  Uiso   1.00
C645   C     0.83205   0.88414   0.24946   0.00000  Uiso   1.00
C646   C     0.78564   0.59447   0.23406   0.00000  Uiso   1.00
C647   C     0.85544   0.90600   0.29005   0.00000  Uiso   1.00
C648   C     0.78404   0.54819   0.23514   0.00000  Uiso   1.00
C649   C     0.85310   0.95193   0.29172   0.00000  Uiso   1.00
C650   C     0.82878   0.52464   0.25319   0.00000  Uiso   1.00
C651   C     0.82812   0.97625   0.25247   0.00000  Uiso   1.00
C652   C     0.66909   0.78165   0.14775   0.00000  Uiso   1.00
C653   C     0.79650   0.72061   0.05019   0.00000  Uiso   1.00
C654   C     0.67842   0.83088   0.16204   0.00000  Uiso   1.00
C655   C     0.68871   0.86048   0.11952   0.00000  Uiso   1.00
C656   C     0.66869   0.81488   0.32420   0.00000  Uiso   1.00
C657   C     0.71061   0.84767   0.31087   0.00000  Uiso   1.00
C658   C     0.69887   0.89583   0.32125   0.00000  Uiso   1.00
C659   C     0.71975   0.71038   0.00087   0.00000  Uiso   1.00
C660   C     0.68710   0.67527   0.47111   0.00000  Uiso   1.00
C661   C     0.98773   0.69615   0.42722   0.00000  Uiso   1.00
C662   C     0.76377   0.83352   0.46764   0.00000  Uiso   1.00
C663   C     0.75003   0.88287   0.46860   0.00000  Uiso   1.00
C664   C     0.82543   0.78972   0.44498   0.00000  Uiso   1.00
C665   C     0.69289   0.88825   0.47278   0.00000  Uiso   1.00
C666   C     0.85950   0.85401   0.12577   0.00000  Uiso   1.00
C667   C     0.86728   0.88510   0.08336   0.00000  Uiso   1.00
C668   C     0.84325   0.93065   0.08745   0.00000  Uiso   1.00
C669   C     0.77564   0.65592   0.36757   0.00000  Uiso   1.00
C670   C     0.77261   0.60491   0.36486   0.00000  Uiso   1.00
C671   C     0.71717   0.58837   0.34906   0.00000  Uiso   1.00
C672   C     0.93914   0.77962   0.02089   0.00000  Uiso   1.00
C673   C     0.88341   0.65327   0.48464   0.00000  Uiso   1.00
C674   C     0.80123   0.72044   0.10024   0.00000  Uiso   1.00
C675   C     0.83048   0.78923   0.39632   0.00000  Uiso   1.00
C676   C     0.86120   0.78114   0.10336   0.00000  Uiso   1.00
C677   C     0.83166   0.71019   0.39919   0.00000  Uiso   1.00
C678   C     0.86417   0.77803   0.05441   0.00000  Uiso   1.00
H679   H     0.90980   0.52967   0.28443   0.00000  Uiso   1.00
H680   H     0.82998   0.82063   0.37635   0.00000  Uiso   1.00
H681   H     0.97137   0.78096   0.11705   0.00000  Uiso   1.00
H682   H     0.70256   0.76834   0.13315   0.00000  Uiso   1.00
H683   H     0.97751   0.84325   0.17635   0.00000  Uiso   1.00
H684   H     0.71269   0.83380   0.18989   0.00000  Uiso   1.00
H685   H     0.72434   0.84985   0.10631   0.00000  Uiso   1.00
H686   H     0.69385   0.89592   0.13017   0.00000  Uiso   1.00
H687   H     0.98919   0.85809   0.09022   0.00000  Uiso   1.00
H688   H     0.66889   0.81544   0.36325   0.00000  Uiso   1.00
H689   H     0.96300   0.82651   0.30761   0.00000  Uiso   1.00
H690   H     0.78482   0.97279   0.18137   0.00000  Uiso   1.00
H691   H     0.74850   0.83848   0.33141   0.00000  Uiso   1.00
H692   H     0.71335   0.84562   0.27247   0.00000  Uiso   1.00
H693   H     0.99535   0.90634   0.29949   0.00000  Uiso   1.00
H694   H     0.73064   0.91847   0.31225   0.00000  Uiso   1.00
H695   H     0.69566   0.89895   0.35947   0.00000  Uiso   1.00
H696   H     0.73115   0.73767   0.47681   0.00000  Uiso   1.00
H697   H     0.69607   0.72489   0.02581   0.00000  Uiso   1.00
H698   H     0.71278   0.65017   0.45929   0.00000  Uiso   1.00
H699   H     0.99504   0.65688   0.49353   0.00000  Uiso   1.00
H700   H     0.95872   0.71875   0.43784   0.00000  Uiso   1.00
H701   H     0.91134   0.61150   0.28470   0.00000  Uiso   1.00
H702   H     0.96708   0.66931   0.40542   0.00000  Uiso   1.00
H703   H     0.67930   0.71541   0.40491   0.00000  Uiso   1.00
H704   H     0.75541   0.81641   0.00110   0.00000  Uiso   1.00
H705   H     0.73850   0.81841   0.43682   0.00000  Uiso   1.00
H706   H     0.77391   0.89890   0.49923   0.00000  Uiso   1.00
H707   H     0.75864   0.90030   0.43544   0.00000  Uiso   1.00
H708   H     0.66798   0.87237   0.44258   0.00000  Uiso   1.00
H709   H     0.68391   0.92442   0.47228   0.00000  Uiso   1.00
H710   H     0.68408   0.87263   0.00671   0.00000  Uiso   1.00
H711   H     0.87355   0.87267   0.15835   0.00000  Uiso   1.00
H712   H     0.78561   0.89129   0.18023   0.00000  Uiso   1.00
H713   H     0.81735   0.84668   0.12528   0.00000  Uiso   1.00
H714   H     0.90916   0.89012   0.08159   0.00000  Uiso   1.00
H715   H     0.84830   0.87021   0.05000   0.00000  Uiso   1.00
H716   H     0.80118   0.92656   0.08940   0.00000  Uiso   1.00
H717   H     0.84824   0.95212   0.05575   0.00000  Uiso   1.00
H718   H     0.86248   0.94761   0.11970   0.00000  Uiso   1.00
H719   H     0.75707   0.67125   0.33336   0.00000  Uiso   1.00
H720   H     0.75288   0.66562   0.39560   0.00000  Uiso   1.00
H721   H     0.79767   0.59369   0.33941   0.00000  Uiso   1.00
H722   H     0.78704   0.58979   0.40043   0.00000  Uiso   1.00
H723   H     0.75127   0.61290   0.21982   0.00000  Uiso   1.00
H724   H     0.69146   0.59865   0.37448   0.00000  Uiso   1.00
H725   H     0.71626   0.55124   0.34780   0.00000  Uiso   1.00
H726   H     0.70249   0.60227   0.31302   0.00000  Uiso   1.00
H727   H     0.94528   0.74701   0.04092   0.00000  Uiso   1.00
H728   H     0.97615   0.79898   0.02719   0.00000  Uiso   1.00
H729   H     0.93084   0.77394   0.48226   0.00000  Uiso   1.00
H730   H     0.90887   0.67833   0.00524   0.00000  Uiso   1.00
H731   H     0.89916   0.64443   0.45202   0.00000  Uiso   1.00
H732   H     0.88303   0.62238   0.00734   0.00000  Uiso   1.00
H733   H     0.87555   0.88757   0.32043   0.00000  Uiso   1.00
H734   H     0.74814   0.53086   0.22197   0.00000  Uiso   1.00
H735   H     0.87093   0.96845   0.32352   0.00000  Uiso   1.00
H736   H     0.77778   0.69719   0.11837   0.00000  Uiso   1.00
N737   N     0.83333   0.74999   0.12623   0.00000  Uiso   1.00
N738   N     0.83333   0.75001   0.37376   0.00000  Uiso   1.00
O739   O     0.83334   0.68454   0.28974   0.00000  Uiso   1.00
O740   O     0.67955   0.77058   0.31265   0.00000  Uiso   1.00
O741   O     0.76335   0.68920   0.02660   0.00000  Uiso   1.00
O742   O     0.81711   0.83027   0.46438   0.00000  Uiso   1.00
O743   O     0.88918   0.81463   0.12851   0.00000  Uiso   1.00
O744   O     0.82831   0.66998   0.37650   0.00000  Uiso   1.00
O745   O     0.89966   0.80545   0.03484   0.00000  Uiso   1.00
O746   O     0.83238   0.66837   0.47339   0.00000  Uiso   1.00
O747   O     0.83333   0.81547   0.21026   0.00000  Uiso   1.00
O748   O     0.83334   0.68453   0.21026   0.00000  Uiso   1.00
O749   O     0.83333   0.81547   0.28974   0.00000  Uiso   1.00
O750   O     0.75725   0.75000   0.28045   0.00000  Uiso   1.00
O751   O     0.90942   0.75000   0.21955   0.00000  Uiso   1.00
O752   O     0.75725   0.75000   0.20096   0.00000  Uiso   1.00
O753   O     0.90942   0.75001   0.29903   0.00000  Uiso   1.00
O754   O     0.98586   0.75225   0.18330   0.00000  Uiso   1.00
Zn755  Zn    0.83333   0.75001   0.30307   0.00000  Uiso   1.00
Zn756  Zn    0.83333   0.75000   0.19693   0.00000  Uiso   1.00
C757   C     0.16641   0.16419   0.75065   0.00000  Uiso   1.00
C758   C     0.16636   0.20921   0.94911   0.00000  Uiso   1.00
C759   C     0.16294   0.24909   0.52624   0.00000  Uiso   1.00
C760   C     0.16224   0.24928   0.97285   0.00000  Uiso   1.00
C761   C     0.06739   0.25276   0.73739   0.00000  Uiso   1.00
C762   C     0.26615   0.25249   0.76201   0.00000  Uiso   1.00
C763   C     0.01263   0.25764   0.72926   0.00000  Uiso   1.00
C764   C     0.32078   0.26090   0.76752   0.00000  Uiso   1.00
C765   C     0.20806   0.04749   0.77111   0.00000  Uiso   1.00
C766   C     0.13737   0.45429   0.71208   0.00000  Uiso   1.00
C767   C     0.20923   0.09371   0.77096   0.00000  Uiso   1.00
C768   C     0.16636   0.33612   0.74947   0.00000  Uiso   1.00
C769   C     0.13879   0.40813   0.71089   0.00000  Uiso   1.00
C770   C     0.16487   0.11673   0.75197   0.00000  Uiso   1.00
C771   C     0.16538   0.38414   0.74946   0.00000  Uiso   1.00
C772   C     0.11897   0.09447   0.73406   0.00000  Uiso   1.00
C773   C     0.18877   0.40600   0.79005   0.00000  Uiso   1.00
C774   C     0.11738   0.04819   0.73514   0.00000  Uiso   1.00
C775   C     0.18644   0.45193   0.79172   0.00000  Uiso   1.00
C776   C     0.16211   0.02464   0.75319   0.00000  Uiso   1.00
C777   C     0.16145   0.47625   0.75247   0.00000  Uiso   1.00
C778   C     0.00243   0.28165   0.64775   0.00000  Uiso   1.00
C779   C     0.12984   0.22061   0.55019   0.00000  Uiso   1.00
C780   C     0.01175   0.33088   0.66204   0.00000  Uiso   1.00
C781   C     0.02204   0.36048   0.61952   0.00000  Uiso   1.00
C782   C     0.00202   0.31488   0.82420   0.00000  Uiso   1.00
C783   C     0.04394   0.34767   0.81087   0.00000  Uiso   1.00
C784   C     0.03220   0.39583   0.82125   0.00000  Uiso   1.00
C785   C     0.05308   0.21038   0.50087   0.00000  Uiso   1.00
C786   C     0.02044   0.17527   0.97111   0.00000  Uiso   1.00
C787   C     0.32107   0.19615   0.92722   0.00000  Uiso   1.00
C788   C     0.09710   0.33352   0.96764   0.00000  Uiso   1.00
C789   C     0.08336   0.38287   0.96860   0.00000  Uiso   1.00
C790   C     0.15877   0.28972   0.94498   0.00000  Uiso   1.00
C791   C     0.02623   0.38825   0.97278   0.00000  Uiso   1.00
C792   C     0.19283   0.35401   0.62577   0.00000  Uiso   1.00
C793   C     0.20061   0.38510   0.58336   0.00000  Uiso   1.00
C794   C     0.17658   0.43065   0.58745   0.00000  Uiso   1.00
C795   C     0.10897   0.15592   0.86757   0.00000  Uiso   1.00
C796   C     0.10594   0.10491   0.86486   0.00000  Uiso   1.00
C797   C     0.05050   0.08837   0.84906   0.00000  Uiso   1.00
C798   C     0.27248   0.27962   0.52089   0.00000  Uiso   1.00
C799   C     0.21674   0.15327   0.98464   0.00000  Uiso   1.00
C800   C     0.13456   0.22044   0.60024   0.00000  Uiso   1.00
C801   C     0.16382   0.28923   0.89632   0.00000  Uiso   1.00
C802   C     0.19453   0.28114   0.60336   0.00000  Uiso   1.00
C803   C     0.16499   0.21019   0.89919   0.00000  Uiso   1.00
C804   C     0.19751   0.27803   0.55441   0.00000  Uiso   1.00
H805   H     0.24314   0.02967   0.78443   0.00000  Uiso   1.00
H806   H     0.16332   0.32063   0.87635   0.00000  Uiso   1.00
H807   H     0.30470   0.28096   0.61705   0.00000  Uiso   1.00
H808   H     0.03590   0.26834   0.63315   0.00000  Uiso   1.00
H809   H     0.31084   0.34325   0.67635   0.00000  Uiso   1.00
H810   H     0.04602   0.33380   0.68989   0.00000  Uiso   1.00
H811   H     0.05768   0.34985   0.60631   0.00000  Uiso   1.00
H812   H     0.02718   0.39592   0.63017   0.00000  Uiso   1.00
H813   H     0.32252   0.35809   0.59022   0.00000  Uiso   1.00
H814   H     0.00223   0.31544   0.86325   0.00000  Uiso   1.00
H815   H     0.29633   0.32651   0.80761   0.00000  Uiso   1.00
H816   H     0.11815   0.47279   0.68137   0.00000  Uiso   1.00
H817   H     0.08184   0.33848   0.83141   0.00000  Uiso   1.00
H818   H     0.04668   0.34562   0.77247   0.00000  Uiso   1.00
H819   H     0.32868   0.40634   0.79949   0.00000  Uiso   1.00
H820   H     0.06397   0.41847   0.81225   0.00000  Uiso   1.00
H821   H     0.02899   0.39895   0.85947   0.00000  Uiso   1.00
H822   H     0.06448   0.23767   0.97681   0.00000  Uiso   1.00
H823   H     0.02941   0.22489   0.52581   0.00000  Uiso   1.00
H824   H     0.04611   0.15017   0.95929   0.00000  Uiso   1.00
H825   H     0.32837   0.15688   0.99353   0.00000  Uiso   1.00
H826   H     0.29205   0.21875   0.93784   0.00000  Uiso   1.00
H827   H     0.24468   0.11150   0.78470   0.00000  Uiso   1.00
H828   H     0.30041   0.16931   0.90542   0.00000  Uiso   1.00
H829   H     0.01263   0.21541   0.90491   0.00000  Uiso   1.00
H830   H     0.08874   0.31641   0.50110   0.00000  Uiso   1.00
H831   H     0.07184   0.31841   0.93682   0.00000  Uiso   1.00
H832   H     0.10724   0.39890   0.99923   0.00000  Uiso   1.00
H833   H     0.09198   0.40030   0.93544   0.00000  Uiso   1.00
H834   H     0.00132   0.37237   0.94258   0.00000  Uiso   1.00
H835   H     0.01724   0.42442   0.97228   0.00000  Uiso   1.00
H836   H     0.01742   0.37263   0.50671   0.00000  Uiso   1.00
H837   H     0.20688   0.37267   0.65835   0.00000  Uiso   1.00
H838   H     0.11895   0.39129   0.68023   0.00000  Uiso   1.00
H839   H     0.15068   0.34668   0.62528   0.00000  Uiso   1.00
H840   H     0.24249   0.39012   0.58159   0.00000  Uiso   1.00
H841   H     0.18163   0.37021   0.55000   0.00000  Uiso   1.00
H842   H     0.13451   0.42656   0.58940   0.00000  Uiso   1.00
H843   H     0.18157   0.45212   0.55575   0.00000  Uiso   1.00
H844   H     0.19581   0.44761   0.61970   0.00000  Uiso   1.00
H845   H     0.09041   0.17125   0.83336   0.00000  Uiso   1.00
H846   H     0.08622   0.16562   0.89560   0.00000  Uiso   1.00
H847   H     0.13100   0.09369   0.83941   0.00000  Uiso   1.00
H848   H     0.12037   0.08979   0.90043   0.00000  Uiso   1.00
H849   H     0.08460   0.11290   0.71982   0.00000  Uiso   1.00
H850   H     0.02480   0.09865   0.87448   0.00000  Uiso   1.00
H851   H     0.04959   0.05124   0.84780   0.00000  Uiso   1.00
H852   H     0.03582   0.10227   0.81302   0.00000  Uiso   1.00
H853   H     0.27861   0.24701   0.54092   0.00000  Uiso   1.00
H854   H     0.30949   0.29898   0.52719   0.00000  Uiso   1.00
H855   H     0.26417   0.27394   0.98226   0.00000  Uiso   1.00
H856   H     0.24220   0.17833   0.50524   0.00000  Uiso   1.00
H857   H     0.23250   0.14443   0.95202   0.00000  Uiso   1.00
H858   H     0.21636   0.12238   0.50734   0.00000  Uiso   1.00
H859   H     0.20888   0.38757   0.82043   0.00000  Uiso   1.00
H860   H     0.08147   0.03086   0.72197   0.00000  Uiso   1.00
H861   H     0.20426   0.46845   0.82352   0.00000  Uiso   1.00
H862   H     0.11111   0.19719   0.61837   0.00000  Uiso   1.00
N863   N     0.16667   0.24999   0.62623   0.00000  Uiso   1.00
N864   N     0.16667   0.25001   0.87376   0.00000  Uiso   1.00
O865   O     0.16667   0.18454   0.78974   0.00000  Uiso   1.00
O866   O     0.01288   0.27058   0.81265   0.00000  Uiso   1.00
O867   O     0.09669   0.18920   0.52660   0.00000  Uiso   1.00
O868   O     0.15045   0.33027   0.96438   0.00000  Uiso   1.00
O869   O     0.22251   0.31463   0.62851   0.00000  Uiso   1.00
O870   O     0.16165   0.16998   0.87650   0.00000  Uiso   1.00
O871   O     0.23300   0.30545   0.53484   0.00000  Uiso   1.00
O872   O     0.16571   0.16837   0.97339   0.00000  Uiso   1.00
O873   O     0.16666   0.31547   0.71026   0.00000  Uiso   1.00
O874   O     0.16667   0.18453   0.71026   0.00000  Uiso   1.00
O875   O     0.16666   0.31547   0.78974   0.00000  Uiso   1.00
O876   O     0.09058   0.25000   0.78045   0.00000  Uiso   1.00
O877   O     0.24275   0.25000   0.71955   0.00000  Uiso   1.00
O878   O     0.09058   0.25000   0.70096   0.00000  Uiso   1.00
O879   O     0.24275   0.25001   0.79903   0.00000  Uiso   1.00
O880   O     0.31920   0.25225   0.68330   0.00000  Uiso   1.00
Zn881  Zn    0.16667   0.25001   0.80307   0.00000  Uiso   1.00
Zn882  Zn    0.16667   0.25000   0.69693   0.00000  Uiso   1.00
C883   C     0.49974   0.16419   0.75065   0.00000  Uiso   1.00
C884   C     0.49969   0.20921   0.94911   0.00000  Uiso   1.00
C885   C     0.49627   0.24909   0.52624   0.00000  Uiso   1.00
C886   C     0.49558   0.24928   0.97285   0.00000  Uiso   1.00
C887   C     0.40072   0.25276   0.73739   0.00000  Uiso   1.00
C888   C     0.59948   0.25249   0.76201   0.00000  Uiso   1.00
C889   C     0.34597   0.25764   0.72926   0.00000  Uiso   1.00
C890   C     0.65411   0.26090   0.76752   0.00000  Uiso   1.00
C891   C     0.54140   0.04749   0.77111   0.00000  Uiso   1.00
C892   C     0.47071   0.45429   0.71208   0.00000  Uiso   1.00
C893   C     0.54256   0.09371   0.77096   0.00000  Uiso   1.00
C894   C     0.49969   0.33612   0.74947   0.00000  Uiso   1.00
C895   C     0.47212   0.40813   0.71089   0.00000  Uiso   1.00
C896   C     0.49820   0.11673   0.75197   0.00000  Uiso   1.00
C897   C     0.49871   0.38414   0.74946   0.00000  Uiso   1.00
C898   C     0.45231   0.09447   0.73406   0.00000  Uiso   1.00
C899   C     0.52210   0.40600   0.79005   0.00000  Uiso   1.00
C900   C     0.45071   0.04819   0.73514   0.00000  Uiso   1.00
C901   C     0.51977   0.45193   0.79172   0.00000  Uiso   1.00
C902   C     0.49545   0.02464   0.75319   0.00000  Uiso   1.00
C903   C     0.49479   0.47625   0.75247   0.00000  Uiso   1.00
C904   C     0.33576   0.28165   0.64775   0.00000  Uiso   1.00
C905   C     0.46317   0.22061   0.55019   0.00000  Uiso   1.00
C906   C     0.34508   0.33088   0.66204   0.00000  Uiso   1.00
C907   C     0.35538   0.36048   0.61952   0.00000  Uiso   1.00
C908   C     0.33535   0.31488   0.82420   0.00000  Uiso   1.00
C909   C     0.37727   0.34767   0.81087   0.00000  Uiso   1.00
C910   C     0.36553   0.39583   0.82125   0.00000  Uiso   1.00
C911   C     0.38642   0.21038   0.50087   0.00000  Uiso   1.00
C912   C     0.35377   0.17527   0.97111   0.00000  Uiso   1.00
C913   C     0.65440   0.19615   0.92722   0.00000  Uiso   1.00
C914   C     0.43043   0.33352   0.96764   0.00000  Uiso   1.00
C915   C     0.41670   0.38287   0.96860   0.00000  Uiso   1.00
C916   C     0.49210   0.28972   0.94498   0.00000  Uiso   1.00
C917   C     0.35956   0.38825   0.97278   0.00000  Uiso   1.00
C918   C     0.52617   0.35401   0.62577   0.00000  Uiso   1.00
C919   C     0.53395   0.38510   0.58336   0.00000  Uiso   1.00
C920   C     0.50991   0.43065   0.58745   0.00000  Uiso   1.00
C921   C     0.44231   0.15592   0.86757   0.00000  Uiso   1.00
C922   C     0.43927   0.10491   0.86486   0.00000  Uiso   1.00
C923   C     0.38384   0.08837   0.84906   0.00000  Uiso   1.00
C924   C     0.60581   0.27962   0.52089   0.00000  Uiso   1.00
C925   C     0.55008   0.15327   0.98464   0.00000  Uiso   1.00
C926   C     0.46790   0.22044   0.60024   0.00000  Uiso   1.00
C927   C     0.49715   0.28923   0.89632   0.00000  Uiso   1.00
C928   C     0.52786   0.28114   0.60336   0.00000  Uiso   1.00
C929   C     0.49833   0.21019   0.89919   0.00000  Uiso   1.00
C930   C     0.53084   0.27803   0.55441   0.00000  Uiso   1.00
H931   H     0.57647   0.02967   0.78443   0.00000  Uiso   1.00
H932   H     0.49665   0.32063   0.87635   0.00000  Uiso   1.00
H933   H     0.63803   0.28096   0.61705   0.00000  Uiso   1.00
H934   H     0.36923   0.26834   0.63315   0.00000  Uiso   1.00
H935   H     0.64418   0.34325   0.67635   0.00000  Uiso   1.00
H936   H     0.37935   0.33380   0.68989   0.00000  Uiso   1.00
H937   H     0.39101   0.34985   0.60631   0.00000  Uiso   1.00
H938   H     0.36051   0.39592   0.63017   0.00000  Uiso   1.00
H939   H     0.65586   0.35809   0.59022   0.00000  Uiso   1.00
H940   H     0.33556   0.31544   0.86325   0.00000  Uiso   1.00
H941   H     0.62967   0.32651   0.80761   0.00000  Uiso   1.00
H942   H     0.45148   0.47279   0.68137   0.00000  Uiso   1.00
H943   H     0.41517   0.33848   0.83141   0.00000  Uiso   1.00
H944   H     0.38002   0.34562   0.77247   0.00000  Uiso   1.00
H945   H     0.66202   0.40634   0.79949   0.00000  Uiso   1.00
H946   H     0.39730   0.41847   0.81225   0.00000  Uiso   1.00
H947   H     0.36233   0.39895   0.85947   0.00000  Uiso   1.00
H948   H     0.39782   0.23767   0.97681   0.00000  Uiso   1.00
H949   H     0.36274   0.22489   0.52581   0.00000  Uiso   1.00
H950   H     0.37944   0.15017   0.95929   0.00000  Uiso   1.00
H951   H     0.66170   0.15688   0.99353   0.00000  Uiso   1.00
H952   H     0.62539   0.21875   0.93784   0.00000  Uiso   1.00
H953   H     0.57801   0.11150   0.78470   0.00000  Uiso   1.00
H954   H     0.63374   0.16931   0.90542   0.00000  Uiso   1.00
H955   H     0.34596   0.21541   0.90491   0.00000  Uiso   1.00
H956   H     0.42208   0.31641   0.50110   0.00000  Uiso   1.00
H957   H     0.40517   0.31841   0.93682   0.00000  Uiso   1.00
H958   H     0.44058   0.39890   0.99923   0.00000  Uiso   1.00
H959   H     0.42531   0.40030   0.93544   0.00000  Uiso   1.00
H960   H     0.33465   0.37237   0.94258   0.00000  Uiso   1.00
H961   H     0.35057   0.42442   0.97228   0.00000  Uiso   1.00
H962   H     0.35075   0.37263   0.50671   0.00000  Uiso   1.00
H963   H     0.54021   0.37267   0.65835   0.00000  Uiso   1.00
H964   H     0.45228   0.39129   0.68023   0.00000  Uiso   1.00
H965   H     0.48401   0.34668   0.62528   0.00000  Uiso   1.00
H966   H     0.57583   0.39012   0.58159   0.00000  Uiso   1.00
H967   H     0.51496   0.37021   0.55000   0.00000  Uiso   1.00
H968   H     0.46784   0.42656   0.58940   0.00000  Uiso   1.00
H969   H     0.51490   0.45212   0.55575   0.00000  Uiso   1.00
H970   H     0.52914   0.44761   0.61970   0.00000  Uiso   1.00
H971   H     0.42374   0.17125   0.83336   0.00000  Uiso   1.00
H972   H     0.41955   0.16562   0.89560   0.00000  Uiso   1.00
H973   H     0.46433   0.09369   0.83941   0.00000  Uiso   1.00
H974   H     0.45371   0.08979   0.90043   0.00000  Uiso   1.00
H975   H     0.41793   0.11290   0.71982   0.00000  Uiso   1.00
H976   H     0.35813   0.09865   0.87448   0.00000  Uiso   1.00
H977   H     0.38293   0.05124   0.84780   0.00000  Uiso   1.00
H978   H     0.36916   0.10227   0.81302   0.00000  Uiso   1.00
H979   H     0.61194   0.24701   0.54092   0.00000  Uiso   1.00
H980   H     0.64282   0.29898   0.52719   0.00000  Uiso   1.00
H981   H     0.59750   0.27394   0.98226   0.00000  Uiso   1.00
H982   H     0.57553   0.17833   0.50524   0.00000  Uiso   1.00
H983   H     0.56583   0.14443   0.95202   0.00000  Uiso   1.00
H984   H     0.54969   0.12238   0.50734   0.00000  Uiso   1.00
H985   H     0.54221   0.38757   0.82043   0.00000  Uiso   1.00
H986   H     0.41480   0.03086   0.72197   0.00000  Uiso   1.00
H987   H     0.53759   0.46845   0.82352   0.00000  Uiso   1.00
H988   H     0.44444   0.19719   0.61837   0.00000  Uiso   1.00
N989   N     0.50000   0.24999   0.62623   0.00000  Uiso   1.00
N990   N     0.50000   0.25001   0.87376   0.00000  Uiso   1.00
O991   O     0.50000   0.18454   0.78974   0.00000  Uiso   1.00
O992   O     0.34621   0.27058   0.81265   0.00000  Uiso   1.00
O993   O     0.43002   0.18920   0.52660   0.00000  Uiso   1.00
O994   O     0.48378   0.33027   0.96438   0.00000  Uiso   1.00
O995   O     0.55585   0.31463   0.62851   0.00000  Uiso   1.00
O996   O     0.49498   0.16998   0.87650   0.00000  Uiso   1.00
O997   O     0.56633   0.30545   0.53484   0.00000  Uiso   1.00
O998   O     0.49904   0.16837   0.97339   0.00000  Uiso   1.00
O999   O     0.50000   0.31547   0.71026   0.00000  Uiso   1.00
O1000  O     0.50000   0.18453   0.71026   0.00000  Uiso   1.00
O1001  O     0.50000   0.31547   0.78974   0.00000  Uiso   1.00
O1002  O     0.42392   0.25000   0.78045   0.00000  Uiso   1.00
O1003  O     0.57608   0.25000   0.71955   0.00000  Uiso   1.00
O1004  O     0.42392   0.25000   0.70096   0.00000  Uiso   1.00
O1005  O     0.57608   0.25001   0.79903   0.00000  Uiso   1.00
O1006  O     0.65253   0.25225   0.68330   0.00000  Uiso   1.00
Zn1007 Zn    0.50000   0.25001   0.80307   0.00000  Uiso   1.00
Zn1008 Zn    0.50000   0.25000   0.69693   0.00000  Uiso   1.00
C1009  C     0.83308   0.16419   0.75065   0.00000  Uiso   1.00
C1010  C     0.83303   0.20921   0.94911   0.00000  Uiso   1.00
C1011  C     0.82960   0.24909   0.52624   0.00000  Uiso   1.00
C1012  C     0.82891   0.24928   0.97285   0.00000  Uiso   1.00
C1013  C     0.73406   0.25276   0.73739   0.00000  Uiso   1.00
C1014  C     0.93281   0.25249   0.76201   0.00000  Uiso   1.00
C1015  C     0.67930   0.25764   0.72926   0.00000  Uiso   1.00
C1016  C     0.98744   0.26090   0.76752   0.00000  Uiso   1.00
C1017  C     0.87473   0.04749   0.77111   0.00000  Uiso   1.00
C1018  C     0.80404   0.45429   0.71208   0.00000  Uiso   1.00
C1019  C     0.87589   0.09371   0.77096   0.00000  Uiso   1.00
C1020  C     0.83302   0.33612   0.74947   0.00000  Uiso   1.00
C1021  C     0.80545   0.40813   0.71089   0.00000  Uiso   1.00
C1022  C     0.83153   0.11673   0.75197   0.00000  Uiso   1.00
C1023  C     0.83205   0.38414   0.74946   0.00000  Uiso   1.00
C1024  C     0.78564   0.09447   0.73406   0.00000  Uiso   1.00
C1025  C     0.85544   0.40600   0.79005   0.00000  Uiso   1.00
C1026  C     0.78404   0.04819   0.73514   0.00000  Uiso   1.00
C1027  C     0.85310   0.45193   0.79172   0.00000  Uiso   1.00
C1028  C     0.82878   0.02464   0.75319   0.00000  Uiso   1.00
C1029  C     0.82812   0.47625   0.75247   0.00000  Uiso   1.00
C1030  C     0.66909   0.28165   0.64775   0.00000  Uiso   1.00
C1031  C     0.79650   0.22061   0.55019   0.00000  Uiso   1.00
C1032  C     0.67842   0.33088   0.66204   0.00000  Uiso   1.00
C1033  C     0.68871   0.36048   0.61952   0.00000  Uiso   1.00
C1034  C     0.66869   0.31488   0.82420   0.00000  Uiso   1.00
C1035  C     0.71061   0.34767   0.81087   0.00000  Uiso   1.00
C1036  C     0.69887   0.39583   0.82125   0.00000  Uiso   1.00
C1037  C     0.71975   0.21038   0.50087   0.00000  Uiso   1.00
C1038  C     0.68710   0.17527   0.97111   0.00000  Uiso   1.00
C1039  C     0.98773   0.19615   0.92722   0.00000  Uiso   1.00
C1040  C     0.76377   0.33352   0.96764   0.00000  Uiso   1.00
C1041  C     0.75003   0.38287   0.96860   0.00000  Uiso   1.00
C1042  C     0.82543   0.28972   0.94498   0.00000  Uiso   1.00
C1043  C     0.69289   0.38825   0.97278   0.00000  Uiso   1.00
C1044  C     0.85950   0.35401   0.62577   0.00000  Uiso   1.00
C1045  C     0.86728   0.38510   0.58336   0.00000  Uiso   1.00
C1046  C     0.84325   0.43065   0.58745   0.00000  Uiso   1.00
C1047  C     0.77564   0.15592   0.86757   0.00000  Uiso   1.00
C1048  C     0.77261   0.10491   0.86486   0.00000  Uiso   1.00
C1049  C     0.71717   0.08837   0.84906   0.00000  Uiso   1.00
C1050  C     0.93914   0.27962   0.52089   0.00000  Uiso   1.00
C1051  C     0.88341   0.15327   0.98464   0.00000  Uiso   1.00
C1052  C     0.80123   0.22044   0.60024   0.00000  Uiso   1.00
C1053  C     0.83048   0.28923   0.89632   0.00000  Uiso   1.00
C1054  C     0.86120   0.28114   0.60336   0.00000  Uiso   1.00
C1055  C     0.83166   0.21019   0.89919   0.00000  Uiso   1.00
C1056  C     0.86417   0.27803   0.55441   0.00000  Uiso   1.00
H1057  H     0.90980   0.02967   0.78443   0.00000  Uiso   1.00
H1058  H     0.82998   0.32063   0.87635   0.00000  Uiso   1.00
H1059  H     0.97137   0.28096   0.61705   0.00000  Uiso   1.00
H1060  H     0.70256   0.26834   0.63315   0.00000  Uiso   1.00
H1061  H     0.97751   0.34325   0.67635   0.00000  Uiso   1.00
H1062  H     0.71269   0.33380   0.68989   0.00000  Uiso   1.00
H1063  H     0.72434   0.34985   0.60631   0.00000  Uiso   1.00
H1064  H     0.69385   0.39592   0.63017   0.00000  Uiso   1.00
H1065  H     0.98919   0.35809   0.59022   0.00000  Uiso   1.00
H1066  H     0.66889   0.31544   0.86325   0.00000  Uiso   1.00
H1067  H     0.96300   0.32651   0.80761   0.00000  Uiso   1.00
H1068  H     0.78482   0.47279   0.68137   0.00000  Uiso   1.00
H1069  H     0.74850   0.33848   0.83141   0.00000  Uiso   1.00
H1070  H     0.71335   0.34562   0.77247   0.00000  Uiso   1.00
H1071  H     0.99535   0.40634   0.79949   0.00000  Uiso   1.00
H1072  H     0.73064   0.41847   0.81225   0.00000  Uiso   1.00
H1073  H     0.69566   0.39895   0.85947   0.00000  Uiso   1.00
H1074  H     0.73115   0.23767   0.97681   0.00000  Uiso   1.00
H1075  H     0.69607   0.22489   0.52581   0.00000  Uiso   1.00
H1076  H     0.71278   0.15017   0.95929   0.00000  Uiso   1.00
H1077  H     0.99504   0.15688   0.99353   0.00000  Uiso   1.00
H1078  H     0.95872   0.21875   0.93784   0.00000  Uiso   1.00
H1079  H     0.91134   0.11150   0.78470   0.00000  Uiso   1.00
H1080  H     0.96708   0.16931   0.90542   0.00000  Uiso   1.00
H1081  H     0.67930   0.21541   0.90491   0.00000  Uiso   1.00
H1082  H     0.75541   0.31641   0.50110   0.00000  Uiso   1.00
H1083  H     0.73850   0.31841   0.93682   0.00000  Uiso   1.00
H1084  H     0.77391   0.39890   0.99923   0.00000  Uiso   1.00
H1085  H     0.75864   0.40030   0.93544   0.00000  Uiso   1.00
H1086  H     0.66798   0.37237   0.94258   0.00000  Uiso   1.00
H1087  H     0.68391   0.42442   0.97228   0.00000  Uiso   1.00
H1088  H     0.68408   0.37263   0.50671   0.00000  Uiso   1.00
H1089  H     0.87355   0.37267   0.65835   0.00000  Uiso   1.00
H1090  H     0.78561   0.39129   0.68023   0.00000  Uiso   1.00
H1091  H     0.81735   0.34668   0.62528   0.00000  Uiso   1.00
H1092  H     0.90916   0.39012   0.58159   0.00000  Uiso   1.00
H1093  H     0.84830   0.37021   0.55000   0.00000  Uiso   1.00
H1094  H     0.80118   0.42656   0.58940   0.00000  Uiso   1.00
H1095  H     0.84824   0.45212   0.55575   0.00000  Uiso   1.00
H1096  H     0.86248   0.44761   0.61970   0.00000  Uiso   1.00
H1097  H     0.75707   0.17125   0.83336   0.00000  Uiso   1.00
H1098  H     0.75288   0.16562   0.89560   0.00000  Uiso   1.00
H1099  H     0.79767   0.09369   0.83941   0.00000  Uiso   1.00
H1100  H     0.78704   0.08979   0.90043   0.00000  Uiso   1.00
H1101  H     0.75127   0.11290   0.71982   0.00000  Uiso   1.00
H1102  H     0.69146   0.09865   0.87448   0.00000  Uiso   1.00
H1103  H     0.71626   0.05124   0.84780   0.00000  Uiso   1.00
H1104  H     0.70249   0.10227   0.81302   0.00000  Uiso   1.00
H1105  H     0.94528   0.24701   0.54092   0.00000  Uiso   1.00
H1106  H     0.97615   0.29898   0.52719   0.00000  Uiso   1.00
H1107  H     0.93084   0.27394   0.98226   0.00000  Uiso   1.00
H1108  H     0.90887   0.17833   0.50524   0.00000  Uiso   1.00
H1109  H     0.89916   0.14443   0.95202   0.00000  Uiso   1.00
H1110  H     0.88303   0.12238   0.50734   0.00000  Uiso   1.00
H1111  H     0.87555   0.38757   0.82043   0.00000  Uiso   1.00
H1112  H     0.74814   0.03086   0.72197   0.00000  Uiso   1.00
H1113  H     0.87093   0.46845   0.82352   0.00000  Uiso   1.00
H1114  H     0.77778   0.19719   0.61837   0.00000  Uiso   1.00
N1115  N     0.83333   0.24999   0.62623   0.00000  Uiso   1.00
N1116  N     0.83333   0.25001   0.87376   0.00000  Uiso   1.00
O1117  O     0.83334   0.18454   0.78974   0.00000  Uiso   1.00
O1118  O     0.67955   0.27058   0.81265   0.00000  Uiso   1.00
O1119  O     0.76335   0.18920   0.52660   0.00000  Uiso   1.00
O1120  O     0.81711   0.33027   0.96438   0.00000  Uiso   1.00
O1121  O     0.88918   0.31463   0.62851   0.00000  Uiso   1.00
O1122  O     0.82831   0.16998   0.87650   0.00000  Uiso   1.00
O1123  O     0.89966   0.30545   0.53484   0.00000  Uiso   1.00
O1124  O     0.83238   0.16837   0.97339   0.00000  Uiso   1.00
O1125  O     0.83333   0.31547   0.71026   0.00000  Uiso   1.00
O1126  O     0.83334   0.18453   0.71026   0.00000  Uiso   1.00
O1127  O     0.83333   0.31547   0.78974   0.00000  Uiso   1.00
O1128  O     0.75725   0.25000   0.78045   0.00000  Uiso   1.00
O1129  O     0.90942   0.25000   0.71955   0.00000  Uiso   1.00
O1130  O     0.75725   0.25000   0.70096   0.00000  Uiso   1.00
O1131  O     0.90942   0.25001   0.79903   0.00000  Uiso   1.00
O1132  O     0.98586   0.25225   0.68330   0.00000  Uiso   1.00
Zn1133 Zn    0.83333   0.25001   0.80307   0.00000  Uiso   1.00
Zn1134 Zn    0.83333   0.25000   0.69693   0.00000  Uiso   1.00
C1135  C     0.16641   0.66419   0.75065   0.00000  Uiso   1.00
C1136  C     0.16636   0.70921   0.94911   0.00000  Uiso   1.00
C1137  C     0.16294   0.74909   0.52624   0.00000  Uiso   1.00
C1138  C     0.16224   0.74928   0.97285   0.00000  Uiso   1.00
C1139  C     0.06739   0.75276   0.73739   0.00000  Uiso   1.00
C1140  C     0.26615   0.75249   0.76201   0.00000  Uiso   1.00
C1141  C     0.01263   0.75764   0.72926   0.00000  Uiso   1.00
C1142  C     0.32078   0.76090   0.76752   0.00000  Uiso   1.00
C1143  C     0.20806   0.54749   0.77111   0.00000  Uiso   1.00
C1144  C     0.13737   0.95429   0.71208   0.00000  Uiso   1.00
C1145  C     0.20923   0.59371   0.77096   0.00000  Uiso   1.00
C1146  C     0.16636   0.83612   0.74947   0.00000  Uiso   1.00
C1147  C     0.13879   0.90813   0.71089   0.00000  Uiso   1.00
C1148  C     0.16487   0.61673   0.75197   0.00000  Uiso   1.00
C1149  C     0.16538   0.88414   0.74946   0.00000  Uiso   1.00
C1150  C     0.11897   0.59447   0.73406   0.00000  Uiso   1.00
C1151  C     0.18877   0.90600   0.79005   0.00000  Uiso   1.00
C1152  C     0.11738   0.54819   0.73514   0.00000  Uiso   1.00
C1153  C     0.18644   0.95193   0.79172   0.00000  Uiso   1.00
C1154  C     0.16211   0.52464   0.75319   0.00000  Uiso   1.00
C1155  C     0.16145   0.97625   0.75247   0.00000  Uiso   1.00
C1156  C     0.00243   0.78165   0.64775   0.00000  Uiso   1.00
C1157  C     0.12984   0.72061   0.55019   0.00000  Uiso   1.00
C1158  C     0.01175   0.83088   0.66204   0.00000  Uiso   1.00
C1159  C     0.02204   0.86048   0.61952   0.00000  Uiso   1.00
C1160  C     0.00202   0.81488   0.82420   0.00000  Uiso   1.00
C1161  C     0.04394   0.84767   0.81087   0.00000  Uiso   1.00
C1162  C     0.03220   0.89583   0.82125   0.00000  Uiso   1.00
C1163  C     0.05308   0.71038   0.50087   0.00000  Uiso   1.00
C1164  C     0.02044   0.67527   0.97111   0.00000  Uiso   1.00
C1165  C     0.32107   0.69615   0.92722   0.00000  Uiso   1.00
C1166  C     0.09710   0.83352   0.96764   0.00000  Uiso   1.00
C1167  C     0.08336   0.88287   0.96860   0.00000  Uiso   1.00
C1168  C     0.15877   0.78972   0.94498   0.00000  Uiso   1.00
C1169  C     0.02623   0.88825   0.97278   0.00000  Uiso   1.00
C1170  C     0.19283   0.85401   0.62577   0.00000  Uiso   1.00
C1171  C     0.20061   0.88510   0.58336   0.00000  Uiso   1.00
C1172  C     0.17658   0.93065   0.58745   0.00000  Uiso   1.00
C1173  C     0.10897   0.65592   0.86757   0.00000  Uiso   1.00
C1174  C     0.10594   0.60491   0.86486   0.00000  Uiso   1.00
C1175  C     0.05050   0.58837   0.84906   0.00000  Uiso   1.00
C1176  C     0.27248   0.77962   0.52089   0.00000  Uiso   1.00
C1177  C     0.21674   0.65327   0.98464   0.00000  Uiso   1.00
C1178  C     0.13456   0.72044   0.60024   0.00000  Uiso   1.00
C1179  C     0.16382   0.78923   0.89632   0.00000  Uiso   1.00
C1180  C     0.19453   0.78114   0.60336   0.00000  Uiso   1.00
C1181  C     0.16499   0.71019   0.89919   0.00000  Uiso   1.00
C1182  C     0.19751   0.77803   0.55441   0.00000  Uiso   1.00
H1183  H     0.24314   0.52967   0.78443   0.00000  Uiso   1.00
H1184  H     0.16332   0.82063   0.87635   0.00000  Uiso   1.00
H1185  H     0.30470   0.78096   0.61705   0.00000  Uiso   1.00
H1186  H     0.03590   0.76834   0.63315   0.00000  Uiso   1.00
H1187  H     0.31084   0.84325   0.67635   0.00000  Uiso   1.00
H1188  H     0.04602   0.83380   0.68989   0.00000  Uiso   1.00
H1189  H     0.05768   0.84985   0.60631   0.00000  Uiso   1.00
H1190  H     0.02718   0.89592   0.63017   0.00000  Uiso   1.00
H1191  H     0.32252   0.85809   0.59022   0.00000  Uiso   1.00
H1192  H     0.00223   0.81544   0.86325   0.00000  Uiso   1.00
H1193  H     0.29633   0.82651   0.80761   0.00000  Uiso   1.00
H1194  H     0.11815   0.97279   0.68137   0.00000  Uiso   1.00
H1195  H     0.08184   0.83848   0.83141   0.00000  Uiso   1.00
H1196  H     0.04668   0.84562   0.77247   0.00000  Uiso   1.00
H1197  H     0.32868   0.90634   0.79949   0.00000  Uiso   1.00
H1198  H     0.06397   0.91847   0.81225   0.00000  Uiso   1.00
H1199  H     0.02899   0.89895   0.85947   0.00000  Uiso   1.00
H1200  H     0.06448   0.73767   0.97681   0.00000  Uiso   1.00
H1201  H     0.02941   0.72489   0.52581   0.00000  Uiso   1.00
H1202  H     0.04611   0.65017   0.95929   0.00000  Uiso   1.00
H1203  H     0.32837   0.65688   0.99353   0.00000  Uiso   1.00
H1204  H     0.29205   0.71875   0.93784   0.00000  Uiso   1.00
H1205  H     0.24468   0.61150   0.78470   0.00000  Uiso   1.00
H1206  H     0.30041   0.66931   0.90542   0.00000  Uiso   1.00
H1207  H     0.01263   0.71541   0.90491   0.00000  Uiso   1.00
H1208  H     0.08874   0.81641   0.50110   0.00000  Uiso   1.00
H1209  H     0.07184   0.81841   0.93682   0.00000  Uiso   1.00
H1210  H     0.10724   0.89890   0.99923   0.00000  Uiso   1.00
H1211  H     0.09198   0.90030   0.93544   0.00000  Uiso   1.00
H1212  H     0.00132   0.87237   0.94258   0.00000  Uiso   1.00
H1213  H     0.01724   0.92442   0.97228   0.00000  Uiso   1.00
H1214  H     0.01742   0.87263   0.50671   0.00000  Uiso   1.00
H1215  H     0.20688   0.87267   0.65835   0.00000  Uiso   1.00
H1216  H     0.11895   0.89129   0.68023   0.00000  Uiso   1.00
H1217  H     0.15068   0.84668   0.62528   0.00000  Uiso   1.00
H1218  H     0.24249   0.89012   0.58159   0.00000  Uiso   1.00
H1219  H     0.18163   0.87021   0.55000   0.00000  Uiso   1.00
H1220  H     0.13451   0.92656   0.58940   0.00000  Uiso   1.00
H1221  H     0.18157   0.95212   0.55575   0.00000  Uiso   1.00
H1222  H     0.19581   0.94761   0.61970   0.00000  Uiso   1.00
H1223  H     0.09041   0.67125   0.83336   0.00000  Uiso   1.00
H1224  H     0.08622   0.66562   0.89560   0.00000  Uiso   1.00
H1225  H     0.13100   0.59369   0.83941   0.00000  Uiso   1.00
H1226  H     0.12037   0.58979   0.90043   0.00000  Uiso   1.00
H1227  H     0.08460   0.61290   0.71982   0.00000  Uiso   1.00
H1228  H     0.02480   0.59865   0.87448   0.00000  Uiso   1.00
H1229  H     0.04959   0.55124   0.84780   0.00000  Uiso   1.00
H1230  H     0.03582   0.60227   0.81302   0.00000  Uiso   1.00
H1231  H     0.27861   0.74701   0.54092   0.00000  Uiso   1.00
H1232  H     0.30949   0.79898   0.52719   0.00000  Uiso   1.00
H1233  H     0.26417   0.77394   0.98226   0.00000  Uiso   1.00
H1234  H     0.24220   0.67833   0.50524   0.00000  Uiso   1.00
H1235  H     0.23250   0.64443   0.95202   0.00000  Uiso   1.00
H1236  H     0.21636   0.62238   0.50734   0.00000  Uiso   1.00
H1237  H     0.20888   0.88757   0.82043   0.00000  Uiso   1.00
H1238  H     0.08147   0.53086   0.72197   0.00000  Uiso   1.00
H1239  H     0.20426   0.96845   0.82352   0.00000  Uiso   1.00
H1240  H     0.11111   0.69719   0.61837   0.00000  Uiso   1.00
N1241  N     0.16667   0.74999   0.62623   0.00000  Uiso   1.00
N1242  N     0.16667   0.75001   0.87376   0.00000  Uiso   1.00
O1243  O     0.16667   0.68454   0.78974   0.00000  Uiso   1.00
O1244  O     0.01288   0.77058   0.81265   0.00000  Uiso   1.00
O1245  O     0.09669   0.68920   0.52660   0.00000  Uiso   1.00
O1246  O     0.15045   0.83027   0.96438   0.00000  Uiso   1.00
O1247  O     0.22251   0.81463   0.62851   0.00000  Uiso   1.00
O1248  O     0.16165   0.66998   0.87650   0.00000  Uiso   1.00
O1249  O     0.23300   0.80545   0.53484   0.00000  Uiso   1.00
O1250  O     0.16571   0.66837   0.97339   0.00000  Uiso   1.00
O1251  O     0.16666   0.81547   0.71026   0.00000  Uiso   1.00
O1252  O     0.16667   0.68453   0.71026   0.00000  Uiso   1.00
O1253  O     0.16666   0.81547   0.78974   0.00000  Uiso   1.00
O1254  O     0.09058   0.75000   0.78045   0.00000  Uiso   1.00
O1255  O     0.24275   0.75000   0.71955   0.00000  Uiso   1.00
O1256  O     0.09058   0.75000   0.70096   0.00000  Uiso   1.00
O1257  O     0.24275   0.75001   0.79903   0.00000  Uiso   1.00
O1258  O     0.31920   0.75225   0.68330   0.00000  Uiso   1.00
Zn1259 Zn    0.16667   0.75001   0.80307   0.00000  Uiso   1.00
Zn1260 Zn    0.16667   0.75000   0.69693   0.00000  Uiso   1.00
C1261  C     0.49974   0.66419   0.75065   0.00000  Uiso   1.00
C1262  C     0.49969   0.70921   0.94911   0.00000  Uiso   1.00
C1263  C     0.49627   0.74909   0.52624   0.00000  Uiso   1.00
C1264  C     0.49558   0.74928   0.97285   0.00000  Uiso   1.00
C1265  C     0.40072   0.75276   0.73739   0.00000  Uiso   1.00
C1266  C     0.59948   0.75249   0.76201   0.00000  Uiso   1.00
C1267  C     0.34597   0.75764   0.72926   0.00000  Uiso   1.00
C1268  C     0.65411   0.76090   0.76752   0.00000  Uiso   1.00
C1269  C     0.54140   0.54749   0.77111   0.00000  Uiso   1.00
C1270  C     0.47071   0.95429   0.71208   0.00000  Uiso   1.00
C1271  C     0.54256   0.59371   0.77096   0.00000  Uiso   1.00
C1272  C     0.49969   0.83612   0.74947   0.00000  Uiso   1.00
C1273  C     0.47212   0.90813   0.71089   0.00000  Uiso   1.00
C1274  C     0.49820   0.61673   0.75197   0.00000  Uiso   1.00
C1275  C     0.49871   0.88414   0.74946   0.00000  Uiso   1.00
C1276  C     0.45231   0.59447   0.73406   0.00000  Uiso   1.00
C1277  C     0.52210   0.90600   0.79005   0.00000  Uiso   1.00
C1278  C     0.45071   0.54819   0.73514   0.00000  Uiso   1.00
C1279  C     0.51977   0.95193   0.79172   0.00000  Uiso   1.00
C1280  C     0.49545   0.52464   0.75319   0.00000  Uiso   1.00
C1281  C     0.49479   0.97625   0.75247   0.00000  Uiso   1.00
C1282  C     0.33576   0.78165   0.64775   0.00000  Uiso   1.00
C1283  C     0.46317   0.72061   0.55019   0.00000  Uiso   1.00
C1284  C     0.34508   0.83088   0.66204   0.00000  Uiso   1.00
C1285  C     0.35538   0.86048   0.61952   0.00000  Uiso   1.00
C1286  C     0.33535   0.81488   0.82420   0.00000  Uiso   1.00
C1287  C     0.37727   0.84767   0.81087   0.00000  Uiso   1.00
C1288  C     0.36553   0.89583   0.82125   0.00000  Uiso   1.00
C1289  C     0.38642   0.71038   0.50087   0.00000  Uiso   1.00
C1290  C     0.35377   0.67527   0.97111   0.00000  Uiso   1.00
C1291  C     0.65440   0.69615   0.92722   0.00000  Uiso   1.00
C1292  C     0.43043   0.83352   0.96764   0.00000  Uiso   1.00
C1293  C     0.41670   0.88287   0.96860   0.00000  Uiso   1.00
C1294  C     0.49210   0.78972   0.94498   0.00000  Uiso   1.00
C1295  C     0.35956   0.88825   0.97278   0.00000  Uiso   1.00
C1296  C     0.52617   0.85401   0.62577   0.00000  Uiso   1.00
C1297  C     0.53395   0.88510   0.58336   0.00000  Uiso   1.00
C1298  C     0.50991   0.93065   0.58745   0.00000  Uiso   1.00
C1299  C     0.44231   0.65592   0.86757   0.00000  Uiso   1.00
C1300  C     0.43927   0.60491   0.86486   0.00000  Uiso   1.00
C1301  C     0.38384   0.58837   0.84906   0.00000  Uiso   1.00
C1302  C     0.60581   0.77962   0.52089   0.00000  Uiso   1.00
C1303  C     0.55008   0.65327   0.98464   0.00000  Uiso   1.00
C1304  C     0.46790   0.72044   0.60024   0.00000  Uiso   1.00
C1305  C     0.49715   0.78923   0.89632   0.00000  Uiso   1.00
C1306  C     0.52786   0.78114   0.60336   0.00000  Uiso   1.00
C1307  C     0.49833   0.71019   0.89919   0.00000  Uiso   1.00
C1308  C     0.53084   0.77803   0.55441   0.00000  Uiso   1.00
H1309  H     0.57647   0.52967   0.78443   0.00000  Uiso   1.00
H1310  H     0.49665   0.82063   0.87635   0.00000  Uiso   1.00
H1311  H     0.63803   0.78096   0.61705   0.00000  Uiso   1.00
H1312  H     0.36923   0.76834   0.63315   0.00000  Uiso   1.00
H1313  H     0.64418   0.84325   0.67635   0.00000  Uiso   1.00
H1314  H     0.37935   0.83380   0.68989   0.00000  Uiso   1.00
H1315  H     0.39101   0.84985   0.60631   0.00000  Uiso   1.00
H1316  H     0.36051   0.89592   0.63017   0.00000  Uiso   1.00
H1317  H     0.65586   0.85809   0.59022   0.00000  Uiso   1.00
H1318  H     0.33556   0.81544   0.86325   0.00000  Uiso   1.00
H1319  H     0.62967   0.82651   0.80761   0.00000  Uiso   1.00
H1320  H     0.45148   0.97279   0.68137   0.00000  Uiso   1.00
H1321  H     0.41517   0.83848   0.83141   0.00000  Uiso   1.00
H1322  H     0.38002   0.84562   0.77247   0.00000  Uiso   1.00
H1323  H     0.66202   0.90634   0.79949   0.00000  Uiso   1.00
H1324  H     0.39730   0.91847   0.81225   0.00000  Uiso   1.00
H1325  H     0.36233   0.89895   0.85947   0.00000  Uiso   1.00
H1326  H     0.39782   0.73767   0.97681   0.00000  Uiso   1.00
H1327  H     0.36274   0.72489   0.52581   0.00000  Uiso   1.00
H1328  H     0.37944   0.65017   0.95929   0.00000  Uiso   1.00
H1329  H     0.66170   0.65688   0.99353   0.00000  Uiso   1.00
H1330  H     0.62539   0.71875   0.93784   0.00000  Uiso   1.00
H1331  H     0.57801   0.61150   0.78470   0.00000  Uiso   1.00
H1332  H     0.63374   0.66931   0.90542   0.00000  Uiso   1.00
H1333  H     0.34596   0.71541   0.90491   0.00000  Uiso   1.00
H1334  H     0.42208   0.81641   0.50110   0.00000  Uiso   1.00
H1335  H     0.40517   0.81841   0.93682   0.00000  Uiso   1.00
H1336  H     0.44058   0.89890   0.99923   0.00000  Uiso   1.00
H1337  H     0.42531   0.90030   0.93544   0.00000  Uiso   1.00
H1338  H     0.33465   0.87237   0.94258   0.00000  Uiso   1.00
H1339  H     0.35057   0.92442   0.97228   0.00000  Uiso   1.00
H1340  H     0.35075   0.87263   0.50671   0.00000  Uiso   1.00
H1341  H     0.54021   0.87267   0.65835   0.00000  Uiso   1.00
H1342  H     0.45228   0.89129   0.68023   0.00000  Uiso   1.00
H1343  H     0.48401   0.84668   0.62528   0.00000  Uiso   1.00
H1344  H     0.57583   0.89012   0.58159   0.00000  Uiso   1.00
H1345  H     0.51496   0.87021   0.55000   0.00000  Uiso   1.00
H1346  H     0.46784   0.92656   0.58940   0.00000  Uiso   1.00
H1347  H     0.51490   0.95212   0.55575   0.00000  Uiso   1.00
H1348  H     0.52914   0.94761   0.61970   0.00000  Uiso   1.00
H1349  H     0.42374   0.67125   0.83336   0.00000  Uiso   1.00
H1350  H     0.41955   0.66562   0.89560   0.00000  Uiso   1.00
H1351  H     0.46433   0.59369   0.83941   0.00000  Uiso   1.00
H1352  H     0.45371   0.58979   0.90043   0.00000  Uiso   1.00
H1353  H     0.41793   0.61290   0.71982   0.00000  Uiso   1.00
H1354  H     0.35813   0.59865   0.87448   0.00000  Uiso   1.00
H1355  H     0.38293   0.55124   0.84780   0.00000  Uiso   1.00
H1356  H     0.36916   0.60227   0.81302   0.00000  Uiso   1.00
H1357  H     0.61194   0.74701   0.54092   0.00000  Uiso   1.00
H1358  H     0.64282   0.79898   0.52719   0.00000  Uiso   1.00
H1359  H     0.59750   0.77394   0.98226   0.00000  Uiso   1.00
H1360  H     0.57553   0.67833   0.50524   0.00000  Uiso   1.00
H1361  H     0.56583   0.64443   0.95202   0.00000  Uiso   1.00
H1362  H     0.54969   0.62238   0.50734   0.00000  Uiso   1.00
H1363  H     0.54221   0.88757   0.82043   0.00000  Uiso   1.00
H1364  H     0.41480   0.53086   0.72197   0.00000  Uiso   1.00
H1365  H     0.53759   0.96845   0.82352   0.00000  Uiso   1.00
H1366  H     0.44444   0.69719   0.61837   0.00000  Uiso   1.00
N1367  N     0.50000   0.74999   0.62623   0.00000  Uiso   1.00
N1368  N     0.50000   0.75001   0.87376   0.00000  Uiso   1.00
O1369  O     0.50000   0.68454   0.78974   0.00000  Uiso   1.00
O1370  O     0.34621   0.77058   0.81265   0.00000  Uiso   1.00
O1371  O     0.43002   0.68920   0.52660   0.00000  Uiso   1.00
O1372  O     0.48378   0.83027   0.96438   0.00000  Uiso   1.00
O1373  O     0.55585   0.81463   0.62851   0.00000  Uiso   1.00
O1374  O     0.49498   0.66998   0.87650   0.00000  Uiso   1.00
O1375  O     0.56633   0.80545   0.53484   0.00000  Uiso   1.00
O1376  O     0.49904   0.66837   0.97339   0.00000  Uiso   1.00
O1377  O     0.50000   0.81547   0.71026   0.00000  Uiso   1.00
O1378  O     0.50000   0.68453   0.71026   0.00000  Uiso   1.00
O1379  O     0.50000   0.81547   0.78974   0.00000  Uiso   1.00
O1380  O     0.42392   0.75000   0.78045   0.00000  Uiso   1.00
O1381  O     0.57608   0.75000   0.71955   0.00000  Uiso   1.00
O1382  O     0.42392   0.75000   0.70096   0.00000  Uiso   1.00
O1383  O     0.57608   0.75001   0.79903   0.00000  Uiso   1.00
O1384  O     0.65253   0.75225   0.68330   0.00000  Uiso   1.00
Zn1385 Zn    0.50000   0.75001   0.80307   0.00000  Uiso   1.00
Zn1386 Zn    0.50000   0.75000   0.69693   0.00000  Uiso   1.00
C1387  C     0.83308   0.66419   0.75065   0.00000  Uiso   1.00
C1388  C     0.83303   0.70921   0.94911   0.00000  Uiso   1.00
C1389  C     0.82960   0.74909   0.52624   0.00000  Uiso   1.00
C1390  C     0.82891   0.74928   0.97285   0.00000  Uiso   1.00
C1391  C     0.73406   0.75276   0.73739   0.00000  Uiso   1.00
C1392  C     0.93281   0.75249   0.76201   0.00000  Uiso   1.00
C1393  C     0.67930   0.75764   0.72926   0.00000  Uiso   1.00
C1394  C     0.98744   0.76090   0.76752   0.00000  Uiso   1.00
C1395  C     0.87473   0.54749   0.77111   0.00000  Uiso   1.00
C1396  C     0.80404   0.95429   0.71208   0.00000  Uiso   1.00
C1397  C     0.87589   0.59371   0.77096   0.00000  Uiso   1.00
C1398  C     0.83302   0.83612   0.74947   0.00000  Uiso   1.00
C1399  C     0.80545   0.90813   0.71089   0.00000  Uiso   1.00
C1400  C     0.83153   0.61673   0.75197   0.00000  Uiso   1.00
C1401  C     0.83205   0.88414   0.74946   0.00000  Uiso   1.00
C1402  C     0.78564   0.59447   0.73406   0.00000  Uiso   1.00
C1403  C     0.85544   0.90600   0.79005   0.00000  Uiso   1.00
C1404  C     0.78404   0.54819   0.73514   0.00000  Uiso   1.00
C1405  C     0.85310   0.95193   0.79172   0.00000  Uiso   1.00
C1406  C     0.82878   0.52464   0.75319   0.00000  Uiso   1.00
C1407  C     0.82812   0.97625   0.75247   0.00000  Uiso   1.00
C1408  C     0.66909   0.78165   0.64775   0.00000  Uiso   1.00
C1409  C     0.79650   0.72061   0.55019   0.00000  Uiso   1.00
C1410  C     0.67842   0.83088   0.66204   0.00000  Uiso   1.00
C1411  C     0.68871   0.86048   0.61952   0.00000  Uiso   1.00
C1412  C     0.66869   0.81488   0.82420   0.00000  Uiso   1.00
C1413  C     0.71061   0.84767   0.81087   0.00000  Uiso   1.00
C1414  C     0.69887   0.89583   0.82125   0.00000  Uiso   1.00
C1415  C     0.71975   0.71038   0.50087   0.00000  Uiso   1.00
C1416  C     0.68710   0.67527   0.97111   0.00000  Uiso   1.00
C1417  C     0.98773   0.69615   0.92722   0.00000  Uiso   1.00
C1418  C     0.76377   0.83352   0.96764   0.00000  Uiso   1.00
C1419  C     0.75003   0.88287   0.96860   0.00000  Uiso   1.00
C1420  C     0.82543   0.78972   0.94498   0.00000  Uiso   1.00
C1421  C     0.69289   0.88825   0.97278   0.00000  Uiso   1.00
C1422  C     0.85950   0.85401   0.62577   0.00000  Uiso   1.00
C1423  C     0.86728   0.88510   0.58336   0.00000  Uiso   1.00
C1424  C     0.84325   0.93065   0.58745   0.00000  Uiso   1.00
C1425  C     0.77564   0.65592   0.86757   0.00000  Uiso   1.00
C1426  C     0.77261   0.60491   0.86486   0.00000  Uiso   1.00
C1427  C     0.71717   0.58837   0.84906   0.00000  Uiso   1.00
C1428  C     0.93914   0.77962   0.52089   0.00000  Uiso   1.00
C1429  C     0.88341   0.65327   0.98464   0.00000  Uiso   1.00
C1430  C     0.80123   0.72044   0.60024   0.00000  Uiso   1.00
C1431  C     0.83048   0.78923   0.89632   0.00000  Uiso   1.00
C1432  C     0.86120   0.78114   0.60336   0.00000  Uiso   1.00
C1433  C     0.83166   0.71019   0.89919   0.00000  Uiso   1.00
C1434  C     0.86417   0.77803   0.55441   0.00000  Uiso   1.00
H1435  H     0.90980   0.52967   0.78443   0.00000  Uiso   1.00
H1436  H     0.82998   0.82063   0.87635   0.00000  Uiso   1.00
H1437  H     0.97137   0.78096   0.61705   0.00000  Uiso   1.00
H1438  H     0.70256   0.76834   0.63315   0.00000  Uiso   1.00
H1439  H     0.97751   0.84325   0.67635   0.00000  Uiso   1.00
H1440  H     0.71269   0.83380   0.68989   0.00000  Uiso   1.00
H1441  H     0.72434   0.84985   0.60631   0.00000  Uiso   1.00
H1442  H     0.69385   0.89592   0.63017   0.00000  Uiso   1.00
H1443  H     0.98919   0.85809   0.59022   0.00000  Uiso   1.00
H1444  H     0.66889   0.81544   0.86325   0.00000  Uiso   1.00
H1445  H     0.96300   0.82651   0.80761   0.00000  Uiso   1.00
H1446  H     0.78482   0.97279   0.68137   0.00000  Uiso   1.00
H1447  H     0.74850   0.83848   0.83141   0.00000  Uiso   1.00
H1448  H     0.71335   0.84562   0.77247   0.00000  Uiso   1.00
H1449  H     0.99535   0.90634   0.79949   0.00000  Uiso   1.00
H1450  H     0.73064   0.91847   0.81225   0.00000  Uiso   1.00
H1451  H     0.69566   0.89895   0.85947   0.00000  Uiso   1.00
H1452  H     0.73115   0.73767   0.97681   0.00000  Uiso   1.00
H1453  H     0.69607   0.72489   0.52581   0.00000  Uiso   1.00
H1454  H     0.71278   0.65017   0.95929   0.00000  Uiso   1.00
H1455  H     0.99504   0.65688   0.99353   0.00000  Uiso   1.00
H1456  H     0.95872   0.71875   0.93784   0.00000  Uiso   1.00
H1457  H     0.91134   0.61150   0.78470   0.00000  Uiso   1.00
H1458  H     0.96708   0.66931   0.90542   0.00000  Uiso   1.00
H1459  H     0.67930   0.71541   0.90491   0.00000  Uiso   1.00
H1460  H     0.75541   0.81641   0.50110   0.00000  Uiso   1.00
H1461  H     0.73850   0.81841   0.93682   0.00000  Uiso   1.00
H1462  H     0.77391   0.89890   0.99923   0.00000  Uiso   1.00
H1463  H     0.75864   0.90030   0.93544   0.00000  Uiso   1.00
H1464  H     0.66798   0.87237   0.94258   0.00000  Uiso   1.00
H1465  H     0.68391   0.92442   0.97228   0.00000  Uiso   1.00
H1466  H     0.68408   0.87263   0.50671   0.00000  Uiso   1.00
H1467  H     0.87355   0.87267   0.65835   0.00000  Uiso   1.00
H1468  H     0.78561   0.89129   0.68023   0.00000  Uiso   1.00
H1469  H     0.81735   0.84668   0.62528   0.00000  Uiso   1.00
H1470  H     0.90916   0.89012   0.58159   0.00000  Uiso   1.00
H1471  H     0.84830   0.87021   0.55000   0.00000  Uiso   1.00
H1472  H     0.80118   0.92656   0.58940   0.00000  Uiso   1.00
H1473  H     0.84824   0.95212   0.55575   0.00000  Uiso   1.00
H1474  H     0.86248   0.94761   0.61970   0.00000  Uiso   1.00
H1475  H     0.75707   0.67125   0.83336   0.00000  Uiso   1.00
H1476  H     0.75288   0.66562   0.89560   0.00000  Uiso   1.00
H1477  H     0.79767   0.59369   0.83941   0.00000  Uiso   1.00
H1478  H     0.78704   0.58979   0.90043   0.00000  Uiso   1.00
H1479  H     0.75127   0.61290   0.71982   0.00000  Uiso   1.00
H1480  H     0.69146   0.59865   0.87448   0.00000  Uiso   1.00
H1481  H     0.71626   0.55124   0.84780   0.00000  Uiso   1.00
H1482  H     0.70249   0.60227   0.81302   0.00000  Uiso   1.00
H1483  H     0.94528   0.74701   0.54092   0.00000  Uiso   1.00
H1484  H     0.97615   0.79898   0.52719   0.00000  Uiso   1.00
H1485  H     0.93084   0.77394   0.98226   0.00000  Uiso   1.00
H1486  H     0.90887   0.67833   0.50524   0.00000  Uiso   1.00
H1487  H     0.89916   0.64443   0.95202   0.00000  Uiso   1.00
H1488  H     0.88303   0.62238   0.50734   0.00000  Uiso   1.00
H1489  H     0.87555   0.88757   0.82043   0.00000  Uiso   1.00
H1490  H     0.74814   0.53086   0.72197   0.00000  Uiso   1.00
H1491  H     0.87093   0.96845   0.82352   0.00000  Uiso   1.00
H1492  H     0.77778   0.69719   0.61837   0.00000  Uiso   1.00
N1493  N     0.83333   0.74999   0.62623   0.00000  Uiso   1.00
N1494  N     0.83333   0.75001   0.87376   0.00000  Uiso   1.00
O1495  O     0.83334   0.68454   0.78974   0.00000  Uiso   1.00
O1496  O     0.67955   0.77058   0.81265   0.00000  Uiso   1.00
O1497  O     0.76335   0.68920   0.52660   0.00000  Uiso   1.00
O1498  O     0.81711   0.83027   0.96438   0.00000  Uiso   1.00
O1499  O     0.88918   0.81463   0.62851   0.00000  Uiso   1.00
O1500  O     0.82831   0.66998   0.87650   0.00000  Uiso   1.00
O1501  O     0.89966   0.80545   0.53484   0.00000  Uiso   1.00
O1502  O     0.83238   0.66837   0.97339   0.00000  Uiso   1.00
O1503  O     0.83333   0.81547   0.71026   0.00000  Uiso   1.00
O1504  O     0.83334   0.68453   0.71026   0.00000  Uiso   1.00
O1505  O     0.83333   0.81547   0.78974   0.00000  Uiso   1.00
O1506  O     0.75725   0.75000   0.78045   0.00000  Uiso   1.00
O1507  O     0.90942   0.75000   0.71955   0.00000  Uiso   1.00
O1508  O     0.75725   0.75000   0.70096   0.00000  Uiso   1.00
O1509  O     0.90942   0.75001   0.79903   0.00000  Uiso   1.00
O1510  O     0.98586   0.75225   0.68330   0.00000  Uiso   1.00
Zn1511 Zn    0.83333   0.75001   0.80307   0.00000  Uiso   1.00
Zn1512 Zn    0.83333   0.75000   0.69693   0.00000  Uiso   1.00
loop_
_geom_bond_atom_site_label_1
_geom_bond_atom_site_label_2
_geom_bond_distance
_geom_bond_site_symmetry_2
_ccdc_geom_bond_type
C1     O109    1.284   .     A
C1     O118    1.282   .     A
C1     C14     1.417   .     S
C2     O116    1.383   .     S
C2     C4      1.408   .     A
C2     C47     1.415   .     A
C3     C23     1.425   .     A
C3     C48     1.414   .     A
C3     C760    1.516   1_554 S
C4     C34     1.420   .     A
C4     C759    1.516   .     S
C5     O120    1.285   .     A
C5     C7      1.424   .     S
C5     O122    1.280   .     A
C6     O123    1.292   .     A
C6     C8      1.429   .     S
C6     O121    1.275   .     A
C7     C260    1.359   1_455 S
C7     O376    1.402   1_455 S
C8     C133    1.359   .     S
C8     O236    1.393   .     S
C9     H49     1.083   .     S
C9     C20     1.403   .     A
C9     C11     1.380   .     A
C10    C21     1.402   .     A
C10    H60     1.083   .     S
C10    C13     1.382   .     A
C11    C14     1.392   .     A
C11    H71     1.084   .     S
C12    O117    1.294   .     A
C12    O119    1.282   .     A
C12    C15     1.435   .     S
C13    C15     1.395   .     A
C13    H82     1.080   .     S
C14    C16     1.394   .     A
C15    C17     1.399   .     A
C16    H93     1.084   .     S
C16    C18     1.381   .     A
C17    C19     1.377   .     A
C17    H103    1.084   .     S
C18    C20     1.401   .     A
C18    H104    1.083   .     S
C19    C21     1.398   .     A
C19    H105    1.083   .     S
C20    C399    1.446   1_545 S
C21    C398    1.446   .     S
C22    H52     1.108   .     S
C22    C24     1.543   .     S
C22    H303    1.102   1_455 S
C22    O376    1.425   1_455 S
C23    C44     1.411   .     A
C23    O111    1.383   .     S
C24    H54     1.109   .     S
C24    C25     1.526   .     S
C24    H305    1.111   1_455 S
C25    H56     1.110   .     S
C25    H55     1.110   .     S
C25    H309    1.108   1_455 S
C26    O110    1.419   .     S
C26    H58     1.111   .     S
C26    C27     1.531   .     S
C26    H311    1.116   1_455 S
C27    H61     1.108   .     S
C27    H62     1.109   .     S
C27    C28     1.525   .     S
C28    H64     1.111   .     S
C28    H65     1.110   .     S
C28    H315    1.111   1_455 S
C29    H67     1.111   .     S
C29    O111    1.411   .     S
C29    C786    1.532   1_554 S
C29    H822    1.110   1_554 S
C30    H68     1.110   .     S
C30    C785    1.532   .     S
C30    C283    1.529   1_455 S
C30    H321    1.109   1_455 S
C31    H70     1.107   .     S
C31    H72     1.110   .     S
C31    C156    1.529   .     S
C31    H199    1.111   .     S
C32    H75     1.118   .     S
C32    O112    1.415   .     S
C32    C33     1.528   .     S
C32    H830    1.112   .     S
C33    H76     1.110   .     S
C33    H77     1.111   .     S
C33    C35     1.526   .     S
C34    O112    1.382   .     S
C34    C45     1.410   .     A
C35    H78     1.111   .     S
C35    H79     1.110   .     S
C35    H836    1.110   .     S
C36    C37     1.532   .     S
C36    H83     1.115   .     S
C36    O113    1.418   .     S
C36    H81     1.109   .     S
C37    H85     1.107   .     S
C37    H84     1.108   .     S
C37    C38     1.527   .     S
C38    H86     1.111   .     S
C38    H88     1.111   .     S
C38    H87     1.110   .     S
C39    H90     1.111   .     S
C39    C40     1.528   .     S
C39    O114    1.417   .     S
C39    H89     1.111   .     S
C40    H92     1.112   .     S
C40    C41     1.526   .     S
C40    H91     1.109   .     S
C41    H96     1.111   .     S
C41    H94     1.111   .     S
C41    H95     1.110   .     S
C42    H98     1.108   .     S
C42    H97     1.115   .     S
C42    O115    1.412   .     S
C42    H855    1.107   1_554 S
C43    H101    1.111   .     S
C43    O116    1.406   .     S
C43    H856    1.112   .     S
C43    H858    1.109   .     S
C44    N107    1.362   .     A
C44    H106    1.082   .     S
C45    N108    1.363   .     A
C45    H50     1.079   .     S
C46    C48     1.412   .     A
C46    N107    1.372   .     A
C46    O113    1.380   .     S
C47    O114    1.377   .     S
C47    N108    1.374   .     A
C48    O115    1.387   .     S
H51    C148    1.102   .     S
H53    C150    1.111   .     S
H57    C151    1.108   .     S
H59    C152    1.116   .     S
H63    C154    1.111   .     S
H66    C785    1.110   .     S
H69    C156    1.109   .     S
H73    C283    1.111   1_455 S
H74    C788    1.112   1_554 S
H80    C791    1.110   1_554 S
H99    C798    1.107   .     S
H100   C799    1.112   1_554 S
H102   C799    1.109   1_554 S
N107   Zn126   2.011   .     S
N108   Zn125   2.011   .     S
O109   Zn125   2.004   .     S
O110   C260    1.393   1_455 S
O117   Zn126   2.004   .     S
O118   Zn126   1.979   .     S
O119   Zn125   1.979   .     S
O120   Zn125   1.996   .     S
O121   Zn126   1.996   .     S
O122   Zn126   2.006   .     S
O123   Zn125   2.006   .     S
O124   C133    1.402   .     S
O124   C148    1.425   .     S
C127   O235    1.284   .     A
C127   O244    1.282   .     A
C127   C140    1.417   .     S
C128   O242    1.383   .     S
C128   C130    1.408   .     A
C128   C173    1.415   .     A
C129   C149    1.425   .     A
C129   C174    1.414   .     A
C129   C886    1.516   1_554 S
C130   C160    1.420   .     A
C130   C885    1.516   .     S
C131   O246    1.285   .     A
C131   C133    1.424   .     S
C131   O248    1.280   .     A
C132   O249    1.292   .     A
C132   C134    1.429   .     S
C132   O247    1.275   .     A
C134   C259    1.359   .     S
C134   O362    1.393   .     S
C135   H175    1.083   .     S
C135   C146    1.403   .     A
C135   C137    1.380   .     A
C136   C147    1.402   .     A
C136   H186    1.083   .     S
C136   C139    1.382   .     A
C137   C140    1.392   .     A
C137   H197    1.084   .     S
C138   O243    1.294   .     A
C138   O245    1.282   .     A
C138   C141    1.435   .     S
C139   C141    1.395   .     A
C139   H208    1.080   .     S
C140   C142    1.394   .     A
C141   C143    1.399   .     A
C142   H219    1.084   .     S
C142   C144    1.381   .     A
C143   C145    1.377   .     A
C143   H229    1.084   .     S
C144   C146    1.401   .     A
C144   H230    1.083   .     S
C145   C147    1.398   .     A
C145   H231    1.083   .     S
C146   C525    1.446   1_545 S
C147   C524    1.446   .     S
C148   H178    1.108   .     S
C148   C150    1.543   .     S
C149   C170    1.411   .     A
C149   O237    1.383   .     S
C150   H180    1.109   .     S
C150   C151    1.526   .     S
C151   H182    1.110   .     S
C151   H181    1.110   .     S
C152   O236    1.419   .     S
C152   H184    1.111   .     S
C152   C153    1.531   .     S
C153   H187    1.108   .     S
C153   H188    1.109   .     S
C153   C154    1.525   .     S
C154   H190    1.111   .     S
C154   H191    1.110   .     S
C155   H193    1.111   .     S
C155   O237    1.411   .     S
C155   C912    1.532   1_554 S
C155   H948    1.110   1_554 S
C156   H194    1.110   .     S
C156   C911    1.532   .     S
C157   H196    1.107   .     S
C157   H198    1.110   .     S
C157   C282    1.529   .     S
C157   H325    1.111   .     S
C158   H201    1.118   .     S
C158   O238    1.415   .     S
C158   C159    1.528   .     S
C158   H956    1.112   .     S
C159   H202    1.110   .     S
C159   H203    1.111   .     S
C159   C161    1.526   .     S
C160   O238    1.382   .     S
C160   C171    1.410   .     A
C161   H204    1.111   .     S
C161   H205    1.110   .     S
C161   H962    1.110   .     S
C162   C163    1.532   .     S
C162   H209    1.115   .     S
C162   O239    1.418   .     S
C162   H207    1.109   .     S
C163   H211    1.107   .     S
C163   H210    1.108   .     S
C163   C164    1.527   .     S
C164   H212    1.111   .     S
C164   H214    1.111   .     S
C164   H213    1.110   .     S
C165   H216    1.111   .     S
C165   C166    1.528   .     S
C165   O240    1.417   .     S
C165   H215    1.111   .     S
C166   H218    1.112   .     S
C166   C167    1.526   .     S
C166   H217    1.109   .     S
C167   H222    1.111   .     S
C167   H220    1.111   .     S
C167   H221    1.110   .     S
C168   H224    1.108   .     S
C168   H223    1.115   .     S
C168   O241    1.412   .     S
C168   H981    1.107   1_554 S
C169   H227    1.111   .     S
C169   O242    1.406   .     S
C169   H982    1.112   .     S
C169   H984    1.109   .     S
C170   N233    1.362   .     A
C170   H232    1.082   .     S
C171   N234    1.363   .     A
C171   H176    1.079   .     S
C172   C174    1.412   .     A
C172   N233    1.372   .     A
C172   O239    1.380   .     S
C173   O240    1.377   .     S
C173   N234    1.374   .     A
C174   O241    1.387   .     S
H177   C274    1.102   .     S
H179   C276    1.111   .     S
H183   C277    1.108   .     S
H185   C278    1.116   .     S
H189   C280    1.111   .     S
H192   C911    1.110   .     S
H195   C282    1.109   .     S
H200   C914    1.112   1_554 S
H206   C917    1.110   1_554 S
H225   C924    1.107   .     S
H226   C925    1.112   1_554 S
H228   C925    1.109   1_554 S
N233   Zn252   2.011   .     S
N234   Zn251   2.011   .     S
O235   Zn251   2.004   .     S
O243   Zn252   2.004   .     S
O244   Zn252   1.979   .     S
O245   Zn251   1.979   .     S
O246   Zn251   1.996   .     S
O247   Zn252   1.996   .     S
O248   Zn252   2.006   .     S
O249   Zn251   2.006   .     S
O250   C259    1.402   .     S
O250   C274    1.425   .     S
C253   O361    1.284   .     A
C253   O370    1.282   .     A
C253   C266    1.417   .     S
C254   O368    1.383   .     S
C254   C256    1.408   .     A
C254   C299    1.415   .     A
C255   C275    1.425   .     A
C255   C300    1.414   .     A
C255   C1012   1.516   1_554 S
C256   C286    1.420   .     A
C256   C1011   1.516   .     S
C257   O372    1.285   .     A
C257   C259    1.424   .     S
C257   O374    1.280   .     A
C258   O375    1.292   .     A
C258   C260    1.429   .     S
C258   O373    1.275   .     A
C260   C7      1.359   1_655 S
C260   O110    1.393   1_655 S
C261   H301    1.083   .     S
C261   C272    1.403   .     A
C261   C263    1.380   .     A
C262   C273    1.402   .     A
C262   H312    1.083   .     S
C262   C265    1.382   .     A
C263   C266    1.392   .     A
C263   H323    1.084   .     S
C264   O369    1.294   .     A
C264   O371    1.282   .     A
C264   C267    1.435   .     S
C265   C267    1.395   .     A
C265   H334    1.080   .     S
C266   C268    1.394   .     A
C267   C269    1.399   .     A
C268   H345    1.084   .     S
C268   C270    1.381   .     A
C269   C271    1.377   .     A
C269   H355    1.084   .     S
C270   C272    1.401   .     A
C270   H356    1.083   .     S
C271   C273    1.398   .     A
C271   H357    1.083   .     S
C272   C651    1.446   1_545 S
C273   C650    1.446   .     S
C274   H304    1.108   .     S
C274   C276    1.543   .     S
C275   C296    1.411   .     A
C275   O363    1.383   .     S
C276   H306    1.109   .     S
C276   C277    1.526   .     S
C277   H308    1.110   .     S
C277   H307    1.110   .     S
C278   O362    1.419   .     S
C278   H310    1.111   .     S
C278   C279    1.531   .     S
C279   H313    1.108   .     S
C279   H314    1.109   .     S
C279   C280    1.525   .     S
C280   H316    1.111   .     S
C280   H317    1.110   .     S
C281   H319    1.111   .     S
C281   O363    1.411   .     S
C281   C1038   1.532   1_554 S
C281   H1074   1.110   1_554 S
C282   H320    1.110   .     S
C282   C1037   1.532   .     S
C283   H322    1.107   .     S
C283   H324    1.110   .     S
C283   C30     1.529   1_655 S
C283   H73     1.111   1_655 S
C284   H327    1.118   .     S
C284   O364    1.415   .     S
C284   C285    1.528   .     S
C284   H1082   1.112   .     S
C285   H328    1.110   .     S
C285   H329    1.111   .     S
C285   C287    1.526   .     S
C286   O364    1.382   .     S
C286   C297    1.410   .     A
C287   H330    1.111   .     S
C287   H331    1.110   .     S
C287   H1088   1.110   .     S
C288   C289    1.532   .     S
C288   H335    1.115   .     S
C288   O365    1.418   .     S
C288   H333    1.109   .     S
C289   H337    1.107   .     S
C289   H336    1.108   .     S
C289   C290    1.527   .     S
C290   H338    1.111   .     S
C290   H340    1.111   .     S
C290   H339    1.110   .     S
C291   H342    1.111   .     S
C291   C292    1.528   .     S
C291   O366    1.417   .     S
C291   H341    1.111   .     S
C292   H344    1.112   .     S
C292   C293    1.526   .     S
C292   H343    1.109   .     S
C293   H348    1.111   .     S
C293   H346    1.111   .     S
C293   H347    1.110   .     S
C294   H350    1.108   .     S
C294   H349    1.115   .     S
C294   O367    1.412   .     S
C294   H1107   1.107   1_554 S
C295   H353    1.111   .     S
C295   O368    1.406   .     S
C295   H1108   1.112   .     S
C295   H1110   1.109   .     S
C296   N359    1.362   .     A
C296   H358    1.082   .     S
C297   N360    1.363   .     A
C297   H302    1.079   .     S
C298   C300    1.412   .     A
C298   N359    1.372   .     A
C298   O365    1.380   .     S
C299   O366    1.377   .     S
C299   N360    1.374   .     A
C300   O367    1.387   .     S
H303   C22     1.102   1_655 S
H305   C24     1.111   1_655 S
H309   C25     1.108   1_655 S
H311   C26     1.116   1_655 S
H315   C28     1.111   1_655 S
H318   C1037   1.110   .     S
H321   C30     1.109   1_655 S
H326   C1040   1.112   1_554 S
H332   C1043   1.110   1_554 S
H351   C1050   1.107   .     S
H352   C1051   1.112   1_554 S
H354   C1051   1.109   1_554 S
N359   Zn378   2.011   .     S
N360   Zn377   2.011   .     S
O361   Zn377   2.004   .     S
O369   Zn378   2.004   .     S
O370   Zn378   1.979   .     S
O371   Zn377   1.979   .     S
O372   Zn377   1.996   .     S
O373   Zn378   1.996   .     S
O374   Zn378   2.006   .     S
O375   Zn377   2.006   .     S
O376   C7      1.402   1_655 S
O376   C22     1.425   1_655 S
C379   O487    1.284   .     A
C379   O496    1.282   .     A
C379   C392    1.417   .     S
C380   O494    1.383   .     S
C380   C382    1.408   .     A
C380   C425    1.415   .     A
C381   C401    1.425   .     A
C381   C426    1.414   .     A
C381   C1138   1.516   1_554 S
C382   C412    1.420   .     A
C382   C1137   1.516   .     S
C383   O498    1.285   .     A
C383   C385    1.424   .     S
C383   O500    1.280   .     A
C384   O501    1.292   .     A
C384   C386    1.429   .     S
C384   O499    1.275   .     A
C385   C638    1.359   1_455 S
C385   O754    1.402   1_455 S
C386   C511    1.359   .     S
C386   O614    1.393   .     S
C387   H427    1.083   .     S
C387   C398    1.403   .     A
C387   C389    1.380   .     A
C388   C399    1.402   .     A
C388   H438    1.083   .     S
C388   C391    1.382   .     A
C389   C392    1.392   .     A
C389   H449    1.084   .     S
C390   O495    1.294   .     A
C390   O497    1.282   .     A
C390   C393    1.435   .     S
C391   C393    1.395   .     A
C391   H460    1.080   .     S
C392   C394    1.394   .     A
C393   C395    1.399   .     A
C394   H471    1.084   .     S
C394   C396    1.381   .     A
C395   C397    1.377   .     A
C395   H481    1.084   .     S
C396   C398    1.401   .     A
C396   H482    1.083   .     S
C397   C399    1.398   .     A
C397   H483    1.083   .     S
C399   C20     1.446   1_565 S
C400   H430    1.108   .     S
C400   C402    1.543   .     S
C400   H681    1.102   1_455 S
C400   O754    1.425   1_455 S
C401   C422    1.411   .     A
C401   O489    1.383   .     S
C402   H432    1.109   .     S
C402   C403    1.526   .     S
C402   H683    1.111   1_455 S
C403   H434    1.110   .     S
C403   H433    1.110   .     S
C403   H687    1.108   1_455 S
C404   O488    1.419   .     S
C404   H436    1.111   .     S
C404   C405    1.531   .     S
C404   H689    1.116   1_455 S
C405   H439    1.108   .     S
C405   H440    1.109   .     S
C405   C406    1.525   .     S
C406   H442    1.111   .     S
C406   H443    1.110   .     S
C406   H693    1.111   1_455 S
C407   H445    1.111   .     S
C407   O489    1.411   .     S
C407   C1164   1.532   1_554 S
C407   H1200   1.110   1_554 S
C408   H446    1.110   .     S
C408   C1163   1.532   .     S
C408   C661    1.529   1_455 S
C408   H699    1.109   1_455 S
C409   H448    1.107   .     S
C409   H450    1.110   .     S
C409   C534    1.529   .     S
C409   H577    1.111   .     S
C410   H453    1.118   .     S
C410   O490    1.415   .     S
C410   C411    1.528   .     S
C410   H1208   1.112   .     S
C411   H454    1.110   .     S
C411   H455    1.111   .     S
C411   C413    1.526   .     S
C412   O490    1.382   .     S
C412   C423    1.410   .     A
C413   H456    1.111   .     S
C413   H457    1.110   .     S
C413   H1214   1.110   .     S
C414   C415    1.532   .     S
C414   H461    1.115   .     S
C414   O491    1.418   .     S
C414   H459    1.109   .     S
C415   H463    1.107   .     S
C415   H462    1.108   .     S
C415   C416    1.527   .     S
C416   H464    1.111   .     S
C416   H466    1.111   .     S
C416   H465    1.110   .     S
C417   H468    1.111   .     S
C417   C418    1.528   .     S
C417   O492    1.417   .     S
C417   H467    1.111   .     S
C418   H470    1.112   .     S
C418   C419    1.526   .     S
C418   H469    1.109   .     S
C419   H474    1.111   .     S
C419   H472    1.111   .     S
C419   H473    1.110   .     S
C420   H476    1.108   .     S
C420   H475    1.115   .     S
C420   O493    1.412   .     S
C420   H1233   1.107   1_554 S
C421   H479    1.111   .     S
C421   O494    1.406   .     S
C421   H1234   1.112   .     S
C421   H1236   1.109   .     S
C422   N485    1.362   .     A
C422   H484    1.082   .     S
C423   N486    1.363   .     A
C423   H428    1.079   .     S
C424   C426    1.412   .     A
C424   N485    1.372   .     A
C424   O491    1.380   .     S
C425   O492    1.377   .     S
C425   N486    1.374   .     A
C426   O493    1.387   .     S
H429   C526    1.102   .     S
H431   C528    1.111   .     S
H435   C529    1.108   .     S
H437   C530    1.116   .     S
H441   C532    1.111   .     S
H444   C1163   1.110   .     S
H447   C534    1.109   .     S
H451   C661    1.111   1_455 S
H452   C1166   1.112   1_554 S
H458   C1169   1.110   1_554 S
H477   C1176   1.107   .     S
H478   C1177   1.112   1_554 S
H480   C1177   1.109   1_554 S
N485   Zn504   2.011   .     S
N486   Zn503   2.011   .     S
O487   Zn503   2.004   .     S
O488   C638    1.393   1_455 S
O495   Zn504   2.004   .     S
O496   Zn504   1.979   .     S
O497   Zn503   1.979   .     S
O498   Zn503   1.996   .     S
O499   Zn504   1.996   .     S
O500   Zn504   2.006   .     S
O501   Zn503   2.006   .     S
O502   C511    1.402   .     S
O502   C526    1.425   .     S
C505   O613    1.284   .     A
C505   O622    1.282   .     A
C505   C518    1.417   .     S
C506   O620    1.383   .     S
C506   C508    1.408   .     A
C506   C551    1.415   .     A
C507   C527    1.425   .     A
C507   C552    1.414   .     A
C507   C1264   1.516   1_554 S
C508   C538    1.420   .     A
C508   C1263   1.516   .     S
C509   O624    1.285   .     A
C509   C511    1.424   .     S
C509   O626    1.280   .     A
C510   O627    1.292   .     A
C510   C512    1.429   .     S
C510   O625    1.275   .     A
C512   C637    1.359   .     S
C512   O740    1.393   .     S
C513   H553    1.083   .     S
C513   C524    1.403   .     A
C513   C515    1.380   .     A
C514   C525    1.402   .     A
C514   H564    1.083   .     S
C514   C517    1.382   .     A
C515   C518    1.392   .     A
C515   H575    1.084   .     S
C516   O621    1.294   .     A
C516   O623    1.282   .     A
C516   C519    1.435   .     S
C517   C519    1.395   .     A
C517   H586    1.080   .     S
C518   C520    1.394   .     A
C519   C521    1.399   .     A
C520   H597    1.084   .     S
C520   C522    1.381   .     A
C521   C523    1.377   .     A
C521   H607    1.084   .     S
C522   C524    1.401   .     A
C522   H608    1.083   .     S
C523   C525    1.398   .     A
C523   H609    1.083   .     S
C525   C146    1.446   1_565 S
C526   H556    1.108   .     S
C526   C528    1.543   .     S
C527   C548    1.411   .     A
C527   O615    1.383   .     S
C528   H558    1.109   .     S
C528   C529    1.526   .     S
C529   H560    1.110   .     S
C529   H559    1.110   .     S
C530   O614    1.419   .     S
C530   H562    1.111   .     S
C530   C531    1.531   .     S
C531   H565    1.108   .     S
C531   H566    1.109   .     S
C531   C532    1.525   .     S
C532   H568    1.111   .     S
C532   H569    1.110   .     S
C533   H571    1.111   .     S
C533   O615    1.411   .     S
C533   C1290   1.532   1_554 S
C533   H1326   1.110   1_554 S
C534   H572    1.110   .     S
C534   C1289   1.532   .     S
C535   H574    1.107   .     S
C535   H576    1.110   .     S
C535   C660    1.529   .     S
C535   H703    1.111   .     S
C536   H579    1.118   .     S
C536   O616    1.415   .     S
C536   C537    1.528   .     S
C536   H1334   1.112   .     S
C537   H580    1.110   .     S
C537   H581    1.111   .     S
C537   C539    1.526   .     S
C538   O616    1.382   .     S
C538   C549    1.410   .     A
C539   H582    1.111   .     S
C539   H583    1.110   .     S
C539   H1340   1.110   .     S
C540   C541    1.532   .     S
C540   H587    1.115   .     S
C540   O617    1.418   .     S
C540   H585    1.109   .     S
C541   H589    1.107   .     S
C541   H588    1.108   .     S
C541   C542    1.527   .     S
C542   H590    1.111   .     S
C542   H592    1.111   .     S
C542   H591    1.110   .     S
C543   H594    1.111   .     S
C543   C544    1.528   .     S
C543   O618    1.417   .     S
C543   H593    1.111   .     S
C544   H596    1.112   .     S
C544   C545    1.526   .     S
C544   H595    1.109   .     S
C545   H600    1.111   .     S
C545   H598    1.111   .     S
C545   H599    1.110   .     S
C546   H602    1.108   .     S
C546   H601    1.115   .     S
C546   O619    1.412   .     S
C546   H1359   1.107   1_554 S
C547   H605    1.111   .     S
C547   O620    1.406   .     S
C547   H1360   1.112   .     S
C547   H1362   1.109   .     S
C548   N611    1.362   .     A
C548   H610    1.082   .     S
C549   N612    1.363   .     A
C549   H554    1.079   .     S
C550   C552    1.412   .     A
C550   N611    1.372   .     A
C550   O617    1.380   .     S
C551   O618    1.377   .     S
C551   N612    1.374   .     A
C552   O619    1.387   .     S
H555   C652    1.102   .     S
H557   C654    1.111   .     S
H561   C655    1.108   .     S
H563   C656    1.116   .     S
H567   C658    1.111   .     S
H570   C1289   1.110   .     S
H573   C660    1.109   .     S
H578   C1292   1.112   1_554 S
H584   C1295   1.110   1_554 S
H603   C1302   1.107   .     S
H604   C1303   1.112   1_554 S
H606   C1303   1.109   1_554 S
N611   Zn630   2.011   .     S
N612   Zn629   2.011   .     S
O613   Zn629   2.004   .     S
O621   Zn630   2.004   .     S
O622   Zn630   1.979   .     S
O623   Zn629   1.979   .     S
O624   Zn629   1.996   .     S
O625   Zn630   1.996   .     S
O626   Zn630   2.006   .     S
O627   Zn629   2.006   .     S
O628   C637    1.402   .     S
O628   C652    1.425   .     S
C631   O739    1.284   .     A
C631   O748    1.282   .     A
C631   C644    1.417   .     S
C632   O746    1.383   .     S
C632   C634    1.408   .     A
C632   C677    1.415   .     A
C633   C653    1.425   .     A
C633   C678    1.414   .     A
C633   C1390   1.516   1_554 S
C634   C664    1.420   .     A
C634   C1389   1.516   .     S
C635   O750    1.285   .     A
C635   C637    1.424   .     S
C635   O752    1.280   .     A
C636   O753    1.292   .     A
C636   C638    1.429   .     S
C636   O751    1.275   .     A
C638   C385    1.359   1_655 S
C638   O488    1.393   1_655 S
C639   H679    1.083   .     S
C639   C650    1.403   .     A
C639   C641    1.380   .     A
C640   C651    1.402   .     A
C640   H690    1.083   .     S
C640   C643    1.382   .     A
C641   C644    1.392   .     A
C641   H701    1.084   .     S
C642   O747    1.294   .     A
C642   O749    1.282   .     A
C642   C645    1.435   .     S
C643   C645    1.395   .     A
C643   H712    1.080   .     S
C644   C646    1.394   .     A
C645   C647    1.399   .     A
C646   H723    1.084   .     S
C646   C648    1.381   .     A
C647   C649    1.377   .     A
C647   H733    1.084   .     S
C648   C650    1.401   .     A
C648   H734    1.083   .     S
C649   C651    1.398   .     A
C649   H735    1.083   .     S
C651   C272    1.446   1_565 S
C652   H682    1.108   .     S
C652   C654    1.543   .     S
C653   C674    1.411   .     A
C653   O741    1.383   .     S
C654   H684    1.109   .     S
C654   C655    1.526   .     S
C655   H686    1.110   .     S
C655   H685    1.110   .     S
C656   O740    1.419   .     S
C656   H688    1.111   .     S
C656   C657    1.531   .     S
C657   H691    1.108   .     S
C657   H692    1.109   .     S
C657   C658    1.525   .     S
C658   H694    1.111   .     S
C658   H695    1.110   .     S
C659   H697    1.111   .     S
C659   O741    1.411   .     S
C659   C1416   1.532   1_554 S
C659   H1452   1.110   1_554 S
C660   H698    1.110   .     S
C660   C1415   1.532   .     S
C661   H700    1.107   .     S
C661   H702    1.110   .     S
C661   C408    1.529   1_655 S
C661   H451    1.111   1_655 S
C662   H705    1.118   .     S
C662   O742    1.415   .     S
C662   C663    1.528   .     S
C662   H1460   1.112   .     S
C663   H706    1.110   .     S
C663   H707    1.111   .     S
C663   C665    1.526   .     S
C664   O742    1.382   .     S
C664   C675    1.410   .     A
C665   H708    1.111   .     S
C665   H709    1.110   .     S
C665   H1466   1.110   .     S
C666   C667    1.532   .     S
C666   H713    1.115   .     S
C666   O743    1.418   .     S
C666   H711    1.109   .     S
C667   H715    1.107   .     S
C667   H714    1.108   .     S
C667   C668    1.527   .     S
C668   H716    1.111   .     S
C668   H718    1.111   .     S
C668   H717    1.110   .     S
C669   H720    1.111   .     S
C669   C670    1.528   .     S
C669   O744    1.417   .     S
C669   H719    1.111   .     S
C670   H722    1.112   .     S
C670   C671    1.526   .     S
C670   H721    1.109   .     S
C671   H726    1.111   .     S
C671   H724    1.111   .     S
C671   H725    1.110   .     S
C672   H728    1.108   .     S
C672   H727    1.115   .     S
C672   O745    1.412   .     S
C672   H1485   1.107   1_554 S
C673   H731    1.111   .     S
C673   O746    1.406   .     S
C673   H1486   1.112   .     S
C673   H1488   1.109   .     S
C674   N737    1.362   .     A
C674   H736    1.082   .     S
C675   N738    1.363   .     A
C675   H680    1.079   .     S
C676   C678    1.412   .     A
C676   N737    1.372   .     A
C676   O743    1.380   .     S
C677   O744    1.377   .     S
C677   N738    1.374   .     A
C678   O745    1.387   .     S
H681   C400    1.102   1_655 S
H683   C402    1.111   1_655 S
H687   C403    1.108   1_655 S
H689   C404    1.116   1_655 S
H693   C406    1.111   1_655 S
H696   C1415   1.110   .     S
H699   C408    1.109   1_655 S
H704   C1418   1.112   1_554 S
H710   C1421   1.110   1_554 S
H729   C1428   1.107   .     S
H730   C1429   1.112   1_554 S
H732   C1429   1.109   1_554 S
N737   Zn756   2.011   .     S
N738   Zn755   2.011   .     S
O739   Zn755   2.004   .     S
O747   Zn756   2.004   .     S
O748   Zn756   1.979   .     S
O749   Zn755   1.979   .     S
O750   Zn755   1.996   .     S
O751   Zn756   1.996   .     S
O752   Zn756   2.006   .     S
O753   Zn755   2.006   .     S
O754   C385    1.402   1_655 S
O754   C400    1.425   1_655 S
C757   O865    1.284   .     A
C757   O874    1.282   .     A
C757   C770    1.417   .     S
C758   O872    1.383   .     S
C758   C760    1.408   .     A
C758   C803    1.415   .     A
C759   C779    1.425   .     A
C759   C804    1.414   .     A
C760   C790    1.420   .     A
C760   C3      1.516   1_556 S
C761   O876    1.285   .     A
C761   C763    1.424   .     S
C761   O878    1.280   .     A
C762   O879    1.292   .     A
C762   C764    1.429   .     S
C762   O877    1.275   .     A
C763   C1016   1.359   1_455 S
C763   O1132   1.402   1_455 S
C764   C889    1.359   .     S
C764   O992    1.393   .     S
C765   H805    1.083   .     S
C765   C776    1.403   .     A
C765   C767    1.380   .     A
C766   C777    1.402   .     A
C766   H816    1.083   .     S
C766   C769    1.382   .     A
C767   C770    1.392   .     A
C767   H827    1.084   .     S
C768   O873    1.294   .     A
C768   O875    1.282   .     A
C768   C771    1.435   .     S
C769   C771    1.395   .     A
C769   H838    1.080   .     S
C770   C772    1.394   .     A
C771   C773    1.399   .     A
C772   H849    1.084   .     S
C772   C774    1.381   .     A
C773   C775    1.377   .     A
C773   H859    1.084   .     S
C774   C776    1.401   .     A
C774   H860    1.083   .     S
C775   C777    1.398   .     A
C775   H861    1.083   .     S
C776   C1155   1.446   1_545 S
C777   C1154   1.446   .     S
C778   H808    1.108   .     S
C778   C780    1.543   .     S
C778   H1059   1.102   1_455 S
C778   O1132   1.425   1_455 S
C779   C800    1.411   .     A
C779   O867    1.383   .     S
C780   H810    1.109   .     S
C780   C781    1.526   .     S
C780   H1061   1.111   1_455 S
C781   H812    1.110   .     S
C781   H811    1.110   .     S
C781   H1065   1.108   1_455 S
C782   O866    1.419   .     S
C782   H814    1.111   .     S
C782   C783    1.531   .     S
C782   H1067   1.116   1_455 S
C783   H817    1.108   .     S
C783   H818    1.109   .     S
C783   C784    1.525   .     S
C784   H820    1.111   .     S
C784   H821    1.110   .     S
C784   H1071   1.111   1_455 S
C785   H823    1.111   .     S
C785   O867    1.411   .     S
C786   H824    1.110   .     S
C786   C29     1.532   1_556 S
C786   C1039   1.529   1_455 S
C786   H1077   1.109   1_455 S
C787   H826    1.107   .     S
C787   H828    1.110   .     S
C787   C912    1.529   .     S
C787   H955    1.111   .     S
C788   H831    1.118   .     S
C788   O868    1.415   .     S
C788   C789    1.528   .     S
C788   H74     1.112   1_556 S
C789   H832    1.110   .     S
C789   H833    1.111   .     S
C789   C791    1.526   .     S
C790   O868    1.382   .     S
C790   C801    1.410   .     A
C791   H834    1.111   .     S
C791   H835    1.110   .     S
C791   H80     1.110   1_556 S
C792   C793    1.532   .     S
C792   H839    1.115   .     S
C792   O869    1.418   .     S
C792   H837    1.109   .     S
C793   H841    1.107   .     S
C793   H840    1.108   .     S
C793   C794    1.527   .     S
C794   H842    1.111   .     S
C794   H844    1.111   .     S
C794   H843    1.110   .     S
C795   H846    1.111   .     S
C795   C796    1.528   .     S
C795   O870    1.417   .     S
C795   H845    1.111   .     S
C796   H848    1.112   .     S
C796   C797    1.526   .     S
C796   H847    1.109   .     S
C797   H852    1.111   .     S
C797   H850    1.111   .     S
C797   H851    1.110   .     S
C798   H854    1.108   .     S
C798   H853    1.115   .     S
C798   O871    1.412   .     S
C799   H857    1.111   .     S
C799   O872    1.406   .     S
C799   H100    1.112   1_556 S
C799   H102    1.109   1_556 S
C800   N863    1.362   .     A
C800   H862    1.082   .     S
C801   N864    1.363   .     A
C801   H806    1.079   .     S
C802   C804    1.412   .     A
C802   N863    1.372   .     A
C802   O869    1.380   .     S
C803   O870    1.377   .     S
C803   N864    1.374   .     A
C804   O871    1.387   .     S
H807   C904    1.102   .     S
H809   C906    1.111   .     S
H813   C907    1.108   .     S
H815   C908    1.116   .     S
H819   C910    1.111   .     S
H822   C29     1.110   1_556 S
H825   C912    1.109   .     S
H829   C1039   1.111   1_455 S
H855   C42     1.107   1_556 S
N863   Zn882   2.011   .     S
N864   Zn881   2.011   .     S
O865   Zn881   2.004   .     S
O866   C1016   1.393   1_455 S
O873   Zn882   2.004   .     S
O874   Zn882   1.979   .     S
O875   Zn881   1.979   .     S
O876   Zn881   1.996   .     S
O877   Zn882   1.996   .     S
O878   Zn882   2.006   .     S
O879   Zn881   2.006   .     S
O880   C889    1.402   .     S
O880   C904    1.425   .     S
C883   O991    1.284   .     A
C883   O1000   1.282   .     A
C883   C896    1.417   .     S
C884   O998    1.383   .     S
C884   C886    1.408   .     A
C884   C929    1.415   .     A
C885   C905    1.425   .     A
C885   C930    1.414   .     A
C886   C916    1.420   .     A
C886   C129    1.516   1_556 S
C887   O1002   1.285   .     A
C887   C889    1.424   .     S
C887   O1004   1.280   .     A
C888   O1005   1.292   .     A
C888   C890    1.429   .     S
C888   O1003   1.275   .     A
C890   C1015   1.359   .     S
C890   O1118   1.393   .     S
C891   H931    1.083   .     S
C891   C902    1.403   .     A
C891   C893    1.380   .     A
C892   C903    1.402   .     A
C892   H942    1.083   .     S
C892   C895    1.382   .     A
C893   C896    1.392   .     A
C893   H953    1.084   .     S
C894   O999    1.294   .     A
C894   O1001   1.282   .     A
C894   C897    1.435   .     S
C895   C897    1.395   .     A
C895   H964    1.080   .     S
C896   C898    1.394   .     A
C897   C899    1.399   .     A
C898   H975    1.084   .     S
C898   C900    1.381   .     A
C899   C901    1.377   .     A
C899   H985    1.084   .     S
C900   C902    1.401   .     A
C900   H986    1.083   .     S
C901   C903    1.398   .     A
C901   H987    1.083   .     S
C902   C1281   1.446   1_545 S
C903   C1280   1.446   .     S
C904   H934    1.108   .     S
C904   C906    1.543   .     S
C905   C926    1.411   .     A
C905   O993    1.383   .     S
C906   H936    1.109   .     S
C906   C907    1.526   .     S
C907   H938    1.110   .     S
C907   H937    1.110   .     S
C908   O992    1.419   .     S
C908   H940    1.111   .     S
C908   C909    1.531   .     S
C909   H943    1.108   .     S
C909   H944    1.109   .     S
C909   C910    1.525   .     S
C910   H946    1.111   .     S
C910   H947    1.110   .     S
C911   H949    1.111   .     S
C911   O993    1.411   .     S
C912   H950    1.110   .     S
C912   C155    1.532   1_556 S
C913   H952    1.107   .     S
C913   H954    1.110   .     S
C913   C1038   1.529   .     S
C913   H1081   1.111   .     S
C914   H957    1.118   .     S
C914   O994    1.415   .     S
C914   C915    1.528   .     S
C914   H200    1.112   1_556 S
C915   H958    1.110   .     S
C915   H959    1.111   .     S
C915   C917    1.526   .     S
C916   O994    1.382   .     S
C916   C927    1.410   .     A
C917   H960    1.111   .     S
C917   H961    1.110   .     S
C917   H206    1.110   1_556 S
C918   C919    1.532   .     S
C918   H965    1.115   .     S
C918   O995    1.418   .     S
C918   H963    1.109   .     S
C919   H967    1.107   .     S
C919   H966    1.108   .     S
C919   C920    1.527   .     S
C920   H968    1.111   .     S
C920   H970    1.111   .     S
C920   H969    1.110   .     S
C921   H972    1.111   .     S
C921   C922    1.528   .     S
C921   O996    1.417   .     S
C921   H971    1.111   .     S
C922   H974    1.112   .     S
C922   C923    1.526   .     S
C922   H973    1.109   .     S
C923   H978    1.111   .     S
C923   H976    1.111   .     S
C923   H977    1.110   .     S
C924   H980    1.108   .     S
C924   H979    1.115   .     S
C924   O997    1.412   .     S
C925   H983    1.111   .     S
C925   O998    1.406   .     S
C925   H226    1.112   1_556 S
C925   H228    1.109   1_556 S
C926   N989    1.362   .     A
C926   H988    1.082   .     S
C927   N990    1.363   .     A
C927   H932    1.079   .     S
C928   C930    1.412   .     A
C928   N989    1.372   .     A
C928   O995    1.380   .     S
C929   O996    1.377   .     S
C929   N990    1.374   .     A
C930   O997    1.387   .     S
H933   C1030   1.102   .     S
H935   C1032   1.111   .     S
H939   C1033   1.108   .     S
H941   C1034   1.116   .     S
H945   C1036   1.111   .     S
H948   C155    1.110   1_556 S
H951   C1038   1.109   .     S
H981   C168    1.107   1_556 S
N989   Zn1008  2.011   .     S
N990   Zn1007  2.011   .     S
O991   Zn1007  2.004   .     S
O999   Zn1008  2.004   .     S
O1000  Zn1008  1.979   .     S
O1001  Zn1007  1.979   .     S
O1002  Zn1007  1.996   .     S
O1003  Zn1008  1.996   .     S
O1004  Zn1008  2.006   .     S
O1005  Zn1007  2.006   .     S
O1006  C1015   1.402   .     S
O1006  C1030   1.425   .     S
C1009  O1117   1.284   .     A
C1009  O1126   1.282   .     A
C1009  C1022   1.417   .     S
C1010  O1124   1.383   .     S
C1010  C1012   1.408   .     A
C1010  C1055   1.415   .     A
C1011  C1031   1.425   .     A
C1011  C1056   1.414   .     A
C1012  C1042   1.420   .     A
C1012  C255    1.516   1_556 S
C1013  O1128   1.285   .     A
C1013  C1015   1.424   .     S
C1013  O1130   1.280   .     A
C1014  O1131   1.292   .     A
C1014  C1016   1.429   .     S
C1014  O1129   1.275   .     A
C1016  C763    1.359   1_655 S
C1016  O866    1.393   1_655 S
C1017  H1057   1.083   .     S
C1017  C1028   1.403   .     A
C1017  C1019   1.380   .     A
C1018  C1029   1.402   .     A
C1018  H1068   1.083   .     S
C1018  C1021   1.382   .     A
C1019  C1022   1.392   .     A
C1019  H1079   1.084   .     S
C1020  O1125   1.294   .     A
C1020  O1127   1.282   .     A
C1020  C1023   1.435   .     S
C1021  C1023   1.395   .     A
C1021  H1090   1.080   .     S
C1022  C1024   1.394   .     A
C1023  C1025   1.399   .     A
C1024  H1101   1.084   .     S
C1024  C1026   1.381   .     A
C1025  C1027   1.377   .     A
C1025  H1111   1.084   .     S
C1026  C1028   1.401   .     A
C1026  H1112   1.083   .     S
C1027  C1029   1.398   .     A
C1027  H1113   1.083   .     S
C1028  C1407   1.446   1_545 S
C1029  C1406   1.446   .     S
C1030  H1060   1.108   .     S
C1030  C1032   1.543   .     S
C1031  C1052   1.411   .     A
C1031  O1119   1.383   .     S
C1032  H1062   1.109   .     S
C1032  C1033   1.526   .     S
C1033  H1064   1.110   .     S
C1033  H1063   1.110   .     S
C1034  O1118   1.419   .     S
C1034  H1066   1.111   .     S
C1034  C1035   1.531   .     S
C1035  H1069   1.108   .     S
C1035  H1070   1.109   .     S
C1035  C1036   1.525   .     S
C1036  H1072   1.111   .     S
C1036  H1073   1.110   .     S
C1037  H1075   1.111   .     S
C1037  O1119   1.411   .     S
C1038  H1076   1.110   .     S
C1038  C281    1.532   1_556 S
C1039  H1078   1.107   .     S
C1039  H1080   1.110   .     S
C1039  C786    1.529   1_655 S
C1039  H829    1.111   1_655 S
C1040  H1083   1.118   .     S
C1040  O1120   1.415   .     S
C1040  C1041   1.528   .     S
C1040  H326    1.112   1_556 S
C1041  H1084   1.110   .     S
C1041  H1085   1.111   .     S
C1041  C1043   1.526   .     S
C1042  O1120   1.382   .     S
C1042  C1053   1.410   .     A
C1043  H1086   1.111   .     S
C1043  H1087   1.110   .     S
C1043  H332    1.110   1_556 S
C1044  C1045   1.532   .     S
C1044  H1091   1.115   .     S
C1044  O1121   1.418   .     S
C1044  H1089   1.109   .     S
C1045  H1093   1.107   .     S
C1045  H1092   1.108   .     S
C1045  C1046   1.527   .     S
C1046  H1094   1.111   .     S
C1046  H1096   1.111   .     S
C1046  H1095   1.110   .     S
C1047  H1098   1.111   .     S
C1047  C1048   1.528   .     S
C1047  O1122   1.417   .     S
C1047  H1097   1.111   .     S
C1048  H1100   1.112   .     S
C1048  C1049   1.526   .     S
C1048  H1099   1.109   .     S
C1049  H1104   1.111   .     S
C1049  H1102   1.111   .     S
C1049  H1103   1.110   .     S
C1050  H1106   1.108   .     S
C1050  H1105   1.115   .     S
C1050  O1123   1.412   .     S
C1051  H1109   1.111   .     S
C1051  O1124   1.406   .     S
C1051  H352    1.112   1_556 S
C1051  H354    1.109   1_556 S
C1052  N1115   1.362   .     A
C1052  H1114   1.082   .     S
C1053  N1116   1.363   .     A
C1053  H1058   1.079   .     S
C1054  C1056   1.412   .     A
C1054  N1115   1.372   .     A
C1054  O1121   1.380   .     S
C1055  O1122   1.377   .     S
C1055  N1116   1.374   .     A
C1056  O1123   1.387   .     S
H1059  C778    1.102   1_655 S
H1061  C780    1.111   1_655 S
H1065  C781    1.108   1_655 S
H1067  C782    1.116   1_655 S
H1071  C784    1.111   1_655 S
H1074  C281    1.110   1_556 S
H1077  C786    1.109   1_655 S
H1107  C294    1.107   1_556 S
N1115  Zn1134  2.011   .     S
N1116  Zn1133  2.011   .     S
O1117  Zn1133  2.004   .     S
O1125  Zn1134  2.004   .     S
O1126  Zn1134  1.979   .     S
O1127  Zn1133  1.979   .     S
O1128  Zn1133  1.996   .     S
O1129  Zn1134  1.996   .     S
O1130  Zn1134  2.006   .     S
O1131  Zn1133  2.006   .     S
O1132  C763    1.402   1_655 S
O1132  C778    1.425   1_655 S
C1135  O1243   1.284   .     A
C1135  O1252   1.282   .     A
C1135  C1148   1.417   .     S
C1136  O1250   1.383   .     S
C1136  C1138   1.408   .     A
C1136  C1181   1.415   .     A
C1137  C1157   1.425   .     A
C1137  C1182   1.414   .     A
C1138  C1168   1.420   .     A
C1138  C381    1.516   1_556 S
C1139  O1254   1.285   .     A
C1139  C1141   1.424   .     S
C1139  O1256   1.280   .     A
C1140  O1257   1.292   .     A
C1140  C1142   1.429   .     S
C1140  O1255   1.275   .     A
C1141  C1394   1.359   1_455 S
C1141  O1510   1.402   1_455 S
C1142  C1267   1.359   .     S
C1142  O1370   1.393   .     S
C1143  H1183   1.083   .     S
C1143  C1154   1.403   .     A
C1143  C1145   1.380   .     A
C1144  C1155   1.402   .     A
C1144  H1194   1.083   .     S
C1144  C1147   1.382   .     A
C1145  C1148   1.392   .     A
C1145  H1205   1.084   .     S
C1146  O1251   1.294   .     A
C1146  O1253   1.282   .     A
C1146  C1149   1.435   .     S
C1147  C1149   1.395   .     A
C1147  H1216   1.080   .     S
C1148  C1150   1.394   .     A
C1149  C1151   1.399   .     A
C1150  H1227   1.084   .     S
C1150  C1152   1.381   .     A
C1151  C1153   1.377   .     A
C1151  H1237   1.084   .     S
C1152  C1154   1.401   .     A
C1152  H1238   1.083   .     S
C1153  C1155   1.398   .     A
C1153  H1239   1.083   .     S
C1155  C776    1.446   1_565 S
C1156  H1186   1.108   .     S
C1156  C1158   1.543   .     S
C1156  H1437   1.102   1_455 S
C1156  O1510   1.425   1_455 S
C1157  C1178   1.411   .     A
C1157  O1245   1.383   .     S
C1158  H1188   1.109   .     S
C1158  C1159   1.526   .     S
C1158  H1439   1.111   1_455 S
C1159  H1190   1.110   .     S
C1159  H1189   1.110   .     S
C1159  H1443   1.108   1_455 S
C1160  O1244   1.419   .     S
C1160  H1192   1.111   .     S
C1160  C1161   1.531   .     S
C1160  H1445   1.116   1_455 S
C1161  H1195   1.108   .     S
C1161  H1196   1.109   .     S
C1161  C1162   1.525   .     S
C1162  H1198   1.111   .     S
C1162  H1199   1.110   .     S
C1162  H1449   1.111   1_455 S
C1163  H1201   1.111   .     S
C1163  O1245   1.411   .     S
C1164  H1202   1.110   .     S
C1164  C407    1.532   1_556 S
C1164  C1417   1.529   1_455 S
C1164  H1455   1.109   1_455 S
C1165  H1204   1.107   .     S
C1165  H1206   1.110   .     S
C1165  C1290   1.529   .     S
C1165  H1333   1.111   .     S
C1166  H1209   1.118   .     S
C1166  O1246   1.415   .     S
C1166  C1167   1.528   .     S
C1166  H452    1.112   1_556 S
C1167  H1210   1.110   .     S
C1167  H1211   1.111   .     S
C1167  C1169   1.526   .     S
C1168  O1246   1.382   .     S
C1168  C1179   1.410   .     A
C1169  H1212   1.111   .     S
C1169  H1213   1.110   .     S
C1169  H458    1.110   1_556 S
C1170  C1171   1.532   .     S
C1170  H1217   1.115   .     S
C1170  O1247   1.418   .     S
C1170  H1215   1.109   .     S
C1171  H1219   1.107   .     S
C1171  H1218   1.108   .     S
C1171  C1172   1.527   .     S
C1172  H1220   1.111   .     S
C1172  H1222   1.111   .     S
C1172  H1221   1.110   .     S
C1173  H1224   1.111   .     S
C1173  C1174   1.528   .     S
C1173  O1248   1.417   .     S
C1173  H1223   1.111   .     S
C1174  H1226   1.112   .     S
C1174  C1175   1.526   .     S
C1174  H1225   1.109   .     S
C1175  H1230   1.111   .     S
C1175  H1228   1.111   .     S
C1175  H1229   1.110   .     S
C1176  H1232   1.108   .     S
C1176  H1231   1.115   .     S
C1176  O1249   1.412   .     S
C1177  H1235   1.111   .     S
C1177  O1250   1.406   .     S
C1177  H478    1.112   1_556 S
C1177  H480    1.109   1_556 S
C1178  N1241   1.362   .     A
C1178  H1240   1.082   .     S
C1179  N1242   1.363   .     A
C1179  H1184   1.079   .     S
C1180  C1182   1.412   .     A
C1180  N1241   1.372   .     A
C1180  O1247   1.380   .     S
C1181  O1248   1.377   .     S
C1181  N1242   1.374   .     A
C1182  O1249   1.387   .     S
H1185  C1282   1.102   .     S
H1187  C1284   1.111   .     S
H1191  C1285   1.108   .     S
H1193  C1286   1.116   .     S
H1197  C1288   1.111   .     S
H1200  C407    1.110   1_556 S
H1203  C1290   1.109   .     S
H1207  C1417   1.111   1_455 S
H1233  C420    1.107   1_556 S
N1241  Zn1260  2.011   .     S
N1242  Zn1259  2.011   .     S
O1243  Zn1259  2.004   .     S
O1244  C1394   1.393   1_455 S
O1251  Zn1260  2.004   .     S
O1252  Zn1260  1.979   .     S
O1253  Zn1259  1.979   .     S
O1254  Zn1259  1.996   .     S
O1255  Zn1260  1.996   .     S
O1256  Zn1260  2.006   .     S
O1257  Zn1259  2.006   .     S
O1258  C1267   1.402   .     S
O1258  C1282   1.425   .     S
C1261  O1369   1.284   .     A
C1261  O1378   1.282   .     A
C1261  C1274   1.417   .     S
C1262  O1376   1.383   .     S
C1262  C1264   1.408   .     A
C1262  C1307   1.415   .     A
C1263  C1283   1.425   .     A
C1263  C1308   1.414   .     A
C1264  C1294   1.420   .     A
C1264  C507    1.516   1_556 S
C1265  O1380   1.285   .     A
C1265  C1267   1.424   .     S
C1265  O1382   1.280   .     A
C1266  O1383   1.292   .     A
C1266  C1268   1.429   .     S
C1266  O1381   1.275   .     A
C1268  C1393   1.359   .     S
C1268  O1496   1.393   .     S
C1269  H1309   1.083   .     S
C1269  C1280   1.403   .     A
C1269  C1271   1.380   .     A
C1270  C1281   1.402   .     A
C1270  H1320   1.083   .     S
C1270  C1273   1.382   .     A
C1271  C1274   1.392   .     A
C1271  H1331   1.084   .     S
C1272  O1377   1.294   .     A
C1272  O1379   1.282   .     A
C1272  C1275   1.435   .     S
C1273  C1275   1.395   .     A
C1273  H1342   1.080   .     S
C1274  C1276   1.394   .     A
C1275  C1277   1.399   .     A
C1276  H1353   1.084   .     S
C1276  C1278   1.381   .     A
C1277  C1279   1.377   .     A
C1277  H1363   1.084   .     S
C1278  C1280   1.401   .     A
C1278  H1364   1.083   .     S
C1279  C1281   1.398   .     A
C1279  H1365   1.083   .     S
C1281  C902    1.446   1_565 S
C1282  H1312   1.108   .     S
C1282  C1284   1.543   .     S
C1283  C1304   1.411   .     A
C1283  O1371   1.383   .     S
C1284  H1314   1.109   .     S
C1284  C1285   1.526   .     S
C1285  H1316   1.110   .     S
C1285  H1315   1.110   .     S
C1286  O1370   1.419   .     S
C1286  H1318   1.111   .     S
C1286  C1287   1.531   .     S
C1287  H1321   1.108   .     S
C1287  H1322   1.109   .     S
C1287  C1288   1.525   .     S
C1288  H1324   1.111   .     S
C1288  H1325   1.110   .     S
C1289  H1327   1.111   .     S
C1289  O1371   1.411   .     S
C1290  H1328   1.110   .     S
C1290  C533    1.532   1_556 S
C1291  H1330   1.107   .     S
C1291  H1332   1.110   .     S
C1291  C1416   1.529   .     S
C1291  H1459   1.111   .     S
C1292  H1335   1.118   .     S
C1292  O1372   1.415   .     S
C1292  C1293   1.528   .     S
C1292  H578    1.112   1_556 S
C1293  H1336   1.110   .     S
C1293  H1337   1.111   .     S
C1293  C1295   1.526   .     S
C1294  O1372   1.382   .     S
C1294  C1305   1.410   .     A
C1295  H1338   1.111   .     S
C1295  H1339   1.110   .     S
C1295  H584    1.110   1_556 S
C1296  C1297   1.532   .     S
C1296  H1343   1.115   .     S
C1296  O1373   1.418   .     S
C1296  H1341   1.109   .     S
C1297  H1345   1.107   .     S
C1297  H1344   1.108   .     S
C1297  C1298   1.527   .     S
C1298  H1346   1.111   .     S
C1298  H1348   1.111   .     S
C1298  H1347   1.110   .     S
C1299  H1350   1.111   .     S
C1299  C1300   1.528   .     S
C1299  O1374   1.417   .     S
C1299  H1349   1.111   .     S
C1300  H1352   1.112   .     S
C1300  C1301   1.526   .     S
C1300  H1351   1.109   .     S
C1301  H1356   1.111   .     S
C1301  H1354   1.111   .     S
C1301  H1355   1.110   .     S
C1302  H1358   1.108   .     S
C1302  H1357   1.115   .     S
C1302  O1375   1.412   .     S
C1303  H1361   1.111   .     S
C1303  O1376   1.406   .     S
C1303  H604    1.112   1_556 S
C1303  H606    1.109   1_556 S
C1304  N1367   1.362   .     A
C1304  H1366   1.082   .     S
C1305  N1368   1.363   .     A
C1305  H1310   1.079   .     S
C1306  C1308   1.412   .     A
C1306  N1367   1.372   .     A
C1306  O1373   1.380   .     S
C1307  O1374   1.377   .     S
C1307  N1368   1.374   .     A
C1308  O1375   1.387   .     S
H1311  C1408   1.102   .     S
H1313  C1410   1.111   .     S
H1317  C1411   1.108   .     S
H1319  C1412   1.116   .     S
H1323  C1414   1.111   .     S
H1326  C533    1.110   1_556 S
H1329  C1416   1.109   .     S
H1359  C546    1.107   1_556 S
N1367  Zn1386  2.011   .     S
N1368  Zn1385  2.011   .     S
O1369  Zn1385  2.004   .     S
O1377  Zn1386  2.004   .     S
O1378  Zn1386  1.979   .     S
O1379  Zn1385  1.979   .     S
O1380  Zn1385  1.996   .     S
O1381  Zn1386  1.996   .     S
O1382  Zn1386  2.006   .     S
O1383  Zn1385  2.006   .     S
O1384  C1393   1.402   .     S
O1384  C1408   1.425   .     S
C1387  O1495   1.284   .     A
C1387  O1504   1.282   .     A
C1387  C1400   1.417   .     S
C1388  O1502   1.383   .     S
C1388  C1390   1.408   .     A
C1388  C1433   1.415   .     A
C1389  C1409   1.425   .     A
C1389  C1434   1.414   .     A
C1390  C1420   1.420   .     A
C1390  C633    1.516   1_556 S
C1391  O1506   1.285   .     A
C1391  C1393   1.424   .     S
C1391  O1508   1.280   .     A
C1392  O1509   1.292   .     A
C1392  C1394   1.429   .     S
C1392  O1507   1.275   .     A
C1394  C1141   1.359   1_655 S
C1394  O1244   1.393   1_655 S
C1395  H1435   1.083   .     S
C1395  C1406   1.403   .     A
C1395  C1397   1.380   .     A
C1396  C1407   1.402   .     A
C1396  H1446   1.083   .     S
C1396  C1399   1.382   .     A
C1397  C1400   1.392   .     A
C1397  H1457   1.084   .     S
C1398  O1503   1.294   .     A
C1398  O1505   1.282   .     A
C1398  C1401   1.435   .     S
C1399  C1401   1.395   .     A
C1399  H1468   1.080   .     S
C1400  C1402   1.394   .     A
C1401  C1403   1.399   .     A
C1402  H1479   1.084   .     S
C1402  C1404   1.381   .     A
C1403  C1405   1.377   .     A
C1403  H1489   1.084   .     S
C1404  C1406   1.401   .     A
C1404  H1490   1.083   .     S
C1405  C1407   1.398   .     A
C1405  H1491   1.083   .     S
C1407  C1028   1.446   1_565 S
C1408  H1438   1.108   .     S
C1408  C1410   1.543   .     S
C1409  C1430   1.411   .     A
C1409  O1497   1.383   .     S
C1410  H1440   1.109   .     S
C1410  C1411   1.526   .     S
C1411  H1442   1.110   .     S
C1411  H1441   1.110   .     S
C1412  O1496   1.419   .     S
C1412  H1444   1.111   .     S
C1412  C1413   1.531   .     S
C1413  H1447   1.108   .     S
C1413  H1448   1.109   .     S
C1413  C1414   1.525   .     S
C1414  H1450   1.111   .     S
C1414  H1451   1.110   .     S
C1415  H1453   1.111   .     S
C1415  O1497   1.411   .     S
C1416  H1454   1.110   .     S
C1416  C659    1.532   1_556 S
C1417  H1456   1.107   .     S
C1417  H1458   1.110   .     S
C1417  C1164   1.529   1_655 S
C1417  H1207   1.111   1_655 S
C1418  H1461   1.118   .     S
C1418  O1498   1.415   .     S
C1418  C1419   1.528   .     S
C1418  H704    1.112   1_556 S
C1419  H1462   1.110   .     S
C1419  H1463   1.111   .     S
C1419  C1421   1.526   .     S
C1420  O1498   1.382   .     S
C1420  C1431   1.410   .     A
C1421  H1464   1.111   .     S
C1421  H1465   1.110   .     S
C1421  H710    1.110   1_556 S
C1422  C1423   1.532   .     S
C1422  H1469   1.115   .     S
C1422  O1499   1.418   .     S
C1422  H1467   1.109   .     S
C1423  H1471   1.107   .     S
C1423  H1470   1.108   .     S
C1423  C1424   1.527   .     S
C1424  H1472   1.111   .     S
C1424  H1474   1.111   .     S
C1424  H1473   1.110   .     S
C1425  H1476   1.111   .     S
C1425  C1426   1.528   .     S
C1425  O1500   1.417   .     S
C1425  H1475   1.111   .     S
C1426  H1478   1.112   .     S
C1426  C1427   1.526   .     S
C1426  H1477   1.109   .     S
C1427  H1482   1.111   .     S
C1427  H1480   1.111   .     S
C1427  H1481   1.110   .     S
C1428  H1484   1.108   .     S
C1428  H1483   1.115   .     S
C1428  O1501   1.412   .     S
C1429  H1487   1.111   .     S
C1429  O1502   1.406   .     S
C1429  H730    1.112   1_556 S
C1429  H732    1.109   1_556 S
C1430  N1493   1.362   .     A
C1430  H1492   1.082   .     S
C1431  N1494   1.363   .     A
C1431  H1436   1.079   .     S
C1432  C1434   1.412   .     A
C1432  N1493   1.372   .     A
C1432  O1499   1.380   .     S
C1433  O1500   1.377   .     S
C1433  N1494   1.374   .     A
C1434  O1501   1.387   .     S
H1437  C1156   1.102   1_655 S
H1439  C1158   1.111   1_655 S
H1443  C1159   1.108   1_655 S
H1445  C1160   1.116   1_655 S
H1449  C1162   1.111   1_655 S
H1452  C659    1.110   1_556 S
H1455  C1164   1.109   1_655 S
H1485  C672    1.107   1_556 S
N1493  Zn1512  2.011   .     S
N1494  Zn1511  2.011   .     S
O1495  Zn1511  2.004   .     S
O1503  Zn1512  2.004   .     S
O1504  Zn1512  1.979   .     S
O1505  Zn1511  1.979   .     S
O1506  Zn1511  1.996   .     S
O1507  Zn1512  1.996   .     S
O1508  Zn1512  2.006   .     S
O1509  Zn1511  2.006   .     S
O1510  C1141   1.402   1_655 S
O1510  C1156   1.425   1_655 S
