data_str_m3_o1_o17_pcu_sym.133
_audit_creation_date              2020-01-03
_audit_creation_method            'Materials Studio'
_symmetry_space_group_name_H-M    'P1'
_symmetry_Int_Tables_number       1
_symmetry_cell_setting            triclinic
loop_
_symmetry_equiv_pos_as_xyz
  x,y,z
_cell_length_a                    31.9411
_cell_length_b                    30.2462
_cell_length_c                    29.6879
_cell_angle_alpha                 88.2462
_cell_angle_beta                  89.6687
_cell_angle_gamma                 89.5193
loop_
_atom_site_label
_atom_site_type_symbol
_atom_site_fract_x
_atom_site_fract_y
_atom_site_fract_z
_atom_site_U_iso_or_equiv
_atom_site_adp_type
_atom_site_occupancy
C1     C     0.08692   0.16677   0.25467   0.00000  Uiso   1.00
C2     C     0.24641   0.16657   0.24531   0.00000  Uiso   1.00
C3     C     0.09088   0.18763   0.02034   0.00000  Uiso   1.00
C4     C     0.24246   0.14574   0.47965   0.00000  Uiso   1.00
C5     C     0.02082   0.12656   0.26050   0.00000  Uiso   1.00
C6     C     0.31250   0.20680   0.23943   0.00000  Uiso   1.00
C7     C     0.31319   0.12573   0.24636   0.00000  Uiso   1.00
C8     C     0.02014   0.20763   0.25354   0.00000  Uiso   1.00
C9     C     0.29127   0.16615   0.24050   0.00000  Uiso   1.00
C10    C     0.04205   0.16720   0.25943   0.00000  Uiso   1.00
C11    C     0.17794   0.02263   0.28744   0.00000  Uiso   1.00
C12    C     0.15542   0.31070   0.21255   0.00000  Uiso   1.00
C13    C     0.15435   0.02486   0.21284   0.00000  Uiso   1.00
C14    C     0.17896   0.30847   0.28716   0.00000  Uiso   1.00
C15    C     0.16616   0.16732   0.16396   0.00000  Uiso   1.00
C16    C     0.16717   0.16602   0.33604   0.00000  Uiso   1.00
C17    C     0.20675   0.16165   0.40586   0.00000  Uiso   1.00
C18    C     0.12659   0.17171   0.09414   0.00000  Uiso   1.00
C19    C     0.16824   0.16451   0.38375   0.00000  Uiso   1.00
C20    C     0.16510   0.16883   0.11625   0.00000  Uiso   1.00
C21    C     0.13031   0.16740   0.40621   0.00000  Uiso   1.00
C22    C     0.20303   0.16592   0.09379   0.00000  Uiso   1.00
C23    C     0.13046   0.17506   0.45197   0.00000  Uiso   1.00
C24    C     0.20287   0.15828   0.04803   0.00000  Uiso   1.00
C25    C     0.16765   0.16655   0.47642   0.00000  Uiso   1.00
C26    C     0.16569   0.16680   0.02358   0.00000  Uiso   1.00
C27    C     0.20668   0.15847   0.45360   0.00000  Uiso   1.00
C28    C     0.12666   0.17489   0.04640   0.00000  Uiso   1.00
C29    C     0.09457   0.19135   0.47353   0.00000  Uiso   1.00
C30    C     0.23877   0.14200   0.02647   0.00000  Uiso   1.00
N31    N     0.16667   0.28573   0.25000   0.00000  Uiso   1.00
N32    N     0.16667   0.04760   0.25000   0.00000  Uiso   1.00
O33    O     0.10559   0.20487   0.24999   0.00000  Uiso   1.00
O34    O     0.22774   0.12846   0.25000   0.00000  Uiso   1.00
O35    O     0.22774   0.20487   0.25000   0.00000  Uiso   1.00
O36    O     0.10559   0.12846   0.24999   0.00000  Uiso   1.00
O37    O     0.16666   0.20489   0.18392   0.00000  Uiso   1.00
O38    O     0.16667   0.12844   0.31607   0.00000  Uiso   1.00
O39    O     0.16667   0.20489   0.31607   0.00000  Uiso   1.00
O40    O     0.16666   0.12844   0.18392   0.00000  Uiso   1.00
Zn41   Zn    0.16667   0.21771   0.25000   0.00000  Uiso   1.00
Zn42   Zn    0.16667   0.11563   0.25000   0.00000  Uiso   1.00
Br43   Br    0.25612   0.16254   0.36705   0.00000  Uiso   1.00
Br44   Br    0.07722   0.17088   0.13294   0.00000  Uiso   1.00
Br45   Br    0.07961   0.15120   0.37521   0.00000  Uiso   1.00
Br46   Br    0.25373   0.18209   0.12480   0.00000  Uiso   1.00
Br47   Br    0.05590   0.23025   0.44058   0.00000  Uiso   1.00
Br48   Br    0.27744   0.10309   0.05939   0.00000  Uiso   1.00
Br49   Br    0.03624   0.20361   0.04375   0.00000  Uiso   1.00
Br50   Br    0.29710   0.12978   0.45624   0.00000  Uiso   1.00
Br51   Br    0.04434   0.07252   0.28734   0.00000  Uiso   1.00
Br52   Br    0.28894   0.26083   0.21263   0.00000  Uiso   1.00
Br53   Br    0.29104   0.06904   0.22912   0.00000  Uiso   1.00
Br54   Br    0.04232   0.26435   0.27064   0.00000  Uiso   1.00
C55    C     0.18680   0.04362   0.33054   0.00000  Uiso   1.00
C56    C     0.22843   0.04819   0.34441   0.00000  Uiso   1.00
C57    C     0.23748   0.05319   0.38995   0.00000  Uiso   1.00
C58    C     0.20506   0.05540   0.42164   0.00000  Uiso   1.00
C59    C     0.16343   0.05361   0.40773   0.00000  Uiso   1.00
C60    C     0.15425   0.04730   0.36241   0.00000  Uiso   1.00
H61    H     0.25392   0.04408   0.32070   0.00000  Uiso   1.00
H62    H     0.26972   0.05424   0.40074   0.00000  Uiso   1.00
H63    H     0.21217   0.05863   0.45698   0.00000  Uiso   1.00
H64    H     0.13835   0.05559   0.43228   0.00000  Uiso   1.00
H65    H     0.12202   0.04275   0.35254   0.00000  Uiso   1.00
C66    C     0.14676   0.28973   0.16939   0.00000  Uiso   1.00
C67    C     0.10521   0.28518   0.15527   0.00000  Uiso   1.00
C68    C     0.09641   0.28017   0.10966   0.00000  Uiso   1.00
C69    C     0.12900   0.27793   0.07816   0.00000  Uiso   1.00
C70    C     0.17056   0.27971   0.09234   0.00000  Uiso   1.00
C71    C     0.17949   0.28604   0.13772   0.00000  Uiso   1.00
H72    H     0.07958   0.28930   0.17881   0.00000  Uiso   1.00
H73    H     0.06423   0.27915   0.09866   0.00000  Uiso   1.00
H74    H     0.12208   0.27468   0.04279   0.00000  Uiso   1.00
H75    H     0.19577   0.27771   0.06795   0.00000  Uiso   1.00
H76    H     0.21167   0.29058   0.14779   0.00000  Uiso   1.00
C77    C     0.13723   0.04811   0.17229   0.00000  Uiso   1.00
C78    C     0.09372   0.05400   0.16855   0.00000  Uiso   1.00
C79    C     0.07560   0.06312   0.12648   0.00000  Uiso   1.00
C80    C     0.10082   0.06742   0.08799   0.00000  Uiso   1.00
C81    C     0.14424   0.06291   0.09153   0.00000  Uiso   1.00
C82    C     0.16244   0.05320   0.13342   0.00000  Uiso   1.00
H83    H     0.07362   0.04827   0.19752   0.00000  Uiso   1.00
H84    H     0.04194   0.06640   0.12366   0.00000  Uiso   1.00
H85    H     0.08673   0.07450   0.05547   0.00000  Uiso   1.00
H86    H     0.16374   0.06612   0.06169   0.00000  Uiso   1.00
H87    H     0.19594   0.04773   0.13538   0.00000  Uiso   1.00
C88    C     0.19606   0.28522   0.32773   0.00000  Uiso   1.00
C89    C     0.17082   0.28015   0.36658   0.00000  Uiso   1.00
C90    C     0.18899   0.27046   0.40848   0.00000  Uiso   1.00
C91    C     0.23241   0.26597   0.41206   0.00000  Uiso   1.00
C92    C     0.25765   0.27025   0.37359   0.00000  Uiso   1.00
C93    C     0.23956   0.27932   0.33150   0.00000  Uiso   1.00
H94    H     0.13732   0.28562   0.36458   0.00000  Uiso   1.00
H95    H     0.16947   0.26727   0.43831   0.00000  Uiso   1.00
H96    H     0.24648   0.25892   0.44460   0.00000  Uiso   1.00
H97    H     0.29131   0.26697   0.37644   0.00000  Uiso   1.00
H98    H     0.25968   0.28503   0.30255   0.00000  Uiso   1.00
C99    C     0.42025   0.16677   0.25467   0.00000  Uiso   1.00
C100   C     0.57974   0.16657   0.24531   0.00000  Uiso   1.00
C101   C     0.42422   0.18763   0.02034   0.00000  Uiso   1.00
C102   C     0.57579   0.14574   0.47965   0.00000  Uiso   1.00
C103   C     0.35416   0.12656   0.26050   0.00000  Uiso   1.00
C104   C     0.64583   0.20680   0.23943   0.00000  Uiso   1.00
C105   C     0.64653   0.12573   0.24636   0.00000  Uiso   1.00
C106   C     0.35347   0.20763   0.25354   0.00000  Uiso   1.00
C107   C     0.62460   0.16615   0.24050   0.00000  Uiso   1.00
C108   C     0.37539   0.16720   0.25943   0.00000  Uiso   1.00
C109   C     0.51127   0.02263   0.28744   0.00000  Uiso   1.00
C110   C     0.48876   0.31070   0.21255   0.00000  Uiso   1.00
C111   C     0.48769   0.02486   0.21284   0.00000  Uiso   1.00
C112   C     0.51230   0.30847   0.28716   0.00000  Uiso   1.00
C113   C     0.49950   0.16732   0.16396   0.00000  Uiso   1.00
C114   C     0.50051   0.16602   0.33604   0.00000  Uiso   1.00
C115   C     0.54008   0.16165   0.40586   0.00000  Uiso   1.00
C116   C     0.45992   0.17171   0.09414   0.00000  Uiso   1.00
C117   C     0.50157   0.16451   0.38375   0.00000  Uiso   1.00
C118   C     0.49843   0.16883   0.11625   0.00000  Uiso   1.00
C119   C     0.46364   0.16740   0.40621   0.00000  Uiso   1.00
C120   C     0.53636   0.16592   0.09379   0.00000  Uiso   1.00
C121   C     0.46380   0.17506   0.45197   0.00000  Uiso   1.00
C122   C     0.53621   0.15828   0.04803   0.00000  Uiso   1.00
C123   C     0.50098   0.16655   0.47642   0.00000  Uiso   1.00
C124   C     0.49902   0.16680   0.02358   0.00000  Uiso   1.00
C125   C     0.54001   0.15847   0.45360   0.00000  Uiso   1.00
C126   C     0.45999   0.17489   0.04640   0.00000  Uiso   1.00
C127   C     0.42791   0.19135   0.47353   0.00000  Uiso   1.00
C128   C     0.57210   0.14200   0.02647   0.00000  Uiso   1.00
N129   N     0.50000   0.28573   0.25000   0.00000  Uiso   1.00
N130   N     0.50000   0.04760   0.25000   0.00000  Uiso   1.00
O131   O     0.43892   0.20487   0.24999   0.00000  Uiso   1.00
O132   O     0.56108   0.12846   0.25000   0.00000  Uiso   1.00
O133   O     0.56108   0.20487   0.25000   0.00000  Uiso   1.00
O134   O     0.43892   0.12846   0.24999   0.00000  Uiso   1.00
O135   O     0.49999   0.20489   0.18392   0.00000  Uiso   1.00
O136   O     0.50001   0.12844   0.31607   0.00000  Uiso   1.00
O137   O     0.50001   0.20489   0.31607   0.00000  Uiso   1.00
O138   O     0.49999   0.12844   0.18392   0.00000  Uiso   1.00
Zn139  Zn    0.50000   0.21771   0.25000   0.00000  Uiso   1.00
Zn140  Zn    0.50000   0.11563   0.25000   0.00000  Uiso   1.00
Br141  Br    0.58945   0.16254   0.36705   0.00000  Uiso   1.00
Br142  Br    0.41055   0.17088   0.13294   0.00000  Uiso   1.00
Br143  Br    0.41294   0.15120   0.37521   0.00000  Uiso   1.00
Br144  Br    0.58706   0.18209   0.12480   0.00000  Uiso   1.00
Br145  Br    0.38923   0.23025   0.44058   0.00000  Uiso   1.00
Br146  Br    0.61077   0.10309   0.05939   0.00000  Uiso   1.00
Br147  Br    0.36957   0.20361   0.04375   0.00000  Uiso   1.00
Br148  Br    0.63044   0.12978   0.45624   0.00000  Uiso   1.00
Br149  Br    0.37767   0.07252   0.28734   0.00000  Uiso   1.00
Br150  Br    0.62227   0.26083   0.21263   0.00000  Uiso   1.00
Br151  Br    0.62437   0.06904   0.22912   0.00000  Uiso   1.00
Br152  Br    0.37565   0.26435   0.27064   0.00000  Uiso   1.00
C153   C     0.52014   0.04362   0.33054   0.00000  Uiso   1.00
C154   C     0.56176   0.04819   0.34441   0.00000  Uiso   1.00
C155   C     0.57081   0.05319   0.38995   0.00000  Uiso   1.00
C156   C     0.53839   0.05540   0.42164   0.00000  Uiso   1.00
C157   C     0.49676   0.05361   0.40773   0.00000  Uiso   1.00
C158   C     0.48758   0.04730   0.36241   0.00000  Uiso   1.00
H159   H     0.58726   0.04408   0.32070   0.00000  Uiso   1.00
H160   H     0.60305   0.05424   0.40074   0.00000  Uiso   1.00
H161   H     0.54551   0.05863   0.45698   0.00000  Uiso   1.00
H162   H     0.47168   0.05559   0.43228   0.00000  Uiso   1.00
H163   H     0.45535   0.04275   0.35254   0.00000  Uiso   1.00
C164   C     0.48010   0.28973   0.16939   0.00000  Uiso   1.00
C165   C     0.43854   0.28518   0.15527   0.00000  Uiso   1.00
C166   C     0.42974   0.28017   0.10966   0.00000  Uiso   1.00
C167   C     0.46234   0.27793   0.07816   0.00000  Uiso   1.00
C168   C     0.50389   0.27971   0.09234   0.00000  Uiso   1.00
C169   C     0.51282   0.28604   0.13772   0.00000  Uiso   1.00
H170   H     0.41292   0.28930   0.17881   0.00000  Uiso   1.00
H171   H     0.39756   0.27915   0.09866   0.00000  Uiso   1.00
H172   H     0.45541   0.27468   0.04279   0.00000  Uiso   1.00
H173   H     0.52911   0.27771   0.06795   0.00000  Uiso   1.00
H174   H     0.54500   0.29058   0.14779   0.00000  Uiso   1.00
C175   C     0.47056   0.04811   0.17229   0.00000  Uiso   1.00
C176   C     0.42706   0.05400   0.16855   0.00000  Uiso   1.00
C177   C     0.40894   0.06312   0.12648   0.00000  Uiso   1.00
C178   C     0.43415   0.06742   0.08799   0.00000  Uiso   1.00
C179   C     0.47757   0.06291   0.09153   0.00000  Uiso   1.00
C180   C     0.49577   0.05320   0.13342   0.00000  Uiso   1.00
H181   H     0.40695   0.04827   0.19752   0.00000  Uiso   1.00
H182   H     0.37528   0.06640   0.12366   0.00000  Uiso   1.00
H183   H     0.42006   0.07450   0.05547   0.00000  Uiso   1.00
H184   H     0.49707   0.06612   0.06169   0.00000  Uiso   1.00
H185   H     0.52928   0.04773   0.13538   0.00000  Uiso   1.00
C186   C     0.52939   0.28522   0.32773   0.00000  Uiso   1.00
C187   C     0.50415   0.28015   0.36658   0.00000  Uiso   1.00
C188   C     0.52232   0.27046   0.40848   0.00000  Uiso   1.00
C189   C     0.56574   0.26597   0.41206   0.00000  Uiso   1.00
C190   C     0.59098   0.27025   0.37359   0.00000  Uiso   1.00
C191   C     0.57289   0.27932   0.33150   0.00000  Uiso   1.00
H192   H     0.47065   0.28562   0.36458   0.00000  Uiso   1.00
H193   H     0.50280   0.26727   0.43831   0.00000  Uiso   1.00
H194   H     0.57981   0.25892   0.44460   0.00000  Uiso   1.00
H195   H     0.62464   0.26697   0.37644   0.00000  Uiso   1.00
H196   H     0.59301   0.28503   0.30255   0.00000  Uiso   1.00
C197   C     0.75358   0.16677   0.25467   0.00000  Uiso   1.00
C198   C     0.91308   0.16657   0.24531   0.00000  Uiso   1.00
C199   C     0.75755   0.18763   0.02034   0.00000  Uiso   1.00
C200   C     0.90913   0.14574   0.47965   0.00000  Uiso   1.00
C201   C     0.68749   0.12656   0.26050   0.00000  Uiso   1.00
C202   C     0.97916   0.20680   0.23943   0.00000  Uiso   1.00
C203   C     0.97986   0.12573   0.24636   0.00000  Uiso   1.00
C204   C     0.68680   0.20763   0.25354   0.00000  Uiso   1.00
C205   C     0.95794   0.16615   0.24050   0.00000  Uiso   1.00
C206   C     0.70872   0.16720   0.25943   0.00000  Uiso   1.00
C207   C     0.84460   0.02263   0.28744   0.00000  Uiso   1.00
C208   C     0.82209   0.31070   0.21255   0.00000  Uiso   1.00
C209   C     0.82102   0.02486   0.21284   0.00000  Uiso   1.00
C210   C     0.84563   0.30847   0.28716   0.00000  Uiso   1.00
C211   C     0.83283   0.16732   0.16396   0.00000  Uiso   1.00
C212   C     0.83384   0.16602   0.33604   0.00000  Uiso   1.00
C213   C     0.87341   0.16165   0.40586   0.00000  Uiso   1.00
C214   C     0.79326   0.17171   0.09414   0.00000  Uiso   1.00
C215   C     0.83491   0.16451   0.38375   0.00000  Uiso   1.00
C216   C     0.83176   0.16883   0.11625   0.00000  Uiso   1.00
C217   C     0.79698   0.16740   0.40621   0.00000  Uiso   1.00
C218   C     0.86969   0.16592   0.09379   0.00000  Uiso   1.00
C219   C     0.79713   0.17506   0.45197   0.00000  Uiso   1.00
C220   C     0.86954   0.15828   0.04803   0.00000  Uiso   1.00
C221   C     0.83431   0.16655   0.47642   0.00000  Uiso   1.00
C222   C     0.83236   0.16680   0.02358   0.00000  Uiso   1.00
C223   C     0.87335   0.15847   0.45360   0.00000  Uiso   1.00
C224   C     0.79332   0.17489   0.04640   0.00000  Uiso   1.00
C225   C     0.76124   0.19135   0.47353   0.00000  Uiso   1.00
C226   C     0.90543   0.14200   0.02647   0.00000  Uiso   1.00
N227   N     0.83333   0.28573   0.25000   0.00000  Uiso   1.00
N228   N     0.83333   0.04760   0.25000   0.00000  Uiso   1.00
O229   O     0.77226   0.20487   0.24999   0.00000  Uiso   1.00
O230   O     0.89441   0.12846   0.25000   0.00000  Uiso   1.00
O231   O     0.89441   0.20487   0.25000   0.00000  Uiso   1.00
O232   O     0.77226   0.12846   0.24999   0.00000  Uiso   1.00
O233   O     0.83333   0.20489   0.18392   0.00000  Uiso   1.00
O234   O     0.83334   0.12844   0.31607   0.00000  Uiso   1.00
O235   O     0.83334   0.20489   0.31607   0.00000  Uiso   1.00
O236   O     0.83333   0.12844   0.18392   0.00000  Uiso   1.00
Zn237  Zn    0.83333   0.21771   0.25000   0.00000  Uiso   1.00
Zn238  Zn    0.83333   0.11563   0.25000   0.00000  Uiso   1.00
Br239  Br    0.92278   0.16254   0.36705   0.00000  Uiso   1.00
Br240  Br    0.74389   0.17088   0.13294   0.00000  Uiso   1.00
Br241  Br    0.74627   0.15120   0.37521   0.00000  Uiso   1.00
Br242  Br    0.92040   0.18209   0.12480   0.00000  Uiso   1.00
Br243  Br    0.72257   0.23025   0.44058   0.00000  Uiso   1.00
Br244  Br    0.94411   0.10309   0.05939   0.00000  Uiso   1.00
Br245  Br    0.70291   0.20361   0.04375   0.00000  Uiso   1.00
Br246  Br    0.96377   0.12978   0.45624   0.00000  Uiso   1.00
Br247  Br    0.71101   0.07252   0.28734   0.00000  Uiso   1.00
Br248  Br    0.95561   0.26083   0.21263   0.00000  Uiso   1.00
Br249  Br    0.95771   0.06904   0.22912   0.00000  Uiso   1.00
Br250  Br    0.70899   0.26435   0.27064   0.00000  Uiso   1.00
C251   C     0.85347   0.04362   0.33054   0.00000  Uiso   1.00
C252   C     0.89510   0.04819   0.34441   0.00000  Uiso   1.00
C253   C     0.90414   0.05319   0.38995   0.00000  Uiso   1.00
C254   C     0.87172   0.05540   0.42164   0.00000  Uiso   1.00
C255   C     0.83010   0.05361   0.40773   0.00000  Uiso   1.00
C256   C     0.82092   0.04730   0.36241   0.00000  Uiso   1.00
H257   H     0.92059   0.04408   0.32070   0.00000  Uiso   1.00
H258   H     0.93638   0.05424   0.40074   0.00000  Uiso   1.00
H259   H     0.87884   0.05863   0.45698   0.00000  Uiso   1.00
H260   H     0.80502   0.05559   0.43228   0.00000  Uiso   1.00
H261   H     0.78869   0.04275   0.35254   0.00000  Uiso   1.00
C262   C     0.81343   0.28973   0.16939   0.00000  Uiso   1.00
C263   C     0.77187   0.28518   0.15527   0.00000  Uiso   1.00
C264   C     0.76308   0.28017   0.10966   0.00000  Uiso   1.00
C265   C     0.79567   0.27793   0.07816   0.00000  Uiso   1.00
C266   C     0.83722   0.27971   0.09234   0.00000  Uiso   1.00
C267   C     0.84616   0.28604   0.13772   0.00000  Uiso   1.00
H268   H     0.74625   0.28930   0.17881   0.00000  Uiso   1.00
H269   H     0.73089   0.27915   0.09866   0.00000  Uiso   1.00
H270   H     0.78875   0.27468   0.04279   0.00000  Uiso   1.00
H271   H     0.86244   0.27771   0.06795   0.00000  Uiso   1.00
H272   H     0.87833   0.29058   0.14779   0.00000  Uiso   1.00
C273   C     0.80390   0.04811   0.17229   0.00000  Uiso   1.00
C274   C     0.76039   0.05400   0.16855   0.00000  Uiso   1.00
C275   C     0.74227   0.06312   0.12648   0.00000  Uiso   1.00
C276   C     0.76748   0.06742   0.08799   0.00000  Uiso   1.00
C277   C     0.81091   0.06291   0.09153   0.00000  Uiso   1.00
C278   C     0.82910   0.05320   0.13342   0.00000  Uiso   1.00
H279   H     0.74029   0.04827   0.19752   0.00000  Uiso   1.00
H280   H     0.70861   0.06640   0.12366   0.00000  Uiso   1.00
H281   H     0.75339   0.07450   0.05547   0.00000  Uiso   1.00
H282   H     0.83040   0.06612   0.06169   0.00000  Uiso   1.00
H283   H     0.86261   0.04773   0.13538   0.00000  Uiso   1.00
C284   C     0.86272   0.28522   0.32773   0.00000  Uiso   1.00
C285   C     0.83749   0.28015   0.36658   0.00000  Uiso   1.00
C286   C     0.85566   0.27046   0.40848   0.00000  Uiso   1.00
C287   C     0.89908   0.26597   0.41206   0.00000  Uiso   1.00
C288   C     0.92431   0.27025   0.37359   0.00000  Uiso   1.00
C289   C     0.90623   0.27932   0.33150   0.00000  Uiso   1.00
H290   H     0.80398   0.28562   0.36458   0.00000  Uiso   1.00
H291   H     0.83614   0.26727   0.43831   0.00000  Uiso   1.00
H292   H     0.91314   0.25892   0.44460   0.00000  Uiso   1.00
H293   H     0.95797   0.26697   0.37644   0.00000  Uiso   1.00
H294   H     0.92635   0.28503   0.30255   0.00000  Uiso   1.00
C295   C     0.08692   0.50010   0.25467   0.00000  Uiso   1.00
C296   C     0.24641   0.49990   0.24531   0.00000  Uiso   1.00
C297   C     0.09088   0.52096   0.02034   0.00000  Uiso   1.00
C298   C     0.24246   0.47908   0.47965   0.00000  Uiso   1.00
C299   C     0.02082   0.45989   0.26050   0.00000  Uiso   1.00
C300   C     0.31250   0.54013   0.23943   0.00000  Uiso   1.00
C301   C     0.31319   0.45906   0.24636   0.00000  Uiso   1.00
C302   C     0.02014   0.54096   0.25354   0.00000  Uiso   1.00
C303   C     0.29127   0.49949   0.24050   0.00000  Uiso   1.00
C304   C     0.04205   0.50053   0.25943   0.00000  Uiso   1.00
C305   C     0.17794   0.35597   0.28744   0.00000  Uiso   1.00
C306   C     0.15542   0.64404   0.21255   0.00000  Uiso   1.00
C307   C     0.15435   0.35820   0.21284   0.00000  Uiso   1.00
C308   C     0.17896   0.64180   0.28716   0.00000  Uiso   1.00
C309   C     0.16616   0.50065   0.16396   0.00000  Uiso   1.00
C310   C     0.16717   0.49935   0.33604   0.00000  Uiso   1.00
C311   C     0.20675   0.49499   0.40586   0.00000  Uiso   1.00
C312   C     0.12659   0.50504   0.09414   0.00000  Uiso   1.00
C313   C     0.16824   0.49784   0.38375   0.00000  Uiso   1.00
C314   C     0.16510   0.50216   0.11625   0.00000  Uiso   1.00
C315   C     0.13031   0.50073   0.40621   0.00000  Uiso   1.00
C316   C     0.20303   0.49925   0.09379   0.00000  Uiso   1.00
C317   C     0.13046   0.50840   0.45197   0.00000  Uiso   1.00
C318   C     0.20287   0.49161   0.04803   0.00000  Uiso   1.00
C319   C     0.16765   0.49988   0.47642   0.00000  Uiso   1.00
C320   C     0.16569   0.50014   0.02358   0.00000  Uiso   1.00
C321   C     0.20668   0.49181   0.45360   0.00000  Uiso   1.00
C322   C     0.12666   0.50822   0.04640   0.00000  Uiso   1.00
C323   C     0.09457   0.52468   0.47353   0.00000  Uiso   1.00
C324   C     0.23877   0.47534   0.02647   0.00000  Uiso   1.00
N325   N     0.16667   0.61907   0.25000   0.00000  Uiso   1.00
N326   N     0.16667   0.38093   0.25000   0.00000  Uiso   1.00
O327   O     0.10559   0.53821   0.24999   0.00000  Uiso   1.00
O328   O     0.22774   0.46179   0.25000   0.00000  Uiso   1.00
O329   O     0.22774   0.53821   0.25000   0.00000  Uiso   1.00
O330   O     0.10559   0.46179   0.24999   0.00000  Uiso   1.00
O331   O     0.16666   0.53823   0.18392   0.00000  Uiso   1.00
O332   O     0.16667   0.46177   0.31607   0.00000  Uiso   1.00
O333   O     0.16667   0.53823   0.31607   0.00000  Uiso   1.00
O334   O     0.16666   0.46177   0.18392   0.00000  Uiso   1.00
Zn335  Zn    0.16667   0.55104   0.25000   0.00000  Uiso   1.00
Zn336  Zn    0.16667   0.44896   0.25000   0.00000  Uiso   1.00
Br337  Br    0.25612   0.49587   0.36705   0.00000  Uiso   1.00
Br338  Br    0.07722   0.50422   0.13294   0.00000  Uiso   1.00
Br339  Br    0.07961   0.48454   0.37521   0.00000  Uiso   1.00
Br340  Br    0.25373   0.51543   0.12480   0.00000  Uiso   1.00
Br341  Br    0.05590   0.56358   0.44058   0.00000  Uiso   1.00
Br342  Br    0.27744   0.43642   0.05939   0.00000  Uiso   1.00
Br343  Br    0.03624   0.53694   0.04375   0.00000  Uiso   1.00
Br344  Br    0.29710   0.46311   0.45624   0.00000  Uiso   1.00
Br345  Br    0.04434   0.40586   0.28734   0.00000  Uiso   1.00
Br346  Br    0.28894   0.59417   0.21263   0.00000  Uiso   1.00
Br347  Br    0.29104   0.40238   0.22912   0.00000  Uiso   1.00
Br348  Br    0.04232   0.59768   0.27064   0.00000  Uiso   1.00
C349   C     0.18680   0.37696   0.33054   0.00000  Uiso   1.00
C350   C     0.22843   0.38153   0.34441   0.00000  Uiso   1.00
C351   C     0.23748   0.38653   0.38995   0.00000  Uiso   1.00
C352   C     0.20506   0.38873   0.42164   0.00000  Uiso   1.00
C353   C     0.16343   0.38695   0.40773   0.00000  Uiso   1.00
C354   C     0.15425   0.38064   0.36241   0.00000  Uiso   1.00
H355   H     0.25392   0.37741   0.32070   0.00000  Uiso   1.00
H356   H     0.26972   0.38757   0.40074   0.00000  Uiso   1.00
H357   H     0.21217   0.39196   0.45698   0.00000  Uiso   1.00
H358   H     0.13835   0.38892   0.43228   0.00000  Uiso   1.00
H359   H     0.12202   0.37608   0.35254   0.00000  Uiso   1.00
C360   C     0.14676   0.62307   0.16939   0.00000  Uiso   1.00
C361   C     0.10521   0.61851   0.15527   0.00000  Uiso   1.00
C362   C     0.09641   0.61351   0.10966   0.00000  Uiso   1.00
C363   C     0.12900   0.61126   0.07816   0.00000  Uiso   1.00
C364   C     0.17056   0.61305   0.09234   0.00000  Uiso   1.00
C365   C     0.17949   0.61937   0.13772   0.00000  Uiso   1.00
H366   H     0.07958   0.62264   0.17881   0.00000  Uiso   1.00
H367   H     0.06423   0.61249   0.09866   0.00000  Uiso   1.00
H368   H     0.12208   0.60801   0.04279   0.00000  Uiso   1.00
H369   H     0.19577   0.61105   0.06795   0.00000  Uiso   1.00
H370   H     0.21167   0.62392   0.14779   0.00000  Uiso   1.00
C371   C     0.13723   0.38145   0.17229   0.00000  Uiso   1.00
C372   C     0.09372   0.38734   0.16855   0.00000  Uiso   1.00
C373   C     0.07560   0.39645   0.12648   0.00000  Uiso   1.00
C374   C     0.10082   0.40076   0.08799   0.00000  Uiso   1.00
C375   C     0.14424   0.39625   0.09153   0.00000  Uiso   1.00
C376   C     0.16244   0.38653   0.13342   0.00000  Uiso   1.00
H377   H     0.07362   0.38161   0.19752   0.00000  Uiso   1.00
H378   H     0.04194   0.39974   0.12366   0.00000  Uiso   1.00
H379   H     0.08673   0.40783   0.05547   0.00000  Uiso   1.00
H380   H     0.16374   0.39945   0.06169   0.00000  Uiso   1.00
H381   H     0.19594   0.38106   0.13538   0.00000  Uiso   1.00
C382   C     0.19606   0.61855   0.32773   0.00000  Uiso   1.00
C383   C     0.17082   0.61348   0.36658   0.00000  Uiso   1.00
C384   C     0.18899   0.60379   0.40848   0.00000  Uiso   1.00
C385   C     0.23241   0.59930   0.41206   0.00000  Uiso   1.00
C386   C     0.25765   0.60358   0.37359   0.00000  Uiso   1.00
C387   C     0.23956   0.61266   0.33150   0.00000  Uiso   1.00
H388   H     0.13732   0.61896   0.36458   0.00000  Uiso   1.00
H389   H     0.16947   0.60061   0.43831   0.00000  Uiso   1.00
H390   H     0.24648   0.59225   0.44460   0.00000  Uiso   1.00
H391   H     0.29131   0.60030   0.37644   0.00000  Uiso   1.00
H392   H     0.25968   0.61836   0.30255   0.00000  Uiso   1.00
C393   C     0.42025   0.50010   0.25467   0.00000  Uiso   1.00
C394   C     0.57974   0.49990   0.24531   0.00000  Uiso   1.00
C395   C     0.42422   0.52096   0.02034   0.00000  Uiso   1.00
C396   C     0.57579   0.47908   0.47965   0.00000  Uiso   1.00
C397   C     0.35416   0.45989   0.26050   0.00000  Uiso   1.00
C398   C     0.64583   0.54013   0.23943   0.00000  Uiso   1.00
C399   C     0.64653   0.45906   0.24636   0.00000  Uiso   1.00
C400   C     0.35347   0.54096   0.25354   0.00000  Uiso   1.00
C401   C     0.62460   0.49949   0.24050   0.00000  Uiso   1.00
C402   C     0.37539   0.50053   0.25943   0.00000  Uiso   1.00
C403   C     0.51127   0.35597   0.28744   0.00000  Uiso   1.00
C404   C     0.48876   0.64404   0.21255   0.00000  Uiso   1.00
C405   C     0.48769   0.35820   0.21284   0.00000  Uiso   1.00
C406   C     0.51230   0.64180   0.28716   0.00000  Uiso   1.00
C407   C     0.49950   0.50065   0.16396   0.00000  Uiso   1.00
C408   C     0.50051   0.49935   0.33604   0.00000  Uiso   1.00
C409   C     0.54008   0.49499   0.40586   0.00000  Uiso   1.00
C410   C     0.45992   0.50504   0.09414   0.00000  Uiso   1.00
C411   C     0.50157   0.49784   0.38375   0.00000  Uiso   1.00
C412   C     0.49843   0.50216   0.11625   0.00000  Uiso   1.00
C413   C     0.46364   0.50073   0.40621   0.00000  Uiso   1.00
C414   C     0.53636   0.49925   0.09379   0.00000  Uiso   1.00
C415   C     0.46380   0.50840   0.45197   0.00000  Uiso   1.00
C416   C     0.53621   0.49161   0.04803   0.00000  Uiso   1.00
C417   C     0.50098   0.49988   0.47642   0.00000  Uiso   1.00
C418   C     0.49902   0.50014   0.02358   0.00000  Uiso   1.00
C419   C     0.54001   0.49181   0.45360   0.00000  Uiso   1.00
C420   C     0.45999   0.50822   0.04640   0.00000  Uiso   1.00
C421   C     0.42791   0.52468   0.47353   0.00000  Uiso   1.00
C422   C     0.57210   0.47534   0.02647   0.00000  Uiso   1.00
N423   N     0.50000   0.61907   0.25000   0.00000  Uiso   1.00
N424   N     0.50000   0.38093   0.25000   0.00000  Uiso   1.00
O425   O     0.43892   0.53821   0.24999   0.00000  Uiso   1.00
O426   O     0.56108   0.46179   0.25000   0.00000  Uiso   1.00
O427   O     0.56108   0.53821   0.25000   0.00000  Uiso   1.00
O428   O     0.43892   0.46179   0.24999   0.00000  Uiso   1.00
O429   O     0.49999   0.53823   0.18392   0.00000  Uiso   1.00
O430   O     0.50001   0.46177   0.31607   0.00000  Uiso   1.00
O431   O     0.50001   0.53823   0.31607   0.00000  Uiso   1.00
O432   O     0.49999   0.46177   0.18392   0.00000  Uiso   1.00
Zn433  Zn    0.50000   0.55104   0.25000   0.00000  Uiso   1.00
Zn434  Zn    0.50000   0.44896   0.25000   0.00000  Uiso   1.00
Br435  Br    0.58945   0.49587   0.36705   0.00000  Uiso   1.00
Br436  Br    0.41055   0.50422   0.13294   0.00000  Uiso   1.00
Br437  Br    0.41294   0.48454   0.37521   0.00000  Uiso   1.00
Br438  Br    0.58706   0.51543   0.12480   0.00000  Uiso   1.00
Br439  Br    0.38923   0.56358   0.44058   0.00000  Uiso   1.00
Br440  Br    0.61077   0.43642   0.05939   0.00000  Uiso   1.00
Br441  Br    0.36957   0.53694   0.04375   0.00000  Uiso   1.00
Br442  Br    0.63044   0.46311   0.45624   0.00000  Uiso   1.00
Br443  Br    0.37767   0.40586   0.28734   0.00000  Uiso   1.00
Br444  Br    0.62227   0.59417   0.21263   0.00000  Uiso   1.00
Br445  Br    0.62437   0.40238   0.22912   0.00000  Uiso   1.00
Br446  Br    0.37565   0.59768   0.27064   0.00000  Uiso   1.00
C447   C     0.52014   0.37696   0.33054   0.00000  Uiso   1.00
C448   C     0.56176   0.38153   0.34441   0.00000  Uiso   1.00
C449   C     0.57081   0.38653   0.38995   0.00000  Uiso   1.00
C450   C     0.53839   0.38873   0.42164   0.00000  Uiso   1.00
C451   C     0.49676   0.38695   0.40773   0.00000  Uiso   1.00
C452   C     0.48758   0.38064   0.36241   0.00000  Uiso   1.00
H453   H     0.58726   0.37741   0.32070   0.00000  Uiso   1.00
H454   H     0.60305   0.38757   0.40074   0.00000  Uiso   1.00
H455   H     0.54551   0.39196   0.45698   0.00000  Uiso   1.00
H456   H     0.47168   0.38892   0.43228   0.00000  Uiso   1.00
H457   H     0.45535   0.37608   0.35254   0.00000  Uiso   1.00
C458   C     0.48010   0.62307   0.16939   0.00000  Uiso   1.00
C459   C     0.43854   0.61851   0.15527   0.00000  Uiso   1.00
C460   C     0.42974   0.61351   0.10966   0.00000  Uiso   1.00
C461   C     0.46234   0.61126   0.07816   0.00000  Uiso   1.00
C462   C     0.50389   0.61305   0.09234   0.00000  Uiso   1.00
C463   C     0.51282   0.61937   0.13772   0.00000  Uiso   1.00
H464   H     0.41292   0.62264   0.17881   0.00000  Uiso   1.00
H465   H     0.39756   0.61249   0.09866   0.00000  Uiso   1.00
H466   H     0.45541   0.60801   0.04279   0.00000  Uiso   1.00
H467   H     0.52911   0.61105   0.06795   0.00000  Uiso   1.00
H468   H     0.54500   0.62392   0.14779   0.00000  Uiso   1.00
C469   C     0.47056   0.38145   0.17229   0.00000  Uiso   1.00
C470   C     0.42706   0.38734   0.16855   0.00000  Uiso   1.00
C471   C     0.40894   0.39645   0.12648   0.00000  Uiso   1.00
C472   C     0.43415   0.40076   0.08799   0.00000  Uiso   1.00
C473   C     0.47757   0.39625   0.09153   0.00000  Uiso   1.00
C474   C     0.49577   0.38653   0.13342   0.00000  Uiso   1.00
H475   H     0.40695   0.38161   0.19752   0.00000  Uiso   1.00
H476   H     0.37528   0.39974   0.12366   0.00000  Uiso   1.00
H477   H     0.42006   0.40783   0.05547   0.00000  Uiso   1.00
H478   H     0.49707   0.39945   0.06169   0.00000  Uiso   1.00
H479   H     0.52928   0.38106   0.13538   0.00000  Uiso   1.00
C480   C     0.52939   0.61855   0.32773   0.00000  Uiso   1.00
C481   C     0.50415   0.61348   0.36658   0.00000  Uiso   1.00
C482   C     0.52232   0.60379   0.40848   0.00000  Uiso   1.00
C483   C     0.56574   0.59930   0.41206   0.00000  Uiso   1.00
C484   C     0.59098   0.60358   0.37359   0.00000  Uiso   1.00
C485   C     0.57289   0.61266   0.33150   0.00000  Uiso   1.00
H486   H     0.47065   0.61896   0.36458   0.00000  Uiso   1.00
H487   H     0.50280   0.60061   0.43831   0.00000  Uiso   1.00
H488   H     0.57981   0.59225   0.44460   0.00000  Uiso   1.00
H489   H     0.62464   0.60030   0.37644   0.00000  Uiso   1.00
H490   H     0.59301   0.61836   0.30255   0.00000  Uiso   1.00
C491   C     0.75358   0.50010   0.25467   0.00000  Uiso   1.00
C492   C     0.91308   0.49990   0.24531   0.00000  Uiso   1.00
C493   C     0.75755   0.52096   0.02034   0.00000  Uiso   1.00
C494   C     0.90913   0.47908   0.47965   0.00000  Uiso   1.00
C495   C     0.68749   0.45989   0.26050   0.00000  Uiso   1.00
C496   C     0.97916   0.54013   0.23943   0.00000  Uiso   1.00
C497   C     0.97986   0.45906   0.24636   0.00000  Uiso   1.00
C498   C     0.68680   0.54096   0.25354   0.00000  Uiso   1.00
C499   C     0.95794   0.49949   0.24050   0.00000  Uiso   1.00
C500   C     0.70872   0.50053   0.25943   0.00000  Uiso   1.00
C501   C     0.84460   0.35597   0.28744   0.00000  Uiso   1.00
C502   C     0.82209   0.64404   0.21255   0.00000  Uiso   1.00
C503   C     0.82102   0.35820   0.21284   0.00000  Uiso   1.00
C504   C     0.84563   0.64180   0.28716   0.00000  Uiso   1.00
C505   C     0.83283   0.50065   0.16396   0.00000  Uiso   1.00
C506   C     0.83384   0.49935   0.33604   0.00000  Uiso   1.00
C507   C     0.87341   0.49499   0.40586   0.00000  Uiso   1.00
C508   C     0.79326   0.50504   0.09414   0.00000  Uiso   1.00
C509   C     0.83491   0.49784   0.38375   0.00000  Uiso   1.00
C510   C     0.83176   0.50216   0.11625   0.00000  Uiso   1.00
C511   C     0.79698   0.50073   0.40621   0.00000  Uiso   1.00
C512   C     0.86969   0.49925   0.09379   0.00000  Uiso   1.00
C513   C     0.79713   0.50840   0.45197   0.00000  Uiso   1.00
C514   C     0.86954   0.49161   0.04803   0.00000  Uiso   1.00
C515   C     0.83431   0.49988   0.47642   0.00000  Uiso   1.00
C516   C     0.83236   0.50014   0.02358   0.00000  Uiso   1.00
C517   C     0.87335   0.49181   0.45360   0.00000  Uiso   1.00
C518   C     0.79332   0.50822   0.04640   0.00000  Uiso   1.00
C519   C     0.76124   0.52468   0.47353   0.00000  Uiso   1.00
C520   C     0.90543   0.47534   0.02647   0.00000  Uiso   1.00
N521   N     0.83333   0.61907   0.25000   0.00000  Uiso   1.00
N522   N     0.83333   0.38093   0.25000   0.00000  Uiso   1.00
O523   O     0.77226   0.53821   0.24999   0.00000  Uiso   1.00
O524   O     0.89441   0.46179   0.25000   0.00000  Uiso   1.00
O525   O     0.89441   0.53821   0.25000   0.00000  Uiso   1.00
O526   O     0.77226   0.46179   0.24999   0.00000  Uiso   1.00
O527   O     0.83333   0.53823   0.18392   0.00000  Uiso   1.00
O528   O     0.83334   0.46177   0.31607   0.00000  Uiso   1.00
O529   O     0.83334   0.53823   0.31607   0.00000  Uiso   1.00
O530   O     0.83333   0.46177   0.18392   0.00000  Uiso   1.00
Zn531  Zn    0.83333   0.55104   0.25000   0.00000  Uiso   1.00
Zn532  Zn    0.83333   0.44896   0.25000   0.00000  Uiso   1.00
Br533  Br    0.92278   0.49587   0.36705   0.00000  Uiso   1.00
Br534  Br    0.74389   0.50422   0.13294   0.00000  Uiso   1.00
Br535  Br    0.74627   0.48454   0.37521   0.00000  Uiso   1.00
Br536  Br    0.92040   0.51543   0.12480   0.00000  Uiso   1.00
Br537  Br    0.72257   0.56358   0.44058   0.00000  Uiso   1.00
Br538  Br    0.94411   0.43642   0.05939   0.00000  Uiso   1.00
Br539  Br    0.70291   0.53694   0.04375   0.00000  Uiso   1.00
Br540  Br    0.96377   0.46311   0.45624   0.00000  Uiso   1.00
Br541  Br    0.71101   0.40586   0.28734   0.00000  Uiso   1.00
Br542  Br    0.95561   0.59417   0.21263   0.00000  Uiso   1.00
Br543  Br    0.95771   0.40238   0.22912   0.00000  Uiso   1.00
Br544  Br    0.70899   0.59768   0.27064   0.00000  Uiso   1.00
C545   C     0.85347   0.37696   0.33054   0.00000  Uiso   1.00
C546   C     0.89510   0.38153   0.34441   0.00000  Uiso   1.00
C547   C     0.90414   0.38653   0.38995   0.00000  Uiso   1.00
C548   C     0.87172   0.38873   0.42164   0.00000  Uiso   1.00
C549   C     0.83010   0.38695   0.40773   0.00000  Uiso   1.00
C550   C     0.82092   0.38064   0.36241   0.00000  Uiso   1.00
H551   H     0.92059   0.37741   0.32070   0.00000  Uiso   1.00
H552   H     0.93638   0.38757   0.40074   0.00000  Uiso   1.00
H553   H     0.87884   0.39196   0.45698   0.00000  Uiso   1.00
H554   H     0.80502   0.38892   0.43228   0.00000  Uiso   1.00
H555   H     0.78869   0.37608   0.35254   0.00000  Uiso   1.00
C556   C     0.81343   0.62307   0.16939   0.00000  Uiso   1.00
C557   C     0.77187   0.61851   0.15527   0.00000  Uiso   1.00
C558   C     0.76308   0.61351   0.10966   0.00000  Uiso   1.00
C559   C     0.79567   0.61126   0.07816   0.00000  Uiso   1.00
C560   C     0.83722   0.61305   0.09234   0.00000  Uiso   1.00
C561   C     0.84616   0.61937   0.13772   0.00000  Uiso   1.00
H562   H     0.74625   0.62264   0.17881   0.00000  Uiso   1.00
H563   H     0.73089   0.61249   0.09866   0.00000  Uiso   1.00
H564   H     0.78875   0.60801   0.04279   0.00000  Uiso   1.00
H565   H     0.86244   0.61105   0.06795   0.00000  Uiso   1.00
H566   H     0.87833   0.62392   0.14779   0.00000  Uiso   1.00
C567   C     0.80390   0.38145   0.17229   0.00000  Uiso   1.00
C568   C     0.76039   0.38734   0.16855   0.00000  Uiso   1.00
C569   C     0.74227   0.39645   0.12648   0.00000  Uiso   1.00
C570   C     0.76748   0.40076   0.08799   0.00000  Uiso   1.00
C571   C     0.81091   0.39625   0.09153   0.00000  Uiso   1.00
C572   C     0.82910   0.38653   0.13342   0.00000  Uiso   1.00
H573   H     0.74029   0.38161   0.19752   0.00000  Uiso   1.00
H574   H     0.70861   0.39974   0.12366   0.00000  Uiso   1.00
H575   H     0.75339   0.40783   0.05547   0.00000  Uiso   1.00
H576   H     0.83040   0.39945   0.06169   0.00000  Uiso   1.00
H577   H     0.86261   0.38106   0.13538   0.00000  Uiso   1.00
C578   C     0.86272   0.61855   0.32773   0.00000  Uiso   1.00
C579   C     0.83749   0.61348   0.36658   0.00000  Uiso   1.00
C580   C     0.85566   0.60379   0.40848   0.00000  Uiso   1.00
C581   C     0.89908   0.59930   0.41206   0.00000  Uiso   1.00
C582   C     0.92431   0.60358   0.37359   0.00000  Uiso   1.00
C583   C     0.90623   0.61266   0.33150   0.00000  Uiso   1.00
H584   H     0.80398   0.61896   0.36458   0.00000  Uiso   1.00
H585   H     0.83614   0.60061   0.43831   0.00000  Uiso   1.00
H586   H     0.91314   0.59225   0.44460   0.00000  Uiso   1.00
H587   H     0.95797   0.60030   0.37644   0.00000  Uiso   1.00
H588   H     0.92635   0.61836   0.30255   0.00000  Uiso   1.00
C589   C     0.08692   0.83343   0.25467   0.00000  Uiso   1.00
C590   C     0.24641   0.83324   0.24531   0.00000  Uiso   1.00
C591   C     0.09088   0.85429   0.02034   0.00000  Uiso   1.00
C592   C     0.24246   0.81241   0.47965   0.00000  Uiso   1.00
C593   C     0.02082   0.79322   0.26050   0.00000  Uiso   1.00
C594   C     0.31250   0.87346   0.23943   0.00000  Uiso   1.00
C595   C     0.31319   0.79240   0.24636   0.00000  Uiso   1.00
C596   C     0.02014   0.87429   0.25354   0.00000  Uiso   1.00
C597   C     0.29127   0.83282   0.24050   0.00000  Uiso   1.00
C598   C     0.04205   0.83386   0.25943   0.00000  Uiso   1.00
C599   C     0.17794   0.68930   0.28744   0.00000  Uiso   1.00
C600   C     0.15542   0.97737   0.21255   0.00000  Uiso   1.00
C601   C     0.15435   0.69153   0.21284   0.00000  Uiso   1.00
C602   C     0.17896   0.97514   0.28716   0.00000  Uiso   1.00
C603   C     0.16616   0.83398   0.16396   0.00000  Uiso   1.00
C604   C     0.16717   0.83268   0.33604   0.00000  Uiso   1.00
C605   C     0.20675   0.82832   0.40586   0.00000  Uiso   1.00
C606   C     0.12659   0.83838   0.09414   0.00000  Uiso   1.00
C607   C     0.16824   0.83117   0.38375   0.00000  Uiso   1.00
C608   C     0.16510   0.83549   0.11625   0.00000  Uiso   1.00
C609   C     0.13031   0.83407   0.40621   0.00000  Uiso   1.00
C610   C     0.20303   0.83259   0.09379   0.00000  Uiso   1.00
C611   C     0.13046   0.84173   0.45197   0.00000  Uiso   1.00
C612   C     0.20287   0.82494   0.04803   0.00000  Uiso   1.00
C613   C     0.16765   0.83321   0.47642   0.00000  Uiso   1.00
C614   C     0.16569   0.83347   0.02358   0.00000  Uiso   1.00
C615   C     0.20668   0.82514   0.45360   0.00000  Uiso   1.00
C616   C     0.12666   0.84155   0.04640   0.00000  Uiso   1.00
C617   C     0.09457   0.85801   0.47353   0.00000  Uiso   1.00
C618   C     0.23877   0.80867   0.02647   0.00000  Uiso   1.00
N619   N     0.16667   0.95240   0.25000   0.00000  Uiso   1.00
N620   N     0.16667   0.71427   0.25000   0.00000  Uiso   1.00
O621   O     0.10559   0.87154   0.24999   0.00000  Uiso   1.00
O622   O     0.22774   0.79513   0.25000   0.00000  Uiso   1.00
O623   O     0.22774   0.87154   0.25000   0.00000  Uiso   1.00
O624   O     0.10559   0.79513   0.24999   0.00000  Uiso   1.00
O625   O     0.16666   0.87156   0.18392   0.00000  Uiso   1.00
O626   O     0.16667   0.79511   0.31607   0.00000  Uiso   1.00
O627   O     0.16667   0.87156   0.31607   0.00000  Uiso   1.00
O628   O     0.16666   0.79511   0.18392   0.00000  Uiso   1.00
Zn629  Zn    0.16667   0.88437   0.25000   0.00000  Uiso   1.00
Zn630  Zn    0.16667   0.78229   0.25000   0.00000  Uiso   1.00
Br631  Br    0.25612   0.82921   0.36705   0.00000  Uiso   1.00
Br632  Br    0.07722   0.83755   0.13294   0.00000  Uiso   1.00
Br633  Br    0.07961   0.81787   0.37521   0.00000  Uiso   1.00
Br634  Br    0.25373   0.84876   0.12480   0.00000  Uiso   1.00
Br635  Br    0.05590   0.89691   0.44058   0.00000  Uiso   1.00
Br636  Br    0.27744   0.76976   0.05939   0.00000  Uiso   1.00
Br637  Br    0.03624   0.87027   0.04375   0.00000  Uiso   1.00
Br638  Br    0.29710   0.79644   0.45624   0.00000  Uiso   1.00
Br639  Br    0.04434   0.73919   0.28734   0.00000  Uiso   1.00
Br640  Br    0.28894   0.92750   0.21263   0.00000  Uiso   1.00
Br641  Br    0.29104   0.73571   0.22912   0.00000  Uiso   1.00
Br642  Br    0.04232   0.93101   0.27064   0.00000  Uiso   1.00
C643   C     0.18680   0.71029   0.33054   0.00000  Uiso   1.00
C644   C     0.22843   0.71486   0.34441   0.00000  Uiso   1.00
C645   C     0.23748   0.71986   0.38995   0.00000  Uiso   1.00
C646   C     0.20506   0.72207   0.42164   0.00000  Uiso   1.00
C647   C     0.16343   0.72028   0.40773   0.00000  Uiso   1.00
C648   C     0.15425   0.71397   0.36241   0.00000  Uiso   1.00
H649   H     0.25392   0.71075   0.32070   0.00000  Uiso   1.00
H650   H     0.26972   0.72091   0.40074   0.00000  Uiso   1.00
H651   H     0.21217   0.72530   0.45698   0.00000  Uiso   1.00
H652   H     0.13835   0.72225   0.43228   0.00000  Uiso   1.00
H653   H     0.12202   0.70942   0.35254   0.00000  Uiso   1.00
C654   C     0.14676   0.95640   0.16939   0.00000  Uiso   1.00
C655   C     0.10521   0.95185   0.15527   0.00000  Uiso   1.00
C656   C     0.09641   0.94684   0.10966   0.00000  Uiso   1.00
C657   C     0.12900   0.94460   0.07816   0.00000  Uiso   1.00
C658   C     0.17056   0.94638   0.09234   0.00000  Uiso   1.00
C659   C     0.17949   0.95271   0.13772   0.00000  Uiso   1.00
H660   H     0.07958   0.95597   0.17881   0.00000  Uiso   1.00
H661   H     0.06423   0.94582   0.09866   0.00000  Uiso   1.00
H662   H     0.12208   0.94134   0.04279   0.00000  Uiso   1.00
H663   H     0.19577   0.94438   0.06795   0.00000  Uiso   1.00
H664   H     0.21167   0.95725   0.14779   0.00000  Uiso   1.00
C665   C     0.13723   0.71478   0.17229   0.00000  Uiso   1.00
C666   C     0.09372   0.72067   0.16855   0.00000  Uiso   1.00
C667   C     0.07560   0.72978   0.12648   0.00000  Uiso   1.00
C668   C     0.10082   0.73409   0.08799   0.00000  Uiso   1.00
C669   C     0.14424   0.72958   0.09153   0.00000  Uiso   1.00
C670   C     0.16244   0.71987   0.13342   0.00000  Uiso   1.00
H671   H     0.07362   0.71494   0.19752   0.00000  Uiso   1.00
H672   H     0.04194   0.73307   0.12366   0.00000  Uiso   1.00
H673   H     0.08673   0.74117   0.05547   0.00000  Uiso   1.00
H674   H     0.16374   0.73279   0.06169   0.00000  Uiso   1.00
H675   H     0.19594   0.71439   0.13538   0.00000  Uiso   1.00
C676   C     0.19606   0.95189   0.32773   0.00000  Uiso   1.00
C677   C     0.17082   0.94682   0.36658   0.00000  Uiso   1.00
C678   C     0.18899   0.93713   0.40848   0.00000  Uiso   1.00
C679   C     0.23241   0.93263   0.41206   0.00000  Uiso   1.00
C680   C     0.25765   0.93691   0.37359   0.00000  Uiso   1.00
C681   C     0.23956   0.94599   0.33150   0.00000  Uiso   1.00
H682   H     0.13732   0.95229   0.36458   0.00000  Uiso   1.00
H683   H     0.16947   0.93394   0.43831   0.00000  Uiso   1.00
H684   H     0.24648   0.92559   0.44460   0.00000  Uiso   1.00
H685   H     0.29131   0.93364   0.37644   0.00000  Uiso   1.00
H686   H     0.25968   0.95169   0.30255   0.00000  Uiso   1.00
C687   C     0.42025   0.83343   0.25467   0.00000  Uiso   1.00
C688   C     0.57974   0.83324   0.24531   0.00000  Uiso   1.00
C689   C     0.42422   0.85429   0.02034   0.00000  Uiso   1.00
C690   C     0.57579   0.81241   0.47965   0.00000  Uiso   1.00
C691   C     0.35416   0.79322   0.26050   0.00000  Uiso   1.00
C692   C     0.64583   0.87346   0.23943   0.00000  Uiso   1.00
C693   C     0.64653   0.79240   0.24636   0.00000  Uiso   1.00
C694   C     0.35347   0.87429   0.25354   0.00000  Uiso   1.00
C695   C     0.62460   0.83282   0.24050   0.00000  Uiso   1.00
C696   C     0.37539   0.83386   0.25943   0.00000  Uiso   1.00
C697   C     0.51127   0.68930   0.28744   0.00000  Uiso   1.00
C698   C     0.48876   0.97737   0.21255   0.00000  Uiso   1.00
C699   C     0.48769   0.69153   0.21284   0.00000  Uiso   1.00
C700   C     0.51230   0.97514   0.28716   0.00000  Uiso   1.00
C701   C     0.49950   0.83398   0.16396   0.00000  Uiso   1.00
C702   C     0.50051   0.83268   0.33604   0.00000  Uiso   1.00
C703   C     0.54008   0.82832   0.40586   0.00000  Uiso   1.00
C704   C     0.45992   0.83838   0.09414   0.00000  Uiso   1.00
C705   C     0.50157   0.83117   0.38375   0.00000  Uiso   1.00
C706   C     0.49843   0.83549   0.11625   0.00000  Uiso   1.00
C707   C     0.46364   0.83407   0.40621   0.00000  Uiso   1.00
C708   C     0.53636   0.83259   0.09379   0.00000  Uiso   1.00
C709   C     0.46380   0.84173   0.45197   0.00000  Uiso   1.00
C710   C     0.53621   0.82494   0.04803   0.00000  Uiso   1.00
C711   C     0.50098   0.83321   0.47642   0.00000  Uiso   1.00
C712   C     0.49902   0.83347   0.02358   0.00000  Uiso   1.00
C713   C     0.54001   0.82514   0.45360   0.00000  Uiso   1.00
C714   C     0.45999   0.84155   0.04640   0.00000  Uiso   1.00
C715   C     0.42791   0.85801   0.47353   0.00000  Uiso   1.00
C716   C     0.57210   0.80867   0.02647   0.00000  Uiso   1.00
N717   N     0.50000   0.95240   0.25000   0.00000  Uiso   1.00
N718   N     0.50000   0.71427   0.25000   0.00000  Uiso   1.00
O719   O     0.43892   0.87154   0.24999   0.00000  Uiso   1.00
O720   O     0.56108   0.79513   0.25000   0.00000  Uiso   1.00
O721   O     0.56108   0.87154   0.25000   0.00000  Uiso   1.00
O722   O     0.43892   0.79513   0.24999   0.00000  Uiso   1.00
O723   O     0.49999   0.87156   0.18392   0.00000  Uiso   1.00
O724   O     0.50001   0.79511   0.31607   0.00000  Uiso   1.00
O725   O     0.50001   0.87156   0.31607   0.00000  Uiso   1.00
O726   O     0.49999   0.79511   0.18392   0.00000  Uiso   1.00
Zn727  Zn    0.50000   0.88437   0.25000   0.00000  Uiso   1.00
Zn728  Zn    0.50000   0.78229   0.25000   0.00000  Uiso   1.00
Br729  Br    0.58945   0.82921   0.36705   0.00000  Uiso   1.00
Br730  Br    0.41055   0.83755   0.13294   0.00000  Uiso   1.00
Br731  Br    0.41294   0.81787   0.37521   0.00000  Uiso   1.00
Br732  Br    0.58706   0.84876   0.12480   0.00000  Uiso   1.00
Br733  Br    0.38923   0.89691   0.44058   0.00000  Uiso   1.00
Br734  Br    0.61077   0.76976   0.05939   0.00000  Uiso   1.00
Br735  Br    0.36957   0.87027   0.04375   0.00000  Uiso   1.00
Br736  Br    0.63044   0.79644   0.45624   0.00000  Uiso   1.00
Br737  Br    0.37767   0.73919   0.28734   0.00000  Uiso   1.00
Br738  Br    0.62227   0.92750   0.21263   0.00000  Uiso   1.00
Br739  Br    0.62437   0.73571   0.22912   0.00000  Uiso   1.00
Br740  Br    0.37565   0.93101   0.27064   0.00000  Uiso   1.00
C741   C     0.52014   0.71029   0.33054   0.00000  Uiso   1.00
C742   C     0.56176   0.71486   0.34441   0.00000  Uiso   1.00
C743   C     0.57081   0.71986   0.38995   0.00000  Uiso   1.00
C744   C     0.53839   0.72207   0.42164   0.00000  Uiso   1.00
C745   C     0.49676   0.72028   0.40773   0.00000  Uiso   1.00
C746   C     0.48758   0.71397   0.36241   0.00000  Uiso   1.00
H747   H     0.58726   0.71075   0.32070   0.00000  Uiso   1.00
H748   H     0.60305   0.72091   0.40074   0.00000  Uiso   1.00
H749   H     0.54551   0.72530   0.45698   0.00000  Uiso   1.00
H750   H     0.47168   0.72225   0.43228   0.00000  Uiso   1.00
H751   H     0.45535   0.70942   0.35254   0.00000  Uiso   1.00
C752   C     0.48010   0.95640   0.16939   0.00000  Uiso   1.00
C753   C     0.43854   0.95185   0.15527   0.00000  Uiso   1.00
C754   C     0.42974   0.94684   0.10966   0.00000  Uiso   1.00
C755   C     0.46234   0.94460   0.07816   0.00000  Uiso   1.00
C756   C     0.50389   0.94638   0.09234   0.00000  Uiso   1.00
C757   C     0.51282   0.95271   0.13772   0.00000  Uiso   1.00
H758   H     0.41292   0.95597   0.17881   0.00000  Uiso   1.00
H759   H     0.39756   0.94582   0.09866   0.00000  Uiso   1.00
H760   H     0.45541   0.94134   0.04279   0.00000  Uiso   1.00
H761   H     0.52911   0.94438   0.06795   0.00000  Uiso   1.00
H762   H     0.54500   0.95725   0.14779   0.00000  Uiso   1.00
C763   C     0.47056   0.71478   0.17229   0.00000  Uiso   1.00
C764   C     0.42706   0.72067   0.16855   0.00000  Uiso   1.00
C765   C     0.40894   0.72978   0.12648   0.00000  Uiso   1.00
C766   C     0.43415   0.73409   0.08799   0.00000  Uiso   1.00
C767   C     0.47757   0.72958   0.09153   0.00000  Uiso   1.00
C768   C     0.49577   0.71987   0.13342   0.00000  Uiso   1.00
H769   H     0.40695   0.71494   0.19752   0.00000  Uiso   1.00
H770   H     0.37528   0.73307   0.12366   0.00000  Uiso   1.00
H771   H     0.42006   0.74117   0.05547   0.00000  Uiso   1.00
H772   H     0.49707   0.73279   0.06169   0.00000  Uiso   1.00
H773   H     0.52928   0.71439   0.13538   0.00000  Uiso   1.00
C774   C     0.52939   0.95189   0.32773   0.00000  Uiso   1.00
C775   C     0.50415   0.94682   0.36658   0.00000  Uiso   1.00
C776   C     0.52232   0.93713   0.40848   0.00000  Uiso   1.00
C777   C     0.56574   0.93263   0.41206   0.00000  Uiso   1.00
C778   C     0.59098   0.93691   0.37359   0.00000  Uiso   1.00
C779   C     0.57289   0.94599   0.33150   0.00000  Uiso   1.00
H780   H     0.47065   0.95229   0.36458   0.00000  Uiso   1.00
H781   H     0.50280   0.93394   0.43831   0.00000  Uiso   1.00
H782   H     0.57981   0.92559   0.44460   0.00000  Uiso   1.00
H783   H     0.62464   0.93364   0.37644   0.00000  Uiso   1.00
H784   H     0.59301   0.95169   0.30255   0.00000  Uiso   1.00
C785   C     0.75358   0.83343   0.25467   0.00000  Uiso   1.00
C786   C     0.91308   0.83324   0.24531   0.00000  Uiso   1.00
C787   C     0.75755   0.85429   0.02034   0.00000  Uiso   1.00
C788   C     0.90913   0.81241   0.47965   0.00000  Uiso   1.00
C789   C     0.68749   0.79322   0.26050   0.00000  Uiso   1.00
C790   C     0.97916   0.87346   0.23943   0.00000  Uiso   1.00
C791   C     0.97986   0.79240   0.24636   0.00000  Uiso   1.00
C792   C     0.68680   0.87429   0.25354   0.00000  Uiso   1.00
C793   C     0.95794   0.83282   0.24050   0.00000  Uiso   1.00
C794   C     0.70872   0.83386   0.25943   0.00000  Uiso   1.00
C795   C     0.84460   0.68930   0.28744   0.00000  Uiso   1.00
C796   C     0.82209   0.97737   0.21255   0.00000  Uiso   1.00
C797   C     0.82102   0.69153   0.21284   0.00000  Uiso   1.00
C798   C     0.84563   0.97514   0.28716   0.00000  Uiso   1.00
C799   C     0.83283   0.83398   0.16396   0.00000  Uiso   1.00
C800   C     0.83384   0.83268   0.33604   0.00000  Uiso   1.00
C801   C     0.87341   0.82832   0.40586   0.00000  Uiso   1.00
C802   C     0.79326   0.83838   0.09414   0.00000  Uiso   1.00
C803   C     0.83491   0.83117   0.38375   0.00000  Uiso   1.00
C804   C     0.83176   0.83549   0.11625   0.00000  Uiso   1.00
C805   C     0.79698   0.83407   0.40621   0.00000  Uiso   1.00
C806   C     0.86969   0.83259   0.09379   0.00000  Uiso   1.00
C807   C     0.79713   0.84173   0.45197   0.00000  Uiso   1.00
C808   C     0.86954   0.82494   0.04803   0.00000  Uiso   1.00
C809   C     0.83431   0.83321   0.47642   0.00000  Uiso   1.00
C810   C     0.83236   0.83347   0.02358   0.00000  Uiso   1.00
C811   C     0.87335   0.82514   0.45360   0.00000  Uiso   1.00
C812   C     0.79332   0.84155   0.04640   0.00000  Uiso   1.00
C813   C     0.76124   0.85801   0.47353   0.00000  Uiso   1.00
C814   C     0.90543   0.80867   0.02647   0.00000  Uiso   1.00
N815   N     0.83333   0.95240   0.25000   0.00000  Uiso   1.00
N816   N     0.83333   0.71427   0.25000   0.00000  Uiso   1.00
O817   O     0.77226   0.87154   0.24999   0.00000  Uiso   1.00
O818   O     0.89441   0.79513   0.25000   0.00000  Uiso   1.00
O819   O     0.89441   0.87154   0.25000   0.00000  Uiso   1.00
O820   O     0.77226   0.79513   0.24999   0.00000  Uiso   1.00
O821   O     0.83333   0.87156   0.18392   0.00000  Uiso   1.00
O822   O     0.83334   0.79511   0.31607   0.00000  Uiso   1.00
O823   O     0.83334   0.87156   0.31607   0.00000  Uiso   1.00
O824   O     0.83333   0.79511   0.18392   0.00000  Uiso   1.00
Zn825  Zn    0.83333   0.88437   0.25000   0.00000  Uiso   1.00
Zn826  Zn    0.83333   0.78229   0.25000   0.00000  Uiso   1.00
Br827  Br    0.92278   0.82921   0.36705   0.00000  Uiso   1.00
Br828  Br    0.74389   0.83755   0.13294   0.00000  Uiso   1.00
Br829  Br    0.74627   0.81787   0.37521   0.00000  Uiso   1.00
Br830  Br    0.92040   0.84876   0.12480   0.00000  Uiso   1.00
Br831  Br    0.72257   0.89691   0.44058   0.00000  Uiso   1.00
Br832  Br    0.94411   0.76976   0.05939   0.00000  Uiso   1.00
Br833  Br    0.70291   0.87027   0.04375   0.00000  Uiso   1.00
Br834  Br    0.96377   0.79644   0.45624   0.00000  Uiso   1.00
Br835  Br    0.71101   0.73919   0.28734   0.00000  Uiso   1.00
Br836  Br    0.95561   0.92750   0.21263   0.00000  Uiso   1.00
Br837  Br    0.95771   0.73571   0.22912   0.00000  Uiso   1.00
Br838  Br    0.70899   0.93101   0.27064   0.00000  Uiso   1.00
C839   C     0.85347   0.71029   0.33054   0.00000  Uiso   1.00
C840   C     0.89510   0.71486   0.34441   0.00000  Uiso   1.00
C841   C     0.90414   0.71986   0.38995   0.00000  Uiso   1.00
C842   C     0.87172   0.72207   0.42164   0.00000  Uiso   1.00
C843   C     0.83010   0.72028   0.40773   0.00000  Uiso   1.00
C844   C     0.82092   0.71397   0.36241   0.00000  Uiso   1.00
H845   H     0.92059   0.71075   0.32070   0.00000  Uiso   1.00
H846   H     0.93638   0.72091   0.40074   0.00000  Uiso   1.00
H847   H     0.87884   0.72530   0.45698   0.00000  Uiso   1.00
H848   H     0.80502   0.72225   0.43228   0.00000  Uiso   1.00
H849   H     0.78869   0.70942   0.35254   0.00000  Uiso   1.00
C850   C     0.81343   0.95640   0.16939   0.00000  Uiso   1.00
C851   C     0.77187   0.95185   0.15527   0.00000  Uiso   1.00
C852   C     0.76308   0.94684   0.10966   0.00000  Uiso   1.00
C853   C     0.79567   0.94460   0.07816   0.00000  Uiso   1.00
C854   C     0.83722   0.94638   0.09234   0.00000  Uiso   1.00
C855   C     0.84616   0.95271   0.13772   0.00000  Uiso   1.00
H856   H     0.74625   0.95597   0.17881   0.00000  Uiso   1.00
H857   H     0.73089   0.94582   0.09866   0.00000  Uiso   1.00
H858   H     0.78875   0.94134   0.04279   0.00000  Uiso   1.00
H859   H     0.86244   0.94438   0.06795   0.00000  Uiso   1.00
H860   H     0.87833   0.95725   0.14779   0.00000  Uiso   1.00
C861   C     0.80390   0.71478   0.17229   0.00000  Uiso   1.00
C862   C     0.76039   0.72067   0.16855   0.00000  Uiso   1.00
C863   C     0.74227   0.72978   0.12648   0.00000  Uiso   1.00
C864   C     0.76748   0.73409   0.08799   0.00000  Uiso   1.00
C865   C     0.81091   0.72958   0.09153   0.00000  Uiso   1.00
C866   C     0.82910   0.71987   0.13342   0.00000  Uiso   1.00
H867   H     0.74029   0.71494   0.19752   0.00000  Uiso   1.00
H868   H     0.70861   0.73307   0.12366   0.00000  Uiso   1.00
H869   H     0.75339   0.74117   0.05547   0.00000  Uiso   1.00
H870   H     0.83040   0.73279   0.06169   0.00000  Uiso   1.00
H871   H     0.86261   0.71439   0.13538   0.00000  Uiso   1.00
C872   C     0.86272   0.95189   0.32773   0.00000  Uiso   1.00
C873   C     0.83749   0.94682   0.36658   0.00000  Uiso   1.00
C874   C     0.85566   0.93713   0.40848   0.00000  Uiso   1.00
C875   C     0.89908   0.93263   0.41206   0.00000  Uiso   1.00
C876   C     0.92431   0.93691   0.37359   0.00000  Uiso   1.00
C877   C     0.90623   0.94599   0.33150   0.00000  Uiso   1.00
H878   H     0.80398   0.95229   0.36458   0.00000  Uiso   1.00
H879   H     0.83614   0.93394   0.43831   0.00000  Uiso   1.00
H880   H     0.91314   0.92559   0.44460   0.00000  Uiso   1.00
H881   H     0.95797   0.93364   0.37644   0.00000  Uiso   1.00
H882   H     0.92635   0.95169   0.30255   0.00000  Uiso   1.00
C883   C     0.08692   0.16677   0.75467   0.00000  Uiso   1.00
C884   C     0.24641   0.16657   0.74531   0.00000  Uiso   1.00
C885   C     0.09088   0.18763   0.52034   0.00000  Uiso   1.00
C886   C     0.24246   0.14574   0.97965   0.00000  Uiso   1.00
C887   C     0.02082   0.12656   0.76050   0.00000  Uiso   1.00
C888   C     0.31250   0.20680   0.73943   0.00000  Uiso   1.00
C889   C     0.31319   0.12573   0.74636   0.00000  Uiso   1.00
C890   C     0.02014   0.20763   0.75354   0.00000  Uiso   1.00
C891   C     0.29127   0.16615   0.74050   0.00000  Uiso   1.00
C892   C     0.04205   0.16720   0.75943   0.00000  Uiso   1.00
C893   C     0.17794   0.02263   0.78744   0.00000  Uiso   1.00
C894   C     0.15542   0.31070   0.71255   0.00000  Uiso   1.00
C895   C     0.15435   0.02486   0.71284   0.00000  Uiso   1.00
C896   C     0.17896   0.30847   0.78716   0.00000  Uiso   1.00
C897   C     0.16616   0.16732   0.66396   0.00000  Uiso   1.00
C898   C     0.16717   0.16602   0.83604   0.00000  Uiso   1.00
C899   C     0.20675   0.16165   0.90586   0.00000  Uiso   1.00
C900   C     0.12659   0.17171   0.59414   0.00000  Uiso   1.00
C901   C     0.16824   0.16451   0.88375   0.00000  Uiso   1.00
C902   C     0.16510   0.16883   0.61625   0.00000  Uiso   1.00
C903   C     0.13031   0.16740   0.90621   0.00000  Uiso   1.00
C904   C     0.20303   0.16592   0.59379   0.00000  Uiso   1.00
C905   C     0.13046   0.17506   0.95197   0.00000  Uiso   1.00
C906   C     0.20287   0.15828   0.54803   0.00000  Uiso   1.00
C907   C     0.16765   0.16655   0.97642   0.00000  Uiso   1.00
C908   C     0.16569   0.16680   0.52358   0.00000  Uiso   1.00
C909   C     0.20668   0.15847   0.95360   0.00000  Uiso   1.00
C910   C     0.12666   0.17489   0.54640   0.00000  Uiso   1.00
C911   C     0.09457   0.19135   0.97353   0.00000  Uiso   1.00
C912   C     0.23877   0.14200   0.52647   0.00000  Uiso   1.00
N913   N     0.16667   0.28573   0.75000   0.00000  Uiso   1.00
N914   N     0.16667   0.04760   0.75000   0.00000  Uiso   1.00
O915   O     0.10559   0.20487   0.74999   0.00000  Uiso   1.00
O916   O     0.22774   0.12846   0.75000   0.00000  Uiso   1.00
O917   O     0.22774   0.20487   0.75000   0.00000  Uiso   1.00
O918   O     0.10559   0.12846   0.74999   0.00000  Uiso   1.00
O919   O     0.16666   0.20489   0.68392   0.00000  Uiso   1.00
O920   O     0.16667   0.12844   0.81607   0.00000  Uiso   1.00
O921   O     0.16667   0.20489   0.81607   0.00000  Uiso   1.00
O922   O     0.16666   0.12844   0.68392   0.00000  Uiso   1.00
Zn923  Zn    0.16667   0.21771   0.75000   0.00000  Uiso   1.00
Zn924  Zn    0.16667   0.11563   0.75000   0.00000  Uiso   1.00
Br925  Br    0.25612   0.16254   0.86705   0.00000  Uiso   1.00
Br926  Br    0.07722   0.17088   0.63294   0.00000  Uiso   1.00
Br927  Br    0.07961   0.15120   0.87521   0.00000  Uiso   1.00
Br928  Br    0.25373   0.18209   0.62480   0.00000  Uiso   1.00
Br929  Br    0.05590   0.23025   0.94058   0.00000  Uiso   1.00
Br930  Br    0.27744   0.10309   0.55939   0.00000  Uiso   1.00
Br931  Br    0.03624   0.20361   0.54375   0.00000  Uiso   1.00
Br932  Br    0.29710   0.12978   0.95624   0.00000  Uiso   1.00
Br933  Br    0.04434   0.07252   0.78734   0.00000  Uiso   1.00
Br934  Br    0.28894   0.26083   0.71263   0.00000  Uiso   1.00
Br935  Br    0.29104   0.06904   0.72912   0.00000  Uiso   1.00
Br936  Br    0.04232   0.26435   0.77064   0.00000  Uiso   1.00
C937   C     0.18680   0.04362   0.83054   0.00000  Uiso   1.00
C938   C     0.22843   0.04819   0.84441   0.00000  Uiso   1.00
C939   C     0.23748   0.05319   0.88995   0.00000  Uiso   1.00
C940   C     0.20506   0.05540   0.92164   0.00000  Uiso   1.00
C941   C     0.16343   0.05361   0.90773   0.00000  Uiso   1.00
C942   C     0.15425   0.04730   0.86241   0.00000  Uiso   1.00
H943   H     0.25392   0.04408   0.82070   0.00000  Uiso   1.00
H944   H     0.26972   0.05424   0.90074   0.00000  Uiso   1.00
H945   H     0.21217   0.05863   0.95698   0.00000  Uiso   1.00
H946   H     0.13835   0.05559   0.93228   0.00000  Uiso   1.00
H947   H     0.12202   0.04275   0.85254   0.00000  Uiso   1.00
C948   C     0.14676   0.28973   0.66939   0.00000  Uiso   1.00
C949   C     0.10521   0.28518   0.65527   0.00000  Uiso   1.00
C950   C     0.09641   0.28017   0.60966   0.00000  Uiso   1.00
C951   C     0.12900   0.27793   0.57816   0.00000  Uiso   1.00
C952   C     0.17056   0.27971   0.59234   0.00000  Uiso   1.00
C953   C     0.17949   0.28604   0.63772   0.00000  Uiso   1.00
H954   H     0.07958   0.28930   0.67881   0.00000  Uiso   1.00
H955   H     0.06423   0.27915   0.59866   0.00000  Uiso   1.00
H956   H     0.12208   0.27468   0.54279   0.00000  Uiso   1.00
H957   H     0.19577   0.27771   0.56795   0.00000  Uiso   1.00
H958   H     0.21167   0.29058   0.64779   0.00000  Uiso   1.00
C959   C     0.13723   0.04811   0.67229   0.00000  Uiso   1.00
C960   C     0.09372   0.05400   0.66855   0.00000  Uiso   1.00
C961   C     0.07560   0.06312   0.62648   0.00000  Uiso   1.00
C962   C     0.10082   0.06742   0.58799   0.00000  Uiso   1.00
C963   C     0.14424   0.06291   0.59153   0.00000  Uiso   1.00
C964   C     0.16244   0.05320   0.63342   0.00000  Uiso   1.00
H965   H     0.07362   0.04827   0.69752   0.00000  Uiso   1.00
H966   H     0.04194   0.06640   0.62366   0.00000  Uiso   1.00
H967   H     0.08673   0.07450   0.55547   0.00000  Uiso   1.00
H968   H     0.16374   0.06612   0.56169   0.00000  Uiso   1.00
H969   H     0.19594   0.04773   0.63538   0.00000  Uiso   1.00
C970   C     0.19606   0.28522   0.82773   0.00000  Uiso   1.00
C971   C     0.17082   0.28015   0.86658   0.00000  Uiso   1.00
C972   C     0.18899   0.27046   0.90848   0.00000  Uiso   1.00
C973   C     0.23241   0.26597   0.91206   0.00000  Uiso   1.00
C974   C     0.25765   0.27025   0.87359   0.00000  Uiso   1.00
C975   C     0.23956   0.27932   0.83150   0.00000  Uiso   1.00
H976   H     0.13732   0.28562   0.86458   0.00000  Uiso   1.00
H977   H     0.16947   0.26727   0.93831   0.00000  Uiso   1.00
H978   H     0.24648   0.25892   0.94460   0.00000  Uiso   1.00
H979   H     0.29131   0.26697   0.87644   0.00000  Uiso   1.00
H980   H     0.25968   0.28503   0.80255   0.00000  Uiso   1.00
C981   C     0.42025   0.16677   0.75467   0.00000  Uiso   1.00
C982   C     0.57974   0.16657   0.74531   0.00000  Uiso   1.00
C983   C     0.42422   0.18763   0.52034   0.00000  Uiso   1.00
C984   C     0.57579   0.14574   0.97965   0.00000  Uiso   1.00
C985   C     0.35416   0.12656   0.76050   0.00000  Uiso   1.00
C986   C     0.64583   0.20680   0.73943   0.00000  Uiso   1.00
C987   C     0.64653   0.12573   0.74636   0.00000  Uiso   1.00
C988   C     0.35347   0.20763   0.75354   0.00000  Uiso   1.00
C989   C     0.62460   0.16615   0.74050   0.00000  Uiso   1.00
C990   C     0.37539   0.16720   0.75943   0.00000  Uiso   1.00
C991   C     0.51127   0.02263   0.78744   0.00000  Uiso   1.00
C992   C     0.48876   0.31070   0.71255   0.00000  Uiso   1.00
C993   C     0.48769   0.02486   0.71284   0.00000  Uiso   1.00
C994   C     0.51230   0.30847   0.78716   0.00000  Uiso   1.00
C995   C     0.49950   0.16732   0.66396   0.00000  Uiso   1.00
C996   C     0.50051   0.16602   0.83604   0.00000  Uiso   1.00
C997   C     0.54008   0.16165   0.90586   0.00000  Uiso   1.00
C998   C     0.45992   0.17171   0.59414   0.00000  Uiso   1.00
C999   C     0.50157   0.16451   0.88375   0.00000  Uiso   1.00
C1000  C     0.49843   0.16883   0.61625   0.00000  Uiso   1.00
C1001  C     0.46364   0.16740   0.90621   0.00000  Uiso   1.00
C1002  C     0.53636   0.16592   0.59379   0.00000  Uiso   1.00
C1003  C     0.46380   0.17506   0.95197   0.00000  Uiso   1.00
C1004  C     0.53621   0.15828   0.54803   0.00000  Uiso   1.00
C1005  C     0.50098   0.16655   0.97642   0.00000  Uiso   1.00
C1006  C     0.49902   0.16680   0.52358   0.00000  Uiso   1.00
C1007  C     0.54001   0.15847   0.95360   0.00000  Uiso   1.00
C1008  C     0.45999   0.17489   0.54640   0.00000  Uiso   1.00
C1009  C     0.42791   0.19135   0.97353   0.00000  Uiso   1.00
C1010  C     0.57210   0.14200   0.52647   0.00000  Uiso   1.00
N1011  N     0.50000   0.28573   0.75000   0.00000  Uiso   1.00
N1012  N     0.50000   0.04760   0.75000   0.00000  Uiso   1.00
O1013  O     0.43892   0.20487   0.74999   0.00000  Uiso   1.00
O1014  O     0.56108   0.12846   0.75000   0.00000  Uiso   1.00
O1015  O     0.56108   0.20487   0.75000   0.00000  Uiso   1.00
O1016  O     0.43892   0.12846   0.74999   0.00000  Uiso   1.00
O1017  O     0.49999   0.20489   0.68392   0.00000  Uiso   1.00
O1018  O     0.50001   0.12844   0.81607   0.00000  Uiso   1.00
O1019  O     0.50001   0.20489   0.81607   0.00000  Uiso   1.00
O1020  O     0.49999   0.12844   0.68392   0.00000  Uiso   1.00
Zn1021 Zn    0.50000   0.21771   0.75000   0.00000  Uiso   1.00
Zn1022 Zn    0.50000   0.11563   0.75000   0.00000  Uiso   1.00
Br1023 Br    0.58945   0.16254   0.86705   0.00000  Uiso   1.00
Br1024 Br    0.41055   0.17088   0.63294   0.00000  Uiso   1.00
Br1025 Br    0.41294   0.15120   0.87521   0.00000  Uiso   1.00
Br1026 Br    0.58706   0.18209   0.62480   0.00000  Uiso   1.00
Br1027 Br    0.38923   0.23025   0.94058   0.00000  Uiso   1.00
Br1028 Br    0.61077   0.10309   0.55939   0.00000  Uiso   1.00
Br1029 Br    0.36957   0.20361   0.54375   0.00000  Uiso   1.00
Br1030 Br    0.63044   0.12978   0.95624   0.00000  Uiso   1.00
Br1031 Br    0.37767   0.07252   0.78734   0.00000  Uiso   1.00
Br1032 Br    0.62227   0.26083   0.71263   0.00000  Uiso   1.00
Br1033 Br    0.62437   0.06904   0.72912   0.00000  Uiso   1.00
Br1034 Br    0.37565   0.26435   0.77064   0.00000  Uiso   1.00
C1035  C     0.52014   0.04362   0.83054   0.00000  Uiso   1.00
C1036  C     0.56176   0.04819   0.84441   0.00000  Uiso   1.00
C1037  C     0.57081   0.05319   0.88995   0.00000  Uiso   1.00
C1038  C     0.53839   0.05540   0.92164   0.00000  Uiso   1.00
C1039  C     0.49676   0.05361   0.90773   0.00000  Uiso   1.00
C1040  C     0.48758   0.04730   0.86241   0.00000  Uiso   1.00
H1041  H     0.58726   0.04408   0.82070   0.00000  Uiso   1.00
H1042  H     0.60305   0.05424   0.90074   0.00000  Uiso   1.00
H1043  H     0.54551   0.05863   0.95698   0.00000  Uiso   1.00
H1044  H     0.47168   0.05559   0.93228   0.00000  Uiso   1.00
H1045  H     0.45535   0.04275   0.85254   0.00000  Uiso   1.00
C1046  C     0.48010   0.28973   0.66939   0.00000  Uiso   1.00
C1047  C     0.43854   0.28518   0.65527   0.00000  Uiso   1.00
C1048  C     0.42974   0.28017   0.60966   0.00000  Uiso   1.00
C1049  C     0.46234   0.27793   0.57816   0.00000  Uiso   1.00
C1050  C     0.50389   0.27971   0.59234   0.00000  Uiso   1.00
C1051  C     0.51282   0.28604   0.63772   0.00000  Uiso   1.00
H1052  H     0.41292   0.28930   0.67881   0.00000  Uiso   1.00
H1053  H     0.39756   0.27915   0.59866   0.00000  Uiso   1.00
H1054  H     0.45541   0.27468   0.54279   0.00000  Uiso   1.00
H1055  H     0.52911   0.27771   0.56795   0.00000  Uiso   1.00
H1056  H     0.54500   0.29058   0.64779   0.00000  Uiso   1.00
C1057  C     0.47056   0.04811   0.67229   0.00000  Uiso   1.00
C1058  C     0.42706   0.05400   0.66855   0.00000  Uiso   1.00
C1059  C     0.40894   0.06312   0.62648   0.00000  Uiso   1.00
C1060  C     0.43415   0.06742   0.58799   0.00000  Uiso   1.00
C1061  C     0.47757   0.06291   0.59153   0.00000  Uiso   1.00
C1062  C     0.49577   0.05320   0.63342   0.00000  Uiso   1.00
H1063  H     0.40695   0.04827   0.69752   0.00000  Uiso   1.00
H1064  H     0.37528   0.06640   0.62366   0.00000  Uiso   1.00
H1065  H     0.42006   0.07450   0.55547   0.00000  Uiso   1.00
H1066  H     0.49707   0.06612   0.56169   0.00000  Uiso   1.00
H1067  H     0.52928   0.04773   0.63538   0.00000  Uiso   1.00
C1068  C     0.52939   0.28522   0.82773   0.00000  Uiso   1.00
C1069  C     0.50415   0.28015   0.86658   0.00000  Uiso   1.00
C1070  C     0.52232   0.27046   0.90848   0.00000  Uiso   1.00
C1071  C     0.56574   0.26597   0.91206   0.00000  Uiso   1.00
C1072  C     0.59098   0.27025   0.87359   0.00000  Uiso   1.00
C1073  C     0.57289   0.27932   0.83150   0.00000  Uiso   1.00
H1074  H     0.47065   0.28562   0.86458   0.00000  Uiso   1.00
H1075  H     0.50280   0.26727   0.93831   0.00000  Uiso   1.00
H1076  H     0.57981   0.25892   0.94460   0.00000  Uiso   1.00
H1077  H     0.62464   0.26697   0.87644   0.00000  Uiso   1.00
H1078  H     0.59301   0.28503   0.80255   0.00000  Uiso   1.00
C1079  C     0.75358   0.16677   0.75467   0.00000  Uiso   1.00
C1080  C     0.91308   0.16657   0.74531   0.00000  Uiso   1.00
C1081  C     0.75755   0.18763   0.52034   0.00000  Uiso   1.00
C1082  C     0.90913   0.14574   0.97965   0.00000  Uiso   1.00
C1083  C     0.68749   0.12656   0.76050   0.00000  Uiso   1.00
C1084  C     0.97916   0.20680   0.73943   0.00000  Uiso   1.00
C1085  C     0.97986   0.12573   0.74636   0.00000  Uiso   1.00
C1086  C     0.68680   0.20763   0.75354   0.00000  Uiso   1.00
C1087  C     0.95794   0.16615   0.74050   0.00000  Uiso   1.00
C1088  C     0.70872   0.16720   0.75943   0.00000  Uiso   1.00
C1089  C     0.84460   0.02263   0.78744   0.00000  Uiso   1.00
C1090  C     0.82209   0.31070   0.71255   0.00000  Uiso   1.00
C1091  C     0.82102   0.02486   0.71284   0.00000  Uiso   1.00
C1092  C     0.84563   0.30847   0.78716   0.00000  Uiso   1.00
C1093  C     0.83283   0.16732   0.66396   0.00000  Uiso   1.00
C1094  C     0.83384   0.16602   0.83604   0.00000  Uiso   1.00
C1095  C     0.87341   0.16165   0.90586   0.00000  Uiso   1.00
C1096  C     0.79326   0.17171   0.59414   0.00000  Uiso   1.00
C1097  C     0.83491   0.16451   0.88375   0.00000  Uiso   1.00
C1098  C     0.83176   0.16883   0.61625   0.00000  Uiso   1.00
C1099  C     0.79698   0.16740   0.90621   0.00000  Uiso   1.00
C1100  C     0.86969   0.16592   0.59379   0.00000  Uiso   1.00
C1101  C     0.79713   0.17506   0.95197   0.00000  Uiso   1.00
C1102  C     0.86954   0.15828   0.54803   0.00000  Uiso   1.00
C1103  C     0.83431   0.16655   0.97642   0.00000  Uiso   1.00
C1104  C     0.83236   0.16680   0.52358   0.00000  Uiso   1.00
C1105  C     0.87335   0.15847   0.95360   0.00000  Uiso   1.00
C1106  C     0.79332   0.17489   0.54640   0.00000  Uiso   1.00
C1107  C     0.76124   0.19135   0.97353   0.00000  Uiso   1.00
C1108  C     0.90543   0.14200   0.52647   0.00000  Uiso   1.00
N1109  N     0.83333   0.28573   0.75000   0.00000  Uiso   1.00
N1110  N     0.83333   0.04760   0.75000   0.00000  Uiso   1.00
O1111  O     0.77226   0.20487   0.74999   0.00000  Uiso   1.00
O1112  O     0.89441   0.12846   0.75000   0.00000  Uiso   1.00
O1113  O     0.89441   0.20487   0.75000   0.00000  Uiso   1.00
O1114  O     0.77226   0.12846   0.74999   0.00000  Uiso   1.00
O1115  O     0.83333   0.20489   0.68392   0.00000  Uiso   1.00
O1116  O     0.83334   0.12844   0.81607   0.00000  Uiso   1.00
O1117  O     0.83334   0.20489   0.81607   0.00000  Uiso   1.00
O1118  O     0.83333   0.12844   0.68392   0.00000  Uiso   1.00
Zn1119 Zn    0.83333   0.21771   0.75000   0.00000  Uiso   1.00
Zn1120 Zn    0.83333   0.11563   0.75000   0.00000  Uiso   1.00
Br1121 Br    0.92278   0.16254   0.86705   0.00000  Uiso   1.00
Br1122 Br    0.74389   0.17088   0.63294   0.00000  Uiso   1.00
Br1123 Br    0.74627   0.15120   0.87521   0.00000  Uiso   1.00
Br1124 Br    0.92040   0.18209   0.62480   0.00000  Uiso   1.00
Br1125 Br    0.72257   0.23025   0.94058   0.00000  Uiso   1.00
Br1126 Br    0.94411   0.10309   0.55939   0.00000  Uiso   1.00
Br1127 Br    0.70291   0.20361   0.54375   0.00000  Uiso   1.00
Br1128 Br    0.96377   0.12978   0.95624   0.00000  Uiso   1.00
Br1129 Br    0.71101   0.07252   0.78734   0.00000  Uiso   1.00
Br1130 Br    0.95561   0.26083   0.71263   0.00000  Uiso   1.00
Br1131 Br    0.95771   0.06904   0.72912   0.00000  Uiso   1.00
Br1132 Br    0.70899   0.26435   0.77064   0.00000  Uiso   1.00
C1133  C     0.85347   0.04362   0.83054   0.00000  Uiso   1.00
C1134  C     0.89510   0.04819   0.84441   0.00000  Uiso   1.00
C1135  C     0.90414   0.05319   0.88995   0.00000  Uiso   1.00
C1136  C     0.87172   0.05540   0.92164   0.00000  Uiso   1.00
C1137  C     0.83010   0.05361   0.90773   0.00000  Uiso   1.00
C1138  C     0.82092   0.04730   0.86241   0.00000  Uiso   1.00
H1139  H     0.92059   0.04408   0.82070   0.00000  Uiso   1.00
H1140  H     0.93638   0.05424   0.90074   0.00000  Uiso   1.00
H1141  H     0.87884   0.05863   0.95698   0.00000  Uiso   1.00
H1142  H     0.80502   0.05559   0.93228   0.00000  Uiso   1.00
H1143  H     0.78869   0.04275   0.85254   0.00000  Uiso   1.00
C1144  C     0.81343   0.28973   0.66939   0.00000  Uiso   1.00
C1145  C     0.77187   0.28518   0.65527   0.00000  Uiso   1.00
C1146  C     0.76308   0.28017   0.60966   0.00000  Uiso   1.00
C1147  C     0.79567   0.27793   0.57816   0.00000  Uiso   1.00
C1148  C     0.83722   0.27971   0.59234   0.00000  Uiso   1.00
C1149  C     0.84616   0.28604   0.63772   0.00000  Uiso   1.00
H1150  H     0.74625   0.28930   0.67881   0.00000  Uiso   1.00
H1151  H     0.73089   0.27915   0.59866   0.00000  Uiso   1.00
H1152  H     0.78875   0.27468   0.54279   0.00000  Uiso   1.00
H1153  H     0.86244   0.27771   0.56795   0.00000  Uiso   1.00
H1154  H     0.87833   0.29058   0.64779   0.00000  Uiso   1.00
C1155  C     0.80390   0.04811   0.67229   0.00000  Uiso   1.00
C1156  C     0.76039   0.05400   0.66855   0.00000  Uiso   1.00
C1157  C     0.74227   0.06312   0.62648   0.00000  Uiso   1.00
C1158  C     0.76748   0.06742   0.58799   0.00000  Uiso   1.00
C1159  C     0.81091   0.06291   0.59153   0.00000  Uiso   1.00
C1160  C     0.82910   0.05320   0.63342   0.00000  Uiso   1.00
H1161  H     0.74029   0.04827   0.69752   0.00000  Uiso   1.00
H1162  H     0.70861   0.06640   0.62366   0.00000  Uiso   1.00
H1163  H     0.75339   0.07450   0.55547   0.00000  Uiso   1.00
H1164  H     0.83040   0.06612   0.56169   0.00000  Uiso   1.00
H1165  H     0.86261   0.04773   0.63538   0.00000  Uiso   1.00
C1166  C     0.86272   0.28522   0.82773   0.00000  Uiso   1.00
C1167  C     0.83749   0.28015   0.86658   0.00000  Uiso   1.00
C1168  C     0.85566   0.27046   0.90848   0.00000  Uiso   1.00
C1169  C     0.89908   0.26597   0.91206   0.00000  Uiso   1.00
C1170  C     0.92431   0.27025   0.87359   0.00000  Uiso   1.00
C1171  C     0.90623   0.27932   0.83150   0.00000  Uiso   1.00
H1172  H     0.80398   0.28562   0.86458   0.00000  Uiso   1.00
H1173  H     0.83614   0.26727   0.93831   0.00000  Uiso   1.00
H1174  H     0.91314   0.25892   0.94460   0.00000  Uiso   1.00
H1175  H     0.95797   0.26697   0.87644   0.00000  Uiso   1.00
H1176  H     0.92635   0.28503   0.80255   0.00000  Uiso   1.00
C1177  C     0.08692   0.50010   0.75467   0.00000  Uiso   1.00
C1178  C     0.24641   0.49990   0.74531   0.00000  Uiso   1.00
C1179  C     0.09088   0.52096   0.52034   0.00000  Uiso   1.00
C1180  C     0.24246   0.47908   0.97965   0.00000  Uiso   1.00
C1181  C     0.02082   0.45989   0.76050   0.00000  Uiso   1.00
C1182  C     0.31250   0.54013   0.73943   0.00000  Uiso   1.00
C1183  C     0.31319   0.45906   0.74636   0.00000  Uiso   1.00
C1184  C     0.02014   0.54096   0.75354   0.00000  Uiso   1.00
C1185  C     0.29127   0.49949   0.74050   0.00000  Uiso   1.00
C1186  C     0.04205   0.50053   0.75943   0.00000  Uiso   1.00
C1187  C     0.17794   0.35597   0.78744   0.00000  Uiso   1.00
C1188  C     0.15542   0.64404   0.71255   0.00000  Uiso   1.00
C1189  C     0.15435   0.35820   0.71284   0.00000  Uiso   1.00
C1190  C     0.17896   0.64180   0.78716   0.00000  Uiso   1.00
C1191  C     0.16616   0.50065   0.66396   0.00000  Uiso   1.00
C1192  C     0.16717   0.49935   0.83604   0.00000  Uiso   1.00
C1193  C     0.20675   0.49499   0.90586   0.00000  Uiso   1.00
C1194  C     0.12659   0.50504   0.59414   0.00000  Uiso   1.00
C1195  C     0.16824   0.49784   0.88375   0.00000  Uiso   1.00
C1196  C     0.16510   0.50216   0.61625   0.00000  Uiso   1.00
C1197  C     0.13031   0.50073   0.90621   0.00000  Uiso   1.00
C1198  C     0.20303   0.49925   0.59379   0.00000  Uiso   1.00
C1199  C     0.13046   0.50840   0.95197   0.00000  Uiso   1.00
C1200  C     0.20287   0.49161   0.54803   0.00000  Uiso   1.00
C1201  C     0.16765   0.49988   0.97642   0.00000  Uiso   1.00
C1202  C     0.16569   0.50014   0.52358   0.00000  Uiso   1.00
C1203  C     0.20668   0.49181   0.95360   0.00000  Uiso   1.00
C1204  C     0.12666   0.50822   0.54640   0.00000  Uiso   1.00
C1205  C     0.09457   0.52468   0.97353   0.00000  Uiso   1.00
C1206  C     0.23877   0.47534   0.52647   0.00000  Uiso   1.00
N1207  N     0.16667   0.61907   0.75000   0.00000  Uiso   1.00
N1208  N     0.16667   0.38093   0.75000   0.00000  Uiso   1.00
O1209  O     0.10559   0.53821   0.74999   0.00000  Uiso   1.00
O1210  O     0.22774   0.46179   0.75000   0.00000  Uiso   1.00
O1211  O     0.22774   0.53821   0.75000   0.00000  Uiso   1.00
O1212  O     0.10559   0.46179   0.74999   0.00000  Uiso   1.00
O1213  O     0.16666   0.53823   0.68392   0.00000  Uiso   1.00
O1214  O     0.16667   0.46177   0.81607   0.00000  Uiso   1.00
O1215  O     0.16667   0.53823   0.81607   0.00000  Uiso   1.00
O1216  O     0.16666   0.46177   0.68392   0.00000  Uiso   1.00
Zn1217 Zn    0.16667   0.55104   0.75000   0.00000  Uiso   1.00
Zn1218 Zn    0.16667   0.44896   0.75000   0.00000  Uiso   1.00
Br1219 Br    0.25612   0.49587   0.86705   0.00000  Uiso   1.00
Br1220 Br    0.07722   0.50422   0.63294   0.00000  Uiso   1.00
Br1221 Br    0.07961   0.48454   0.87521   0.00000  Uiso   1.00
Br1222 Br    0.25373   0.51543   0.62480   0.00000  Uiso   1.00
Br1223 Br    0.05590   0.56358   0.94058   0.00000  Uiso   1.00
Br1224 Br    0.27744   0.43642   0.55939   0.00000  Uiso   1.00
Br1225 Br    0.03624   0.53694   0.54375   0.00000  Uiso   1.00
Br1226 Br    0.29710   0.46311   0.95624   0.00000  Uiso   1.00
Br1227 Br    0.04434   0.40586   0.78734   0.00000  Uiso   1.00
Br1228 Br    0.28894   0.59417   0.71263   0.00000  Uiso   1.00
Br1229 Br    0.29104   0.40238   0.72912   0.00000  Uiso   1.00
Br1230 Br    0.04232   0.59768   0.77064   0.00000  Uiso   1.00
C1231  C     0.18680   0.37696   0.83054   0.00000  Uiso   1.00
C1232  C     0.22843   0.38153   0.84441   0.00000  Uiso   1.00
C1233  C     0.23748   0.38653   0.88995   0.00000  Uiso   1.00
C1234  C     0.20506   0.38873   0.92164   0.00000  Uiso   1.00
C1235  C     0.16343   0.38695   0.90773   0.00000  Uiso   1.00
C1236  C     0.15425   0.38064   0.86241   0.00000  Uiso   1.00
H1237  H     0.25392   0.37741   0.82070   0.00000  Uiso   1.00
H1238  H     0.26972   0.38757   0.90074   0.00000  Uiso   1.00
H1239  H     0.21217   0.39196   0.95698   0.00000  Uiso   1.00
H1240  H     0.13835   0.38892   0.93228   0.00000  Uiso   1.00
H1241  H     0.12202   0.37608   0.85254   0.00000  Uiso   1.00
C1242  C     0.14676   0.62307   0.66939   0.00000  Uiso   1.00
C1243  C     0.10521   0.61851   0.65527   0.00000  Uiso   1.00
C1244  C     0.09641   0.61351   0.60966   0.00000  Uiso   1.00
C1245  C     0.12900   0.61126   0.57816   0.00000  Uiso   1.00
C1246  C     0.17056   0.61305   0.59234   0.00000  Uiso   1.00
C1247  C     0.17949   0.61937   0.63772   0.00000  Uiso   1.00
H1248  H     0.07958   0.62264   0.67881   0.00000  Uiso   1.00
H1249  H     0.06423   0.61249   0.59866   0.00000  Uiso   1.00
H1250  H     0.12208   0.60801   0.54279   0.00000  Uiso   1.00
H1251  H     0.19577   0.61105   0.56795   0.00000  Uiso   1.00
H1252  H     0.21167   0.62392   0.64779   0.00000  Uiso   1.00
C1253  C     0.13723   0.38145   0.67229   0.00000  Uiso   1.00
C1254  C     0.09372   0.38734   0.66855   0.00000  Uiso   1.00
C1255  C     0.07560   0.39645   0.62648   0.00000  Uiso   1.00
C1256  C     0.10082   0.40076   0.58799   0.00000  Uiso   1.00
C1257  C     0.14424   0.39625   0.59153   0.00000  Uiso   1.00
C1258  C     0.16244   0.38653   0.63342   0.00000  Uiso   1.00
H1259  H     0.07362   0.38161   0.69752   0.00000  Uiso   1.00
H1260  H     0.04194   0.39974   0.62366   0.00000  Uiso   1.00
H1261  H     0.08673   0.40783   0.55547   0.00000  Uiso   1.00
H1262  H     0.16374   0.39945   0.56169   0.00000  Uiso   1.00
H1263  H     0.19594   0.38106   0.63538   0.00000  Uiso   1.00
C1264  C     0.19606   0.61855   0.82773   0.00000  Uiso   1.00
C1265  C     0.17082   0.61348   0.86658   0.00000  Uiso   1.00
C1266  C     0.18899   0.60379   0.90848   0.00000  Uiso   1.00
C1267  C     0.23241   0.59930   0.91206   0.00000  Uiso   1.00
C1268  C     0.25765   0.60358   0.87359   0.00000  Uiso   1.00
C1269  C     0.23956   0.61266   0.83150   0.00000  Uiso   1.00
H1270  H     0.13732   0.61896   0.86458   0.00000  Uiso   1.00
H1271  H     0.16947   0.60061   0.93831   0.00000  Uiso   1.00
H1272  H     0.24648   0.59225   0.94460   0.00000  Uiso   1.00
H1273  H     0.29131   0.60030   0.87644   0.00000  Uiso   1.00
H1274  H     0.25968   0.61836   0.80255   0.00000  Uiso   1.00
C1275  C     0.42025   0.50010   0.75467   0.00000  Uiso   1.00
C1276  C     0.57974   0.49990   0.74531   0.00000  Uiso   1.00
C1277  C     0.42422   0.52096   0.52034   0.00000  Uiso   1.00
C1278  C     0.57579   0.47908   0.97965   0.00000  Uiso   1.00
C1279  C     0.35416   0.45989   0.76050   0.00000  Uiso   1.00
C1280  C     0.64583   0.54013   0.73943   0.00000  Uiso   1.00
C1281  C     0.64653   0.45906   0.74636   0.00000  Uiso   1.00
C1282  C     0.35347   0.54096   0.75354   0.00000  Uiso   1.00
C1283  C     0.62460   0.49949   0.74050   0.00000  Uiso   1.00
C1284  C     0.37539   0.50053   0.75943   0.00000  Uiso   1.00
C1285  C     0.51127   0.35597   0.78744   0.00000  Uiso   1.00
C1286  C     0.48876   0.64404   0.71255   0.00000  Uiso   1.00
C1287  C     0.48769   0.35820   0.71284   0.00000  Uiso   1.00
C1288  C     0.51230   0.64180   0.78716   0.00000  Uiso   1.00
C1289  C     0.49950   0.50065   0.66396   0.00000  Uiso   1.00
C1290  C     0.50051   0.49935   0.83604   0.00000  Uiso   1.00
C1291  C     0.54008   0.49499   0.90586   0.00000  Uiso   1.00
C1292  C     0.45992   0.50504   0.59414   0.00000  Uiso   1.00
C1293  C     0.50157   0.49784   0.88375   0.00000  Uiso   1.00
C1294  C     0.49843   0.50216   0.61625   0.00000  Uiso   1.00
C1295  C     0.46364   0.50073   0.90621   0.00000  Uiso   1.00
C1296  C     0.53636   0.49925   0.59379   0.00000  Uiso   1.00
C1297  C     0.46380   0.50840   0.95197   0.00000  Uiso   1.00
C1298  C     0.53621   0.49161   0.54803   0.00000  Uiso   1.00
C1299  C     0.50098   0.49988   0.97642   0.00000  Uiso   1.00
C1300  C     0.49902   0.50014   0.52358   0.00000  Uiso   1.00
C1301  C     0.54001   0.49181   0.95360   0.00000  Uiso   1.00
C1302  C     0.45999   0.50822   0.54640   0.00000  Uiso   1.00
C1303  C     0.42791   0.52468   0.97353   0.00000  Uiso   1.00
C1304  C     0.57210   0.47534   0.52647   0.00000  Uiso   1.00
N1305  N     0.50000   0.61907   0.75000   0.00000  Uiso   1.00
N1306  N     0.50000   0.38093   0.75000   0.00000  Uiso   1.00
O1307  O     0.43892   0.53821   0.74999   0.00000  Uiso   1.00
O1308  O     0.56108   0.46179   0.75000   0.00000  Uiso   1.00
O1309  O     0.56108   0.53821   0.75000   0.00000  Uiso   1.00
O1310  O     0.43892   0.46179   0.74999   0.00000  Uiso   1.00
O1311  O     0.49999   0.53823   0.68392   0.00000  Uiso   1.00
O1312  O     0.50001   0.46177   0.81607   0.00000  Uiso   1.00
O1313  O     0.50001   0.53823   0.81607   0.00000  Uiso   1.00
O1314  O     0.49999   0.46177   0.68392   0.00000  Uiso   1.00
Zn1315 Zn    0.50000   0.55104   0.75000   0.00000  Uiso   1.00
Zn1316 Zn    0.50000   0.44896   0.75000   0.00000  Uiso   1.00
Br1317 Br    0.58945   0.49587   0.86705   0.00000  Uiso   1.00
Br1318 Br    0.41055   0.50422   0.63294   0.00000  Uiso   1.00
Br1319 Br    0.41294   0.48454   0.87521   0.00000  Uiso   1.00
Br1320 Br    0.58706   0.51543   0.62480   0.00000  Uiso   1.00
Br1321 Br    0.38923   0.56358   0.94058   0.00000  Uiso   1.00
Br1322 Br    0.61077   0.43642   0.55939   0.00000  Uiso   1.00
Br1323 Br    0.36957   0.53694   0.54375   0.00000  Uiso   1.00
Br1324 Br    0.63044   0.46311   0.95624   0.00000  Uiso   1.00
Br1325 Br    0.37767   0.40586   0.78734   0.00000  Uiso   1.00
Br1326 Br    0.62227   0.59417   0.71263   0.00000  Uiso   1.00
Br1327 Br    0.62437   0.40238   0.72912   0.00000  Uiso   1.00
Br1328 Br    0.37565   0.59768   0.77064   0.00000  Uiso   1.00
C1329  C     0.52014   0.37696   0.83054   0.00000  Uiso   1.00
C1330  C     0.56176   0.38153   0.84441   0.00000  Uiso   1.00
C1331  C     0.57081   0.38653   0.88995   0.00000  Uiso   1.00
C1332  C     0.53839   0.38873   0.92164   0.00000  Uiso   1.00
C1333  C     0.49676   0.38695   0.90773   0.00000  Uiso   1.00
C1334  C     0.48758   0.38064   0.86241   0.00000  Uiso   1.00
H1335  H     0.58726   0.37741   0.82070   0.00000  Uiso   1.00
H1336  H     0.60305   0.38757   0.90074   0.00000  Uiso   1.00
H1337  H     0.54551   0.39196   0.95698   0.00000  Uiso   1.00
H1338  H     0.47168   0.38892   0.93228   0.00000  Uiso   1.00
H1339  H     0.45535   0.37608   0.85254   0.00000  Uiso   1.00
C1340  C     0.48010   0.62307   0.66939   0.00000  Uiso   1.00
C1341  C     0.43854   0.61851   0.65527   0.00000  Uiso   1.00
C1342  C     0.42974   0.61351   0.60966   0.00000  Uiso   1.00
C1343  C     0.46234   0.61126   0.57816   0.00000  Uiso   1.00
C1344  C     0.50389   0.61305   0.59234   0.00000  Uiso   1.00
C1345  C     0.51282   0.61937   0.63772   0.00000  Uiso   1.00
H1346  H     0.41292   0.62264   0.67881   0.00000  Uiso   1.00
H1347  H     0.39756   0.61249   0.59866   0.00000  Uiso   1.00
H1348  H     0.45541   0.60801   0.54279   0.00000  Uiso   1.00
H1349  H     0.52911   0.61105   0.56795   0.00000  Uiso   1.00
H1350  H     0.54500   0.62392   0.64779   0.00000  Uiso   1.00
C1351  C     0.47056   0.38145   0.67229   0.00000  Uiso   1.00
C1352  C     0.42706   0.38734   0.66855   0.00000  Uiso   1.00
C1353  C     0.40894   0.39645   0.62648   0.00000  Uiso   1.00
C1354  C     0.43415   0.40076   0.58799   0.00000  Uiso   1.00
C1355  C     0.47757   0.39625   0.59153   0.00000  Uiso   1.00
C1356  C     0.49577   0.38653   0.63342   0.00000  Uiso   1.00
H1357  H     0.40695   0.38161   0.69752   0.00000  Uiso   1.00
H1358  H     0.37528   0.39974   0.62366   0.00000  Uiso   1.00
H1359  H     0.42006   0.40783   0.55547   0.00000  Uiso   1.00
H1360  H     0.49707   0.39945   0.56169   0.00000  Uiso   1.00
H1361  H     0.52928   0.38106   0.63538   0.00000  Uiso   1.00
C1362  C     0.52939   0.61855   0.82773   0.00000  Uiso   1.00
C1363  C     0.50415   0.61348   0.86658   0.00000  Uiso   1.00
C1364  C     0.52232   0.60379   0.90848   0.00000  Uiso   1.00
C1365  C     0.56574   0.59930   0.91206   0.00000  Uiso   1.00
C1366  C     0.59098   0.60358   0.87359   0.00000  Uiso   1.00
C1367  C     0.57289   0.61266   0.83150   0.00000  Uiso   1.00
H1368  H     0.47065   0.61896   0.86458   0.00000  Uiso   1.00
H1369  H     0.50280   0.60061   0.93831   0.00000  Uiso   1.00
H1370  H     0.57981   0.59225   0.94460   0.00000  Uiso   1.00
H1371  H     0.62464   0.60030   0.87644   0.00000  Uiso   1.00
H1372  H     0.59301   0.61836   0.80255   0.00000  Uiso   1.00
C1373  C     0.75358   0.50010   0.75467   0.00000  Uiso   1.00
C1374  C     0.91308   0.49990   0.74531   0.00000  Uiso   1.00
C1375  C     0.75755   0.52096   0.52034   0.00000  Uiso   1.00
C1376  C     0.90913   0.47908   0.97965   0.00000  Uiso   1.00
C1377  C     0.68749   0.45989   0.76050   0.00000  Uiso   1.00
C1378  C     0.97916   0.54013   0.73943   0.00000  Uiso   1.00
C1379  C     0.97986   0.45906   0.74636   0.00000  Uiso   1.00
C1380  C     0.68680   0.54096   0.75354   0.00000  Uiso   1.00
C1381  C     0.95794   0.49949   0.74050   0.00000  Uiso   1.00
C1382  C     0.70872   0.50053   0.75943   0.00000  Uiso   1.00
C1383  C     0.84460   0.35597   0.78744   0.00000  Uiso   1.00
C1384  C     0.82209   0.64404   0.71255   0.00000  Uiso   1.00
C1385  C     0.82102   0.35820   0.71284   0.00000  Uiso   1.00
C1386  C     0.84563   0.64180   0.78716   0.00000  Uiso   1.00
C1387  C     0.83283   0.50065   0.66396   0.00000  Uiso   1.00
C1388  C     0.83384   0.49935   0.83604   0.00000  Uiso   1.00
C1389  C     0.87341   0.49499   0.90586   0.00000  Uiso   1.00
C1390  C     0.79326   0.50504   0.59414   0.00000  Uiso   1.00
C1391  C     0.83491   0.49784   0.88375   0.00000  Uiso   1.00
C1392  C     0.83176   0.50216   0.61625   0.00000  Uiso   1.00
C1393  C     0.79698   0.50073   0.90621   0.00000  Uiso   1.00
C1394  C     0.86969   0.49925   0.59379   0.00000  Uiso   1.00
C1395  C     0.79713   0.50840   0.95197   0.00000  Uiso   1.00
C1396  C     0.86954   0.49161   0.54803   0.00000  Uiso   1.00
C1397  C     0.83431   0.49988   0.97642   0.00000  Uiso   1.00
C1398  C     0.83236   0.50014   0.52358   0.00000  Uiso   1.00
C1399  C     0.87335   0.49181   0.95360   0.00000  Uiso   1.00
C1400  C     0.79332   0.50822   0.54640   0.00000  Uiso   1.00
C1401  C     0.76124   0.52468   0.97353   0.00000  Uiso   1.00
C1402  C     0.90543   0.47534   0.52647   0.00000  Uiso   1.00
N1403  N     0.83333   0.61907   0.75000   0.00000  Uiso   1.00
N1404  N     0.83333   0.38093   0.75000   0.00000  Uiso   1.00
O1405  O     0.77226   0.53821   0.74999   0.00000  Uiso   1.00
O1406  O     0.89441   0.46179   0.75000   0.00000  Uiso   1.00
O1407  O     0.89441   0.53821   0.75000   0.00000  Uiso   1.00
O1408  O     0.77226   0.46179   0.74999   0.00000  Uiso   1.00
O1409  O     0.83333   0.53823   0.68392   0.00000  Uiso   1.00
O1410  O     0.83334   0.46177   0.81607   0.00000  Uiso   1.00
O1411  O     0.83334   0.53823   0.81607   0.00000  Uiso   1.00
O1412  O     0.83333   0.46177   0.68392   0.00000  Uiso   1.00
Zn1413 Zn    0.83333   0.55104   0.75000   0.00000  Uiso   1.00
Zn1414 Zn    0.83333   0.44896   0.75000   0.00000  Uiso   1.00
Br1415 Br    0.92278   0.49587   0.86705   0.00000  Uiso   1.00
Br1416 Br    0.74389   0.50422   0.63294   0.00000  Uiso   1.00
Br1417 Br    0.74627   0.48454   0.87521   0.00000  Uiso   1.00
Br1418 Br    0.92040   0.51543   0.62480   0.00000  Uiso   1.00
Br1419 Br    0.72257   0.56358   0.94058   0.00000  Uiso   1.00
Br1420 Br    0.94411   0.43642   0.55939   0.00000  Uiso   1.00
Br1421 Br    0.70291   0.53694   0.54375   0.00000  Uiso   1.00
Br1422 Br    0.96377   0.46311   0.95624   0.00000  Uiso   1.00
Br1423 Br    0.71101   0.40586   0.78734   0.00000  Uiso   1.00
Br1424 Br    0.95561   0.59417   0.71263   0.00000  Uiso   1.00
Br1425 Br    0.95771   0.40238   0.72912   0.00000  Uiso   1.00
Br1426 Br    0.70899   0.59768   0.77064   0.00000  Uiso   1.00
C1427  C     0.85347   0.37696   0.83054   0.00000  Uiso   1.00
C1428  C     0.89510   0.38153   0.84441   0.00000  Uiso   1.00
C1429  C     0.90414   0.38653   0.88995   0.00000  Uiso   1.00
C1430  C     0.87172   0.38873   0.92164   0.00000  Uiso   1.00
C1431  C     0.83010   0.38695   0.90773   0.00000  Uiso   1.00
C1432  C     0.82092   0.38064   0.86241   0.00000  Uiso   1.00
H1433  H     0.92059   0.37741   0.82070   0.00000  Uiso   1.00
H1434  H     0.93638   0.38757   0.90074   0.00000  Uiso   1.00
H1435  H     0.87884   0.39196   0.95698   0.00000  Uiso   1.00
H1436  H     0.80502   0.38892   0.93228   0.00000  Uiso   1.00
H1437  H     0.78869   0.37608   0.85254   0.00000  Uiso   1.00
C1438  C     0.81343   0.62307   0.66939   0.00000  Uiso   1.00
C1439  C     0.77187   0.61851   0.65527   0.00000  Uiso   1.00
C1440  C     0.76308   0.61351   0.60966   0.00000  Uiso   1.00
C1441  C     0.79567   0.61126   0.57816   0.00000  Uiso   1.00
C1442  C     0.83722   0.61305   0.59234   0.00000  Uiso   1.00
C1443  C     0.84616   0.61937   0.63772   0.00000  Uiso   1.00
H1444  H     0.74625   0.62264   0.67881   0.00000  Uiso   1.00
H1445  H     0.73089   0.61249   0.59866   0.00000  Uiso   1.00
H1446  H     0.78875   0.60801   0.54279   0.00000  Uiso   1.00
H1447  H     0.86244   0.61105   0.56795   0.00000  Uiso   1.00
H1448  H     0.87833   0.62392   0.64779   0.00000  Uiso   1.00
C1449  C     0.80390   0.38145   0.67229   0.00000  Uiso   1.00
C1450  C     0.76039   0.38734   0.66855   0.00000  Uiso   1.00
C1451  C     0.74227   0.39645   0.62648   0.00000  Uiso   1.00
C1452  C     0.76748   0.40076   0.58799   0.00000  Uiso   1.00
C1453  C     0.81091   0.39625   0.59153   0.00000  Uiso   1.00
C1454  C     0.82910   0.38653   0.63342   0.00000  Uiso   1.00
H1455  H     0.74029   0.38161   0.69752   0.00000  Uiso   1.00
H1456  H     0.70861   0.39974   0.62366   0.00000  Uiso   1.00
H1457  H     0.75339   0.40783   0.55547   0.00000  Uiso   1.00
H1458  H     0.83040   0.39945   0.56169   0.00000  Uiso   1.00
H1459  H     0.86261   0.38106   0.63538   0.00000  Uiso   1.00
C1460  C     0.86272   0.61855   0.82773   0.00000  Uiso   1.00
C1461  C     0.83749   0.61348   0.86658   0.00000  Uiso   1.00
C1462  C     0.85566   0.60379   0.90848   0.00000  Uiso   1.00
C1463  C     0.89908   0.59930   0.91206   0.00000  Uiso   1.00
C1464  C     0.92431   0.60358   0.87359   0.00000  Uiso   1.00
C1465  C     0.90623   0.61266   0.83150   0.00000  Uiso   1.00
H1466  H     0.80398   0.61896   0.86458   0.00000  Uiso   1.00
H1467  H     0.83614   0.60061   0.93831   0.00000  Uiso   1.00
H1468  H     0.91314   0.59225   0.94460   0.00000  Uiso   1.00
H1469  H     0.95797   0.60030   0.87644   0.00000  Uiso   1.00
H1470  H     0.92635   0.61836   0.80255   0.00000  Uiso   1.00
C1471  C     0.08692   0.83343   0.75467   0.00000  Uiso   1.00
C1472  C     0.24641   0.83324   0.74531   0.00000  Uiso   1.00
C1473  C     0.09088   0.85429   0.52034   0.00000  Uiso   1.00
C1474  C     0.24246   0.81241   0.97965   0.00000  Uiso   1.00
C1475  C     0.02082   0.79322   0.76050   0.00000  Uiso   1.00
C1476  C     0.31250   0.87346   0.73943   0.00000  Uiso   1.00
C1477  C     0.31319   0.79240   0.74636   0.00000  Uiso   1.00
C1478  C     0.02014   0.87429   0.75354   0.00000  Uiso   1.00
C1479  C     0.29127   0.83282   0.74050   0.00000  Uiso   1.00
C1480  C     0.04205   0.83386   0.75943   0.00000  Uiso   1.00
C1481  C     0.17794   0.68930   0.78744   0.00000  Uiso   1.00
C1482  C     0.15542   0.97737   0.71255   0.00000  Uiso   1.00
C1483  C     0.15435   0.69153   0.71284   0.00000  Uiso   1.00
C1484  C     0.17896   0.97514   0.78716   0.00000  Uiso   1.00
C1485  C     0.16616   0.83398   0.66396   0.00000  Uiso   1.00
C1486  C     0.16717   0.83268   0.83604   0.00000  Uiso   1.00
C1487  C     0.20675   0.82832   0.90586   0.00000  Uiso   1.00
C1488  C     0.12659   0.83838   0.59414   0.00000  Uiso   1.00
C1489  C     0.16824   0.83117   0.88375   0.00000  Uiso   1.00
C1490  C     0.16510   0.83549   0.61625   0.00000  Uiso   1.00
C1491  C     0.13031   0.83407   0.90621   0.00000  Uiso   1.00
C1492  C     0.20303   0.83259   0.59379   0.00000  Uiso   1.00
C1493  C     0.13046   0.84173   0.95197   0.00000  Uiso   1.00
C1494  C     0.20287   0.82494   0.54803   0.00000  Uiso   1.00
C1495  C     0.16765   0.83321   0.97642   0.00000  Uiso   1.00
C1496  C     0.16569   0.83347   0.52358   0.00000  Uiso   1.00
C1497  C     0.20668   0.82514   0.95360   0.00000  Uiso   1.00
C1498  C     0.12666   0.84155   0.54640   0.00000  Uiso   1.00
C1499  C     0.09457   0.85801   0.97353   0.00000  Uiso   1.00
C1500  C     0.23877   0.80867   0.52647   0.00000  Uiso   1.00
N1501  N     0.16667   0.95240   0.75000   0.00000  Uiso   1.00
N1502  N     0.16667   0.71427   0.75000   0.00000  Uiso   1.00
O1503  O     0.10559   0.87154   0.74999   0.00000  Uiso   1.00
O1504  O     0.22774   0.79513   0.75000   0.00000  Uiso   1.00
O1505  O     0.22774   0.87154   0.75000   0.00000  Uiso   1.00
O1506  O     0.10559   0.79513   0.74999   0.00000  Uiso   1.00
O1507  O     0.16666   0.87156   0.68392   0.00000  Uiso   1.00
O1508  O     0.16667   0.79511   0.81607   0.00000  Uiso   1.00
O1509  O     0.16667   0.87156   0.81607   0.00000  Uiso   1.00
O1510  O     0.16666   0.79511   0.68392   0.00000  Uiso   1.00
Zn1511 Zn    0.16667   0.88437   0.75000   0.00000  Uiso   1.00
Zn1512 Zn    0.16667   0.78229   0.75000   0.00000  Uiso   1.00
Br1513 Br    0.25612   0.82921   0.86705   0.00000  Uiso   1.00
Br1514 Br    0.07722   0.83755   0.63294   0.00000  Uiso   1.00
Br1515 Br    0.07961   0.81787   0.87521   0.00000  Uiso   1.00
Br1516 Br    0.25373   0.84876   0.62480   0.00000  Uiso   1.00
Br1517 Br    0.05590   0.89691   0.94058   0.00000  Uiso   1.00
Br1518 Br    0.27744   0.76976   0.55939   0.00000  Uiso   1.00
Br1519 Br    0.03624   0.87027   0.54375   0.00000  Uiso   1.00
Br1520 Br    0.29710   0.79644   0.95624   0.00000  Uiso   1.00
Br1521 Br    0.04434   0.73919   0.78734   0.00000  Uiso   1.00
Br1522 Br    0.28894   0.92750   0.71263   0.00000  Uiso   1.00
Br1523 Br    0.29104   0.73571   0.72912   0.00000  Uiso   1.00
Br1524 Br    0.04232   0.93101   0.77064   0.00000  Uiso   1.00
C1525  C     0.18680   0.71029   0.83054   0.00000  Uiso   1.00
C1526  C     0.22843   0.71486   0.84441   0.00000  Uiso   1.00
C1527  C     0.23748   0.71986   0.88995   0.00000  Uiso   1.00
C1528  C     0.20506   0.72207   0.92164   0.00000  Uiso   1.00
C1529  C     0.16343   0.72028   0.90773   0.00000  Uiso   1.00
C1530  C     0.15425   0.71397   0.86241   0.00000  Uiso   1.00
H1531  H     0.25392   0.71075   0.82070   0.00000  Uiso   1.00
H1532  H     0.26972   0.72091   0.90074   0.00000  Uiso   1.00
H1533  H     0.21217   0.72530   0.95698   0.00000  Uiso   1.00
H1534  H     0.13835   0.72225   0.93228   0.00000  Uiso   1.00
H1535  H     0.12202   0.70942   0.85254   0.00000  Uiso   1.00
C1536  C     0.14676   0.95640   0.66939   0.00000  Uiso   1.00
C1537  C     0.10521   0.95185   0.65527   0.00000  Uiso   1.00
C1538  C     0.09641   0.94684   0.60966   0.00000  Uiso   1.00
C1539  C     0.12900   0.94460   0.57816   0.00000  Uiso   1.00
C1540  C     0.17056   0.94638   0.59234   0.00000  Uiso   1.00
C1541  C     0.17949   0.95271   0.63772   0.00000  Uiso   1.00
H1542  H     0.07958   0.95597   0.67881   0.00000  Uiso   1.00
H1543  H     0.06423   0.94582   0.59866   0.00000  Uiso   1.00
H1544  H     0.12208   0.94134   0.54279   0.00000  Uiso   1.00
H1545  H     0.19577   0.94438   0.56795   0.00000  Uiso   1.00
H1546  H     0.21167   0.95725   0.64779   0.00000  Uiso   1.00
C1547  C     0.13723   0.71478   0.67229   0.00000  Uiso   1.00
C1548  C     0.09372   0.72067   0.66855   0.00000  Uiso   1.00
C1549  C     0.07560   0.72978   0.62648   0.00000  Uiso   1.00
C1550  C     0.10082   0.73409   0.58799   0.00000  Uiso   1.00
C1551  C     0.14424   0.72958   0.59153   0.00000  Uiso   1.00
C1552  C     0.16244   0.71987   0.63342   0.00000  Uiso   1.00
H1553  H     0.07362   0.71494   0.69752   0.00000  Uiso   1.00
H1554  H     0.04194   0.73307   0.62366   0.00000  Uiso   1.00
H1555  H     0.08673   0.74117   0.55547   0.00000  Uiso   1.00
H1556  H     0.16374   0.73279   0.56169   0.00000  Uiso   1.00
H1557  H     0.19594   0.71439   0.63538   0.00000  Uiso   1.00
C1558  C     0.19606   0.95189   0.82773   0.00000  Uiso   1.00
C1559  C     0.17082   0.94682   0.86658   0.00000  Uiso   1.00
C1560  C     0.18899   0.93713   0.90848   0.00000  Uiso   1.00
C1561  C     0.23241   0.93263   0.91206   0.00000  Uiso   1.00
C1562  C     0.25765   0.93691   0.87359   0.00000  Uiso   1.00
C1563  C     0.23956   0.94599   0.83150   0.00000  Uiso   1.00
H1564  H     0.13732   0.95229   0.86458   0.00000  Uiso   1.00
H1565  H     0.16947   0.93394   0.93831   0.00000  Uiso   1.00
H1566  H     0.24648   0.92559   0.94460   0.00000  Uiso   1.00
H1567  H     0.29131   0.93364   0.87644   0.00000  Uiso   1.00
H1568  H     0.25968   0.95169   0.80255   0.00000  Uiso   1.00
C1569  C     0.42025   0.83343   0.75467   0.00000  Uiso   1.00
C1570  C     0.57974   0.83324   0.74531   0.00000  Uiso   1.00
C1571  C     0.42422   0.85429   0.52034   0.00000  Uiso   1.00
C1572  C     0.57579   0.81241   0.97965   0.00000  Uiso   1.00
C1573  C     0.35416   0.79322   0.76050   0.00000  Uiso   1.00
C1574  C     0.64583   0.87346   0.73943   0.00000  Uiso   1.00
C1575  C     0.64653   0.79240   0.74636   0.00000  Uiso   1.00
C1576  C     0.35347   0.87429   0.75354   0.00000  Uiso   1.00
C1577  C     0.62460   0.83282   0.74050   0.00000  Uiso   1.00
C1578  C     0.37539   0.83386   0.75943   0.00000  Uiso   1.00
C1579  C     0.51127   0.68930   0.78744   0.00000  Uiso   1.00
C1580  C     0.48876   0.97737   0.71255   0.00000  Uiso   1.00
C1581  C     0.48769   0.69153   0.71284   0.00000  Uiso   1.00
C1582  C     0.51230   0.97514   0.78716   0.00000  Uiso   1.00
C1583  C     0.49950   0.83398   0.66396   0.00000  Uiso   1.00
C1584  C     0.50051   0.83268   0.83604   0.00000  Uiso   1.00
C1585  C     0.54008   0.82832   0.90586   0.00000  Uiso   1.00
C1586  C     0.45992   0.83838   0.59414   0.00000  Uiso   1.00
C1587  C     0.50157   0.83117   0.88375   0.00000  Uiso   1.00
C1588  C     0.49843   0.83549   0.61625   0.00000  Uiso   1.00
C1589  C     0.46364   0.83407   0.90621   0.00000  Uiso   1.00
C1590  C     0.53636   0.83259   0.59379   0.00000  Uiso   1.00
C1591  C     0.46380   0.84173   0.95197   0.00000  Uiso   1.00
C1592  C     0.53621   0.82494   0.54803   0.00000  Uiso   1.00
C1593  C     0.50098   0.83321   0.97642   0.00000  Uiso   1.00
C1594  C     0.49902   0.83347   0.52358   0.00000  Uiso   1.00
C1595  C     0.54001   0.82514   0.95360   0.00000  Uiso   1.00
C1596  C     0.45999   0.84155   0.54640   0.00000  Uiso   1.00
C1597  C     0.42791   0.85801   0.97353   0.00000  Uiso   1.00
C1598  C     0.57210   0.80867   0.52647   0.00000  Uiso   1.00
N1599  N     0.50000   0.95240   0.75000   0.00000  Uiso   1.00
N1600  N     0.50000   0.71427   0.75000   0.00000  Uiso   1.00
O1601  O     0.43892   0.87154   0.74999   0.00000  Uiso   1.00
O1602  O     0.56108   0.79513   0.75000   0.00000  Uiso   1.00
O1603  O     0.56108   0.87154   0.75000   0.00000  Uiso   1.00
O1604  O     0.43892   0.79513   0.74999   0.00000  Uiso   1.00
O1605  O     0.49999   0.87156   0.68392   0.00000  Uiso   1.00
O1606  O     0.50001   0.79511   0.81607   0.00000  Uiso   1.00
O1607  O     0.50001   0.87156   0.81607   0.00000  Uiso   1.00
O1608  O     0.49999   0.79511   0.68392   0.00000  Uiso   1.00
Zn1609 Zn    0.50000   0.88437   0.75000   0.00000  Uiso   1.00
Zn1610 Zn    0.50000   0.78229   0.75000   0.00000  Uiso   1.00
Br1611 Br    0.58945   0.82921   0.86705   0.00000  Uiso   1.00
Br1612 Br    0.41055   0.83755   0.63294   0.00000  Uiso   1.00
Br1613 Br    0.41294   0.81787   0.87521   0.00000  Uiso   1.00
Br1614 Br    0.58706   0.84876   0.62480   0.00000  Uiso   1.00
Br1615 Br    0.38923   0.89691   0.94058   0.00000  Uiso   1.00
Br1616 Br    0.61077   0.76976   0.55939   0.00000  Uiso   1.00
Br1617 Br    0.36957   0.87027   0.54375   0.00000  Uiso   1.00
Br1618 Br    0.63044   0.79644   0.95624   0.00000  Uiso   1.00
Br1619 Br    0.37767   0.73919   0.78734   0.00000  Uiso   1.00
Br1620 Br    0.62227   0.92750   0.71263   0.00000  Uiso   1.00
Br1621 Br    0.62437   0.73571   0.72912   0.00000  Uiso   1.00
Br1622 Br    0.37565   0.93101   0.77064   0.00000  Uiso   1.00
C1623  C     0.52014   0.71029   0.83054   0.00000  Uiso   1.00
C1624  C     0.56176   0.71486   0.84441   0.00000  Uiso   1.00
C1625  C     0.57081   0.71986   0.88995   0.00000  Uiso   1.00
C1626  C     0.53839   0.72207   0.92164   0.00000  Uiso   1.00
C1627  C     0.49676   0.72028   0.90773   0.00000  Uiso   1.00
C1628  C     0.48758   0.71397   0.86241   0.00000  Uiso   1.00
H1629  H     0.58726   0.71075   0.82070   0.00000  Uiso   1.00
H1630  H     0.60305   0.72091   0.90074   0.00000  Uiso   1.00
H1631  H     0.54551   0.72530   0.95698   0.00000  Uiso   1.00
H1632  H     0.47168   0.72225   0.93228   0.00000  Uiso   1.00
H1633  H     0.45535   0.70942   0.85254   0.00000  Uiso   1.00
C1634  C     0.48010   0.95640   0.66939   0.00000  Uiso   1.00
C1635  C     0.43854   0.95185   0.65527   0.00000  Uiso   1.00
C1636  C     0.42974   0.94684   0.60966   0.00000  Uiso   1.00
C1637  C     0.46234   0.94460   0.57816   0.00000  Uiso   1.00
C1638  C     0.50389   0.94638   0.59234   0.00000  Uiso   1.00
C1639  C     0.51282   0.95271   0.63772   0.00000  Uiso   1.00
H1640  H     0.41292   0.95597   0.67881   0.00000  Uiso   1.00
H1641  H     0.39756   0.94582   0.59866   0.00000  Uiso   1.00
H1642  H     0.45541   0.94134   0.54279   0.00000  Uiso   1.00
H1643  H     0.52911   0.94438   0.56795   0.00000  Uiso   1.00
H1644  H     0.54500   0.95725   0.64779   0.00000  Uiso   1.00
C1645  C     0.47056   0.71478   0.67229   0.00000  Uiso   1.00
C1646  C     0.42706   0.72067   0.66855   0.00000  Uiso   1.00
C1647  C     0.40894   0.72978   0.62648   0.00000  Uiso   1.00
C1648  C     0.43415   0.73409   0.58799   0.00000  Uiso   1.00
C1649  C     0.47757   0.72958   0.59153   0.00000  Uiso   1.00
C1650  C     0.49577   0.71987   0.63342   0.00000  Uiso   1.00
H1651  H     0.40695   0.71494   0.69752   0.00000  Uiso   1.00
H1652  H     0.37528   0.73307   0.62366   0.00000  Uiso   1.00
H1653  H     0.42006   0.74117   0.55547   0.00000  Uiso   1.00
H1654  H     0.49707   0.73279   0.56169   0.00000  Uiso   1.00
H1655  H     0.52928   0.71439   0.63538   0.00000  Uiso   1.00
C1656  C     0.52939   0.95189   0.82773   0.00000  Uiso   1.00
C1657  C     0.50415   0.94682   0.86658   0.00000  Uiso   1.00
C1658  C     0.52232   0.93713   0.90848   0.00000  Uiso   1.00
C1659  C     0.56574   0.93263   0.91206   0.00000  Uiso   1.00
C1660  C     0.59098   0.93691   0.87359   0.00000  Uiso   1.00
C1661  C     0.57289   0.94599   0.83150   0.00000  Uiso   1.00
H1662  H     0.47065   0.95229   0.86458   0.00000  Uiso   1.00
H1663  H     0.50280   0.93394   0.93831   0.00000  Uiso   1.00
H1664  H     0.57981   0.92559   0.94460   0.00000  Uiso   1.00
H1665  H     0.62464   0.93364   0.87644   0.00000  Uiso   1.00
H1666  H     0.59301   0.95169   0.80255   0.00000  Uiso   1.00
C1667  C     0.75358   0.83343   0.75467   0.00000  Uiso   1.00
C1668  C     0.91308   0.83324   0.74531   0.00000  Uiso   1.00
C1669  C     0.75755   0.85429   0.52034   0.00000  Uiso   1.00
C1670  C     0.90913   0.81241   0.97965   0.00000  Uiso   1.00
C1671  C     0.68749   0.79322   0.76050   0.00000  Uiso   1.00
C1672  C     0.97916   0.87346   0.73943   0.00000  Uiso   1.00
C1673  C     0.97986   0.79240   0.74636   0.00000  Uiso   1.00
C1674  C     0.68680   0.87429   0.75354   0.00000  Uiso   1.00
C1675  C     0.95794   0.83282   0.74050   0.00000  Uiso   1.00
C1676  C     0.70872   0.83386   0.75943   0.00000  Uiso   1.00
C1677  C     0.84460   0.68930   0.78744   0.00000  Uiso   1.00
C1678  C     0.82209   0.97737   0.71255   0.00000  Uiso   1.00
C1679  C     0.82102   0.69153   0.71284   0.00000  Uiso   1.00
C1680  C     0.84563   0.97514   0.78716   0.00000  Uiso   1.00
C1681  C     0.83283   0.83398   0.66396   0.00000  Uiso   1.00
C1682  C     0.83384   0.83268   0.83604   0.00000  Uiso   1.00
C1683  C     0.87341   0.82832   0.90586   0.00000  Uiso   1.00
C1684  C     0.79326   0.83838   0.59414   0.00000  Uiso   1.00
C1685  C     0.83491   0.83117   0.88375   0.00000  Uiso   1.00
C1686  C     0.83176   0.83549   0.61625   0.00000  Uiso   1.00
C1687  C     0.79698   0.83407   0.90621   0.00000  Uiso   1.00
C1688  C     0.86969   0.83259   0.59379   0.00000  Uiso   1.00
C1689  C     0.79713   0.84173   0.95197   0.00000  Uiso   1.00
C1690  C     0.86954   0.82494   0.54803   0.00000  Uiso   1.00
C1691  C     0.83431   0.83321   0.97642   0.00000  Uiso   1.00
C1692  C     0.83236   0.83347   0.52358   0.00000  Uiso   1.00
C1693  C     0.87335   0.82514   0.95360   0.00000  Uiso   1.00
C1694  C     0.79332   0.84155   0.54640   0.00000  Uiso   1.00
C1695  C     0.76124   0.85801   0.97353   0.00000  Uiso   1.00
C1696  C     0.90543   0.80867   0.52647   0.00000  Uiso   1.00
N1697  N     0.83333   0.95240   0.75000   0.00000  Uiso   1.00
N1698  N     0.83333   0.71427   0.75000   0.00000  Uiso   1.00
O1699  O     0.77226   0.87154   0.74999   0.00000  Uiso   1.00
O1700  O     0.89441   0.79513   0.75000   0.00000  Uiso   1.00
O1701  O     0.89441   0.87154   0.75000   0.00000  Uiso   1.00
O1702  O     0.77226   0.79513   0.74999   0.00000  Uiso   1.00
O1703  O     0.83333   0.87156   0.68392   0.00000  Uiso   1.00
O1704  O     0.83334   0.79511   0.81607   0.00000  Uiso   1.00
O1705  O     0.83334   0.87156   0.81607   0.00000  Uiso   1.00
O1706  O     0.83333   0.79511   0.68392   0.00000  Uiso   1.00
Zn1707 Zn    0.83333   0.88437   0.75000   0.00000  Uiso   1.00
Zn1708 Zn    0.83333   0.78229   0.75000   0.00000  Uiso   1.00
Br1709 Br    0.92278   0.82921   0.86705   0.00000  Uiso   1.00
Br1710 Br    0.74389   0.83755   0.63294   0.00000  Uiso   1.00
Br1711 Br    0.74627   0.81787   0.87521   0.00000  Uiso   1.00
Br1712 Br    0.92040   0.84876   0.62480   0.00000  Uiso   1.00
Br1713 Br    0.72257   0.89691   0.94058   0.00000  Uiso   1.00
Br1714 Br    0.94411   0.76976   0.55939   0.00000  Uiso   1.00
Br1715 Br    0.70291   0.87027   0.54375   0.00000  Uiso   1.00
Br1716 Br    0.96377   0.79644   0.95624   0.00000  Uiso   1.00
Br1717 Br    0.71101   0.73919   0.78734   0.00000  Uiso   1.00
Br1718 Br    0.95561   0.92750   0.71263   0.00000  Uiso   1.00
Br1719 Br    0.95771   0.73571   0.72912   0.00000  Uiso   1.00
Br1720 Br    0.70899   0.93101   0.77064   0.00000  Uiso   1.00
C1721  C     0.85347   0.71029   0.83054   0.00000  Uiso   1.00
C1722  C     0.89510   0.71486   0.84441   0.00000  Uiso   1.00
C1723  C     0.90414   0.71986   0.88995   0.00000  Uiso   1.00
C1724  C     0.87172   0.72207   0.92164   0.00000  Uiso   1.00
C1725  C     0.83010   0.72028   0.90773   0.00000  Uiso   1.00
C1726  C     0.82092   0.71397   0.86241   0.00000  Uiso   1.00
H1727  H     0.92059   0.71075   0.82070   0.00000  Uiso   1.00
H1728  H     0.93638   0.72091   0.90074   0.00000  Uiso   1.00
H1729  H     0.87884   0.72530   0.95698   0.00000  Uiso   1.00
H1730  H     0.80502   0.72225   0.93228   0.00000  Uiso   1.00
H1731  H     0.78869   0.70942   0.85254   0.00000  Uiso   1.00
C1732  C     0.81343   0.95640   0.66939   0.00000  Uiso   1.00
C1733  C     0.77187   0.95185   0.65527   0.00000  Uiso   1.00
C1734  C     0.76308   0.94684   0.60966   0.00000  Uiso   1.00
C1735  C     0.79567   0.94460   0.57816   0.00000  Uiso   1.00
C1736  C     0.83722   0.94638   0.59234   0.00000  Uiso   1.00
C1737  C     0.84616   0.95271   0.63772   0.00000  Uiso   1.00
H1738  H     0.74625   0.95597   0.67881   0.00000  Uiso   1.00
H1739  H     0.73089   0.94582   0.59866   0.00000  Uiso   1.00
H1740  H     0.78875   0.94134   0.54279   0.00000  Uiso   1.00
H1741  H     0.86244   0.94438   0.56795   0.00000  Uiso   1.00
H1742  H     0.87833   0.95725   0.64779   0.00000  Uiso   1.00
C1743  C     0.80390   0.71478   0.67229   0.00000  Uiso   1.00
C1744  C     0.76039   0.72067   0.66855   0.00000  Uiso   1.00
C1745  C     0.74227   0.72978   0.62648   0.00000  Uiso   1.00
C1746  C     0.76748   0.73409   0.58799   0.00000  Uiso   1.00
C1747  C     0.81091   0.72958   0.59153   0.00000  Uiso   1.00
C1748  C     0.82910   0.71987   0.63342   0.00000  Uiso   1.00
H1749  H     0.74029   0.71494   0.69752   0.00000  Uiso   1.00
H1750  H     0.70861   0.73307   0.62366   0.00000  Uiso   1.00
H1751  H     0.75339   0.74117   0.55547   0.00000  Uiso   1.00
H1752  H     0.83040   0.73279   0.56169   0.00000  Uiso   1.00
H1753  H     0.86261   0.71439   0.63538   0.00000  Uiso   1.00
C1754  C     0.86272   0.95189   0.82773   0.00000  Uiso   1.00
C1755  C     0.83749   0.94682   0.86658   0.00000  Uiso   1.00
C1756  C     0.85566   0.93713   0.90848   0.00000  Uiso   1.00
C1757  C     0.89908   0.93263   0.91206   0.00000  Uiso   1.00
C1758  C     0.92431   0.93691   0.87359   0.00000  Uiso   1.00
C1759  C     0.90623   0.94599   0.83150   0.00000  Uiso   1.00
H1760  H     0.80398   0.95229   0.86458   0.00000  Uiso   1.00
H1761  H     0.83614   0.93394   0.93831   0.00000  Uiso   1.00
H1762  H     0.91314   0.92559   0.94460   0.00000  Uiso   1.00
H1763  H     0.95797   0.93364   0.87644   0.00000  Uiso   1.00
H1764  H     0.92635   0.95169   0.80255   0.00000  Uiso   1.00
loop_
_geom_bond_atom_site_label_1
_geom_bond_atom_site_label_2
_geom_bond_distance
_geom_bond_site_symmetry_2
_ccdc_geom_bond_type
C1     O33     1.305   .     A
C1     C10     1.439   .     S
C1     O36     1.310   .     A
C2     O35     1.309   .     A
C2     O34     1.305   .     A
C2     C9      1.439   .     S
C3     Br49    1.938   .     S
C3     C28     1.427   .     A
C3     C911    1.395   1_554 S
C4     Br50    1.938   .     S
C4     C27     1.427   .     A
C4     C912    1.395   .     S
C5     C10     1.408   .     A
C5     Br51    1.943   .     S
C5     C203    1.377   1_455 S
C6     C9      1.408   .     A
C6     Br52    1.943   .     S
C6     C106    1.377   .     S
C7     Br53    1.944   .     S
C7     C9      1.410   .     A
C7     C103    1.377   .     S
C8     Br54    1.944   .     S
C8     C10     1.411   .     A
C8     C202    1.377   1_455 S
C11    C55     1.476   .     S
C11    N32     1.373   .     A
C11    C602    1.437   1_545 S
C12    C66     1.476   .     S
C12    N31     1.373   .     A
C12    C307    1.437   .     S
C13    N32     1.379   .     A
C13    C77     1.481   .     S
C13    C600    1.437   1_545 S
C14    N31     1.379   .     A
C14    C88     1.481   .     S
C14    C305    1.437   .     S
C15    O37     1.298   .     A
C15    C20     1.416   .     S
C15    O40     1.301   .     A
C16    C19     1.416   .     S
C16    O39     1.301   .     A
C16    O38     1.298   .     A
C17    C27     1.418   .     A
C17    Br43    1.947   .     S
C17    C19     1.398   .     A
C18    C28     1.418   .     A
C18    Br44    1.947   .     S
C18    C20     1.398   .     A
C19    C21     1.383   .     A
C20    C22     1.383   .     A
C21    Br45    1.941   .     S
C21    C23     1.385   .     A
C22    Br46    1.941   .     S
C22    C24     1.385   .     A
C23    C29     1.403   .     A
C23    C25     1.413   .     A
C24    C26     1.413   .     A
C24    C30     1.403   .     A
C25    C27     1.438   .     A
C25    C908    1.401   .     S
C26    C28     1.438   .     A
C26    C907    1.401   1_554 S
C29    Br47    1.946   .     S
C29    C885    1.395   .     S
C30    Br48    1.946   .     S
C30    C886    1.395   1_554 S
N31    Zn41    2.058   .     S
N32    Zn42    2.058   .     S
O33    Zn41    1.992   .     S
O34    Zn42    1.992   .     S
O35    Zn41    1.986   .     S
O36    Zn42    1.986   .     S
O37    Zn41    2.011   .     S
O38    Zn42    2.011   .     S
O39    Zn41    1.988   .     S
O40    Zn42    1.988   .     S
C55    C56     1.403   .     A
C55    C60     1.408   .     A
C56    C57     1.397   .     A
C56    H61     1.082   .     S
C57    H62     1.081   .     S
C57    C58     1.398   .     A
C58    C59     1.396   .     A
C58    H63     1.082   .     S
C59    H64     1.082   .     S
C59    C60     1.398   .     A
C60    H65     1.083   .     S
C66    C67     1.403   .     A
C66    C71     1.408   .     A
C67    H72     1.082   .     S
C67    C68     1.397   .     A
C68    C69     1.398   .     A
C68    H73     1.081   .     S
C69    H74     1.082   .     S
C69    C70     1.397   .     A
C70    C71     1.398   .     A
C70    H75     1.082   .     S
C71    H76     1.083   .     S
C77    C78     1.404   .     A
C77    C82     1.409   .     A
C78    H83     1.081   .     S
C78    C79     1.398   .     A
C79    H84     1.082   .     S
C79    C80     1.398   .     A
C80    H85     1.082   .     S
C80    C81     1.397   .     A
C81    C82     1.398   .     A
C81    H86     1.082   .     S
C82    H87     1.083   .     S
C88    C93     1.404   .     A
C88    C89     1.409   .     A
C89    H94     1.083   .     S
C89    C90     1.398   .     A
C90    H95     1.082   .     S
C90    C91     1.397   .     A
C91    H96     1.082   .     S
C91    C92     1.398   .     A
C92    H97     1.082   .     S
C92    C93     1.398   .     A
C93    H98     1.081   .     S
C99    O131    1.305   .     A
C99    C108    1.439   .     S
C99    O134    1.310   .     A
C100   O133    1.309   .     A
C100   O132    1.305   .     A
C100   C107    1.439   .     S
C101   Br147   1.938   .     S
C101   C126    1.427   .     A
C101   C1009   1.395   1_554 S
C102   Br148   1.938   .     S
C102   C125    1.427   .     A
C102   C1010   1.395   .     S
C103   C108    1.408   .     A
C103   Br149   1.943   .     S
C104   C107    1.408   .     A
C104   Br150   1.943   .     S
C104   C204    1.377   .     S
C105   Br151   1.944   .     S
C105   C107    1.410   .     A
C105   C201    1.377   .     S
C106   Br152   1.944   .     S
C106   C108    1.411   .     A
C109   C153    1.476   .     S
C109   N130    1.373   .     A
C109   C700    1.437   1_545 S
C110   C164    1.476   .     S
C110   N129    1.373   .     A
C110   C405    1.437   .     S
C111   N130    1.379   .     A
C111   C175    1.481   .     S
C111   C698    1.437   1_545 S
C112   N129    1.379   .     A
C112   C186    1.481   .     S
C112   C403    1.437   .     S
C113   O135    1.298   .     A
C113   C118    1.416   .     S
C113   O138    1.301   .     A
C114   C117    1.416   .     S
C114   O137    1.301   .     A
C114   O136    1.298   .     A
C115   C125    1.418   .     A
C115   Br141   1.947   .     S
C115   C117    1.398   .     A
C116   C126    1.418   .     A
C116   Br142   1.947   .     S
C116   C118    1.398   .     A
C117   C119    1.383   .     A
C118   C120    1.383   .     A
C119   Br143   1.941   .     S
C119   C121    1.385   .     A
C120   Br144   1.941   .     S
C120   C122    1.385   .     A
C121   C127    1.403   .     A
C121   C123    1.413   .     A
C122   C124    1.413   .     A
C122   C128    1.403   .     A
C123   C125    1.438   .     A
C123   C1006   1.401   .     S
C124   C126    1.438   .     A
C124   C1005   1.401   1_554 S
C127   Br145   1.946   .     S
C127   C983    1.395   .     S
C128   Br146   1.946   .     S
C128   C984    1.395   1_554 S
N129   Zn139   2.058   .     S
N130   Zn140   2.058   .     S
O131   Zn139   1.992   .     S
O132   Zn140   1.992   .     S
O133   Zn139   1.986   .     S
O134   Zn140   1.986   .     S
O135   Zn139   2.011   .     S
O136   Zn140   2.011   .     S
O137   Zn139   1.988   .     S
O138   Zn140   1.988   .     S
C153   C154    1.403   .     A
C153   C158    1.408   .     A
C154   C155    1.397   .     A
C154   H159    1.082   .     S
C155   H160    1.081   .     S
C155   C156    1.398   .     A
C156   C157    1.396   .     A
C156   H161    1.082   .     S
C157   H162    1.082   .     S
C157   C158    1.398   .     A
C158   H163    1.083   .     S
C164   C165    1.403   .     A
C164   C169    1.408   .     A
C165   H170    1.082   .     S
C165   C166    1.397   .     A
C166   C167    1.398   .     A
C166   H171    1.081   .     S
C167   H172    1.082   .     S
C167   C168    1.397   .     A
C168   C169    1.398   .     A
C168   H173    1.082   .     S
C169   H174    1.083   .     S
C175   C176    1.404   .     A
C175   C180    1.409   .     A
C176   H181    1.081   .     S
C176   C177    1.398   .     A
C177   H182    1.082   .     S
C177   C178    1.398   .     A
C178   H183    1.082   .     S
C178   C179    1.397   .     A
C179   C180    1.398   .     A
C179   H184    1.082   .     S
C180   H185    1.083   .     S
C186   C191    1.404   .     A
C186   C187    1.409   .     A
C187   H192    1.083   .     S
C187   C188    1.398   .     A
C188   H193    1.082   .     S
C188   C189    1.397   .     A
C189   H194    1.082   .     S
C189   C190    1.398   .     A
C190   H195    1.082   .     S
C190   C191    1.398   .     A
C191   H196    1.081   .     S
C197   O229    1.305   .     A
C197   C206    1.439   .     S
C197   O232    1.310   .     A
C198   O231    1.309   .     A
C198   O230    1.305   .     A
C198   C205    1.439   .     S
C199   Br245   1.938   .     S
C199   C224    1.427   .     A
C199   C1107   1.395   1_554 S
C200   Br246   1.938   .     S
C200   C223    1.427   .     A
C200   C1108   1.395   .     S
C201   C206    1.408   .     A
C201   Br247   1.943   .     S
C202   C205    1.408   .     A
C202   Br248   1.943   .     S
C202   C8      1.377   1_655 S
C203   Br249   1.944   .     S
C203   C205    1.410   .     A
C203   C5      1.377   1_655 S
C204   Br250   1.944   .     S
C204   C206    1.411   .     A
C207   C251    1.476   .     S
C207   N228    1.373   .     A
C207   C798    1.437   1_545 S
C208   C262    1.476   .     S
C208   N227    1.373   .     A
C208   C503    1.437   .     S
C209   N228    1.379   .     A
C209   C273    1.481   .     S
C209   C796    1.437   1_545 S
C210   N227    1.379   .     A
C210   C284    1.481   .     S
C210   C501    1.437   .     S
C211   O233    1.298   .     A
C211   C216    1.416   .     S
C211   O236    1.301   .     A
C212   C215    1.416   .     S
C212   O235    1.301   .     A
C212   O234    1.298   .     A
C213   C223    1.418   .     A
C213   Br239   1.947   .     S
C213   C215    1.398   .     A
C214   C224    1.418   .     A
C214   Br240   1.947   .     S
C214   C216    1.398   .     A
C215   C217    1.383   .     A
C216   C218    1.383   .     A
C217   Br241   1.941   .     S
C217   C219    1.385   .     A
C218   Br242   1.941   .     S
C218   C220    1.385   .     A
C219   C225    1.403   .     A
C219   C221    1.413   .     A
C220   C222    1.413   .     A
C220   C226    1.403   .     A
C221   C223    1.438   .     A
C221   C1104   1.401   .     S
C222   C224    1.438   .     A
C222   C1103   1.401   1_554 S
C225   Br243   1.946   .     S
C225   C1081   1.395   .     S
C226   Br244   1.946   .     S
C226   C1082   1.395   1_554 S
N227   Zn237   2.058   .     S
N228   Zn238   2.058   .     S
O229   Zn237   1.992   .     S
O230   Zn238   1.992   .     S
O231   Zn237   1.986   .     S
O232   Zn238   1.986   .     S
O233   Zn237   2.011   .     S
O234   Zn238   2.011   .     S
O235   Zn237   1.988   .     S
O236   Zn238   1.988   .     S
C251   C252    1.403   .     A
C251   C256    1.408   .     A
C252   C253    1.397   .     A
C252   H257    1.082   .     S
C253   H258    1.081   .     S
C253   C254    1.398   .     A
C254   C255    1.396   .     A
C254   H259    1.082   .     S
C255   H260    1.082   .     S
C255   C256    1.398   .     A
C256   H261    1.083   .     S
C262   C263    1.403   .     A
C262   C267    1.408   .     A
C263   H268    1.082   .     S
C263   C264    1.397   .     A
C264   C265    1.398   .     A
C264   H269    1.081   .     S
C265   H270    1.082   .     S
C265   C266    1.397   .     A
C266   C267    1.398   .     A
C266   H271    1.082   .     S
C267   H272    1.083   .     S
C273   C274    1.404   .     A
C273   C278    1.409   .     A
C274   H279    1.081   .     S
C274   C275    1.398   .     A
C275   H280    1.082   .     S
C275   C276    1.398   .     A
C276   H281    1.082   .     S
C276   C277    1.397   .     A
C277   C278    1.398   .     A
C277   H282    1.082   .     S
C278   H283    1.083   .     S
C284   C289    1.404   .     A
C284   C285    1.409   .     A
C285   H290    1.083   .     S
C285   C286    1.398   .     A
C286   H291    1.082   .     S
C286   C287    1.397   .     A
C287   H292    1.082   .     S
C287   C288    1.398   .     A
C288   H293    1.082   .     S
C288   C289    1.398   .     A
C289   H294    1.081   .     S
C295   O327    1.305   .     A
C295   C304    1.439   .     S
C295   O330    1.310   .     A
C296   O329    1.309   .     A
C296   O328    1.305   .     A
C296   C303    1.439   .     S
C297   Br343   1.938   .     S
C297   C322    1.427   .     A
C297   C1205   1.395   1_554 S
C298   Br344   1.938   .     S
C298   C321    1.427   .     A
C298   C1206   1.395   .     S
C299   C304    1.408   .     A
C299   Br345   1.943   .     S
C299   C497    1.377   1_455 S
C300   C303    1.408   .     A
C300   Br346   1.943   .     S
C300   C400    1.377   .     S
C301   Br347   1.944   .     S
C301   C303    1.410   .     A
C301   C397    1.377   .     S
C302   Br348   1.944   .     S
C302   C304    1.411   .     A
C302   C496    1.377   1_455 S
C305   C349    1.476   .     S
C305   N326    1.373   .     A
C306   C360    1.476   .     S
C306   N325    1.373   .     A
C306   C601    1.437   .     S
C307   N326    1.379   .     A
C307   C371    1.481   .     S
C308   N325    1.379   .     A
C308   C382    1.481   .     S
C308   C599    1.437   .     S
C309   O331    1.298   .     A
C309   C314    1.416   .     S
C309   O334    1.301   .     A
C310   C313    1.416   .     S
C310   O333    1.301   .     A
C310   O332    1.298   .     A
C311   C321    1.418   .     A
C311   Br337   1.947   .     S
C311   C313    1.398   .     A
C312   C322    1.418   .     A
C312   Br338   1.947   .     S
C312   C314    1.398   .     A
C313   C315    1.383   .     A
C314   C316    1.383   .     A
C315   Br339   1.941   .     S
C315   C317    1.385   .     A
C316   Br340   1.941   .     S
C316   C318    1.385   .     A
C317   C323    1.403   .     A
C317   C319    1.413   .     A
C318   C320    1.413   .     A
C318   C324    1.403   .     A
C319   C321    1.438   .     A
C319   C1202   1.401   .     S
C320   C322    1.438   .     A
C320   C1201   1.401   1_554 S
C323   Br341   1.946   .     S
C323   C1179   1.395   .     S
C324   Br342   1.946   .     S
C324   C1180   1.395   1_554 S
N325   Zn335   2.058   .     S
N326   Zn336   2.058   .     S
O327   Zn335   1.992   .     S
O328   Zn336   1.992   .     S
O329   Zn335   1.986   .     S
O330   Zn336   1.986   .     S
O331   Zn335   2.011   .     S
O332   Zn336   2.011   .     S
O333   Zn335   1.988   .     S
O334   Zn336   1.988   .     S
C349   C350    1.403   .     A
C349   C354    1.408   .     A
C350   C351    1.397   .     A
C350   H355    1.082   .     S
C351   H356    1.081   .     S
C351   C352    1.398   .     A
C352   C353    1.396   .     A
C352   H357    1.082   .     S
C353   H358    1.082   .     S
C353   C354    1.398   .     A
C354   H359    1.083   .     S
C360   C361    1.403   .     A
C360   C365    1.408   .     A
C361   H366    1.082   .     S
C361   C362    1.397   .     A
C362   C363    1.398   .     A
C362   H367    1.081   .     S
C363   H368    1.082   .     S
C363   C364    1.397   .     A
C364   C365    1.398   .     A
C364   H369    1.082   .     S
C365   H370    1.083   .     S
C371   C372    1.404   .     A
C371   C376    1.409   .     A
C372   H377    1.081   .     S
C372   C373    1.398   .     A
C373   H378    1.082   .     S
C373   C374    1.398   .     A
C374   H379    1.082   .     S
C374   C375    1.397   .     A
C375   C376    1.398   .     A
C375   H380    1.082   .     S
C376   H381    1.083   .     S
C382   C387    1.404   .     A
C382   C383    1.409   .     A
C383   H388    1.083   .     S
C383   C384    1.398   .     A
C384   H389    1.082   .     S
C384   C385    1.397   .     A
C385   H390    1.082   .     S
C385   C386    1.398   .     A
C386   H391    1.082   .     S
C386   C387    1.398   .     A
C387   H392    1.081   .     S
C393   O425    1.305   .     A
C393   C402    1.439   .     S
C393   O428    1.310   .     A
C394   O427    1.309   .     A
C394   O426    1.305   .     A
C394   C401    1.439   .     S
C395   Br441   1.938   .     S
C395   C420    1.427   .     A
C395   C1303   1.395   1_554 S
C396   Br442   1.938   .     S
C396   C419    1.427   .     A
C396   C1304   1.395   .     S
C397   C402    1.408   .     A
C397   Br443   1.943   .     S
C398   C401    1.408   .     A
C398   Br444   1.943   .     S
C398   C498    1.377   .     S
C399   Br445   1.944   .     S
C399   C401    1.410   .     A
C399   C495    1.377   .     S
C400   Br446   1.944   .     S
C400   C402    1.411   .     A
C403   C447    1.476   .     S
C403   N424    1.373   .     A
C404   C458    1.476   .     S
C404   N423    1.373   .     A
C404   C699    1.437   .     S
C405   N424    1.379   .     A
C405   C469    1.481   .     S
C406   N423    1.379   .     A
C406   C480    1.481   .     S
C406   C697    1.437   .     S
C407   O429    1.298   .     A
C407   C412    1.416   .     S
C407   O432    1.301   .     A
C408   C411    1.416   .     S
C408   O431    1.301   .     A
C408   O430    1.298   .     A
C409   C419    1.418   .     A
C409   Br435   1.947   .     S
C409   C411    1.398   .     A
C410   C420    1.418   .     A
C410   Br436   1.947   .     S
C410   C412    1.398   .     A
C411   C413    1.383   .     A
C412   C414    1.383   .     A
C413   Br437   1.941   .     S
C413   C415    1.385   .     A
C414   Br438   1.941   .     S
C414   C416    1.385   .     A
C415   C421    1.403   .     A
C415   C417    1.413   .     A
C416   C418    1.413   .     A
C416   C422    1.403   .     A
C417   C419    1.438   .     A
C417   C1300   1.401   .     S
C418   C420    1.438   .     A
C418   C1299   1.401   1_554 S
C421   Br439   1.946   .     S
C421   C1277   1.395   .     S
C422   Br440   1.946   .     S
C422   C1278   1.395   1_554 S
N423   Zn433   2.058   .     S
N424   Zn434   2.058   .     S
O425   Zn433   1.992   .     S
O426   Zn434   1.992   .     S
O427   Zn433   1.986   .     S
O428   Zn434   1.986   .     S
O429   Zn433   2.011   .     S
O430   Zn434   2.011   .     S
O431   Zn433   1.988   .     S
O432   Zn434   1.988   .     S
C447   C448    1.403   .     A
C447   C452    1.408   .     A
C448   C449    1.397   .     A
C448   H453    1.082   .     S
C449   H454    1.081   .     S
C449   C450    1.398   .     A
C450   C451    1.396   .     A
C450   H455    1.082   .     S
C451   H456    1.082   .     S
C451   C452    1.398   .     A
C452   H457    1.083   .     S
C458   C459    1.403   .     A
C458   C463    1.408   .     A
C459   H464    1.082   .     S
C459   C460    1.397   .     A
C460   C461    1.398   .     A
C460   H465    1.081   .     S
C461   H466    1.082   .     S
C461   C462    1.397   .     A
C462   C463    1.398   .     A
C462   H467    1.082   .     S
C463   H468    1.083   .     S
C469   C470    1.404   .     A
C469   C474    1.409   .     A
C470   H475    1.081   .     S
C470   C471    1.398   .     A
C471   H476    1.082   .     S
C471   C472    1.398   .     A
C472   H477    1.082   .     S
C472   C473    1.397   .     A
C473   C474    1.398   .     A
C473   H478    1.082   .     S
C474   H479    1.083   .     S
C480   C485    1.404   .     A
C480   C481    1.409   .     A
C481   H486    1.083   .     S
C481   C482    1.398   .     A
C482   H487    1.082   .     S
C482   C483    1.397   .     A
C483   H488    1.082   .     S
C483   C484    1.398   .     A
C484   H489    1.082   .     S
C484   C485    1.398   .     A
C485   H490    1.081   .     S
C491   O523    1.305   .     A
C491   C500    1.439   .     S
C491   O526    1.310   .     A
C492   O525    1.309   .     A
C492   O524    1.305   .     A
C492   C499    1.439   .     S
C493   Br539   1.938   .     S
C493   C518    1.427   .     A
C493   C1401   1.395   1_554 S
C494   Br540   1.938   .     S
C494   C517    1.427   .     A
C494   C1402   1.395   .     S
C495   C500    1.408   .     A
C495   Br541   1.943   .     S
C496   C499    1.408   .     A
C496   Br542   1.943   .     S
C496   C302    1.377   1_655 S
C497   Br543   1.944   .     S
C497   C499    1.410   .     A
C497   C299    1.377   1_655 S
C498   Br544   1.944   .     S
C498   C500    1.411   .     A
C501   C545    1.476   .     S
C501   N522    1.373   .     A
C502   C556    1.476   .     S
C502   N521    1.373   .     A
C502   C797    1.437   .     S
C503   N522    1.379   .     A
C503   C567    1.481   .     S
C504   N521    1.379   .     A
C504   C578    1.481   .     S
C504   C795    1.437   .     S
C505   O527    1.298   .     A
C505   C510    1.416   .     S
C505   O530    1.301   .     A
C506   C509    1.416   .     S
C506   O529    1.301   .     A
C506   O528    1.298   .     A
C507   C517    1.418   .     A
C507   Br533   1.947   .     S
C507   C509    1.398   .     A
C508   C518    1.418   .     A
C508   Br534   1.947   .     S
C508   C510    1.398   .     A
C509   C511    1.383   .     A
C510   C512    1.383   .     A
C511   Br535   1.941   .     S
C511   C513    1.385   .     A
C512   Br536   1.941   .     S
C512   C514    1.385   .     A
C513   C519    1.403   .     A
C513   C515    1.413   .     A
C514   C516    1.413   .     A
C514   C520    1.403   .     A
C515   C517    1.438   .     A
C515   C1398   1.401   .     S
C516   C518    1.438   .     A
C516   C1397   1.401   1_554 S
C519   Br537   1.946   .     S
C519   C1375   1.395   .     S
C520   Br538   1.946   .     S
C520   C1376   1.395   1_554 S
N521   Zn531   2.058   .     S
N522   Zn532   2.058   .     S
O523   Zn531   1.992   .     S
O524   Zn532   1.992   .     S
O525   Zn531   1.986   .     S
O526   Zn532   1.986   .     S
O527   Zn531   2.011   .     S
O528   Zn532   2.011   .     S
O529   Zn531   1.988   .     S
O530   Zn532   1.988   .     S
C545   C546    1.403   .     A
C545   C550    1.408   .     A
C546   C547    1.397   .     A
C546   H551    1.082   .     S
C547   H552    1.081   .     S
C547   C548    1.398   .     A
C548   C549    1.396   .     A
C548   H553    1.082   .     S
C549   H554    1.082   .     S
C549   C550    1.398   .     A
C550   H555    1.083   .     S
C556   C557    1.403   .     A
C556   C561    1.408   .     A
C557   H562    1.082   .     S
C557   C558    1.397   .     A
C558   C559    1.398   .     A
C558   H563    1.081   .     S
C559   H564    1.082   .     S
C559   C560    1.397   .     A
C560   C561    1.398   .     A
C560   H565    1.082   .     S
C561   H566    1.083   .     S
C567   C568    1.404   .     A
C567   C572    1.409   .     A
C568   H573    1.081   .     S
C568   C569    1.398   .     A
C569   H574    1.082   .     S
C569   C570    1.398   .     A
C570   H575    1.082   .     S
C570   C571    1.397   .     A
C571   C572    1.398   .     A
C571   H576    1.082   .     S
C572   H577    1.083   .     S
C578   C583    1.404   .     A
C578   C579    1.409   .     A
C579   H584    1.083   .     S
C579   C580    1.398   .     A
C580   H585    1.082   .     S
C580   C581    1.397   .     A
C581   H586    1.082   .     S
C581   C582    1.398   .     A
C582   H587    1.082   .     S
C582   C583    1.398   .     A
C583   H588    1.081   .     S
C589   O621    1.305   .     A
C589   C598    1.439   .     S
C589   O624    1.310   .     A
C590   O623    1.309   .     A
C590   O622    1.305   .     A
C590   C597    1.439   .     S
C591   Br637   1.938   .     S
C591   C616    1.427   .     A
C591   C1499   1.395   1_554 S
C592   Br638   1.938   .     S
C592   C615    1.427   .     A
C592   C1500   1.395   .     S
C593   C598    1.408   .     A
C593   Br639   1.943   .     S
C593   C791    1.377   1_455 S
C594   C597    1.408   .     A
C594   Br640   1.943   .     S
C594   C694    1.377   .     S
C595   Br641   1.944   .     S
C595   C597    1.410   .     A
C595   C691    1.377   .     S
C596   Br642   1.944   .     S
C596   C598    1.411   .     A
C596   C790    1.377   1_455 S
C599   C643    1.476   .     S
C599   N620    1.373   .     A
C600   C654    1.476   .     S
C600   N619    1.373   .     A
C600   C13     1.437   1_565 S
C601   N620    1.379   .     A
C601   C665    1.481   .     S
C602   N619    1.379   .     A
C602   C676    1.481   .     S
C602   C11     1.437   1_565 S
C603   O625    1.298   .     A
C603   C608    1.416   .     S
C603   O628    1.301   .     A
C604   C607    1.416   .     S
C604   O627    1.301   .     A
C604   O626    1.298   .     A
C605   C615    1.418   .     A
C605   Br631   1.947   .     S
C605   C607    1.398   .     A
C606   C616    1.418   .     A
C606   Br632   1.947   .     S
C606   C608    1.398   .     A
C607   C609    1.383   .     A
C608   C610    1.383   .     A
C609   Br633   1.941   .     S
C609   C611    1.385   .     A
C610   Br634   1.941   .     S
C610   C612    1.385   .     A
C611   C617    1.403   .     A
C611   C613    1.413   .     A
C612   C614    1.413   .     A
C612   C618    1.403   .     A
C613   C615    1.438   .     A
C613   C1496   1.401   .     S
C614   C616    1.438   .     A
C614   C1495   1.401   1_554 S
C617   Br635   1.946   .     S
C617   C1473   1.395   .     S
C618   Br636   1.946   .     S
C618   C1474   1.395   1_554 S
N619   Zn629   2.058   .     S
N620   Zn630   2.058   .     S
O621   Zn629   1.992   .     S
O622   Zn630   1.992   .     S
O623   Zn629   1.986   .     S
O624   Zn630   1.986   .     S
O625   Zn629   2.011   .     S
O626   Zn630   2.011   .     S
O627   Zn629   1.988   .     S
O628   Zn630   1.988   .     S
C643   C644    1.403   .     A
C643   C648    1.408   .     A
C644   C645    1.397   .     A
C644   H649    1.082   .     S
C645   H650    1.081   .     S
C645   C646    1.398   .     A
C646   C647    1.396   .     A
C646   H651    1.082   .     S
C647   H652    1.082   .     S
C647   C648    1.398   .     A
C648   H653    1.083   .     S
C654   C655    1.403   .     A
C654   C659    1.408   .     A
C655   H660    1.082   .     S
C655   C656    1.397   .     A
C656   C657    1.398   .     A
C656   H661    1.081   .     S
C657   H662    1.082   .     S
C657   C658    1.397   .     A
C658   C659    1.398   .     A
C658   H663    1.082   .     S
C659   H664    1.083   .     S
C665   C666    1.404   .     A
C665   C670    1.409   .     A
C666   H671    1.081   .     S
C666   C667    1.398   .     A
C667   H672    1.082   .     S
C667   C668    1.398   .     A
C668   H673    1.082   .     S
C668   C669    1.397   .     A
C669   C670    1.398   .     A
C669   H674    1.082   .     S
C670   H675    1.083   .     S
C676   C681    1.404   .     A
C676   C677    1.409   .     A
C677   H682    1.083   .     S
C677   C678    1.398   .     A
C678   H683    1.082   .     S
C678   C679    1.397   .     A
C679   H684    1.082   .     S
C679   C680    1.398   .     A
C680   H685    1.082   .     S
C680   C681    1.398   .     A
C681   H686    1.081   .     S
C687   O719    1.305   .     A
C687   C696    1.439   .     S
C687   O722    1.310   .     A
C688   O721    1.309   .     A
C688   O720    1.305   .     A
C688   C695    1.439   .     S
C689   Br735   1.938   .     S
C689   C714    1.427   .     A
C689   C1597   1.395   1_554 S
C690   Br736   1.938   .     S
C690   C713    1.427   .     A
C690   C1598   1.395   .     S
C691   C696    1.408   .     A
C691   Br737   1.943   .     S
C692   C695    1.408   .     A
C692   Br738   1.943   .     S
C692   C792    1.377   .     S
C693   Br739   1.944   .     S
C693   C695    1.410   .     A
C693   C789    1.377   .     S
C694   Br740   1.944   .     S
C694   C696    1.411   .     A
C697   C741    1.476   .     S
C697   N718    1.373   .     A
C698   C752    1.476   .     S
C698   N717    1.373   .     A
C698   C111    1.437   1_565 S
C699   N718    1.379   .     A
C699   C763    1.481   .     S
C700   N717    1.379   .     A
C700   C774    1.481   .     S
C700   C109    1.437   1_565 S
C701   O723    1.298   .     A
C701   C706    1.416   .     S
C701   O726    1.301   .     A
C702   C705    1.416   .     S
C702   O725    1.301   .     A
C702   O724    1.298   .     A
C703   C713    1.418   .     A
C703   Br729   1.947   .     S
C703   C705    1.398   .     A
C704   C714    1.418   .     A
C704   Br730   1.947   .     S
C704   C706    1.398   .     A
C705   C707    1.383   .     A
C706   C708    1.383   .     A
C707   Br731   1.941   .     S
C707   C709    1.385   .     A
C708   Br732   1.941   .     S
C708   C710    1.385   .     A
C709   C715    1.403   .     A
C709   C711    1.413   .     A
C710   C712    1.413   .     A
C710   C716    1.403   .     A
C711   C713    1.438   .     A
C711   C1594   1.401   .     S
C712   C714    1.438   .     A
C712   C1593   1.401   1_554 S
C715   Br733   1.946   .     S
C715   C1571   1.395   .     S
C716   Br734   1.946   .     S
C716   C1572   1.395   1_554 S
N717   Zn727   2.058   .     S
N718   Zn728   2.058   .     S
O719   Zn727   1.992   .     S
O720   Zn728   1.992   .     S
O721   Zn727   1.986   .     S
O722   Zn728   1.986   .     S
O723   Zn727   2.011   .     S
O724   Zn728   2.011   .     S
O725   Zn727   1.988   .     S
O726   Zn728   1.988   .     S
C741   C742    1.403   .     A
C741   C746    1.408   .     A
C742   C743    1.397   .     A
C742   H747    1.082   .     S
C743   H748    1.081   .     S
C743   C744    1.398   .     A
C744   C745    1.396   .     A
C744   H749    1.082   .     S
C745   H750    1.082   .     S
C745   C746    1.398   .     A
C746   H751    1.083   .     S
C752   C753    1.403   .     A
C752   C757    1.408   .     A
C753   H758    1.082   .     S
C753   C754    1.397   .     A
C754   C755    1.398   .     A
C754   H759    1.081   .     S
C755   H760    1.082   .     S
C755   C756    1.397   .     A
C756   C757    1.398   .     A
C756   H761    1.082   .     S
C757   H762    1.083   .     S
C763   C764    1.404   .     A
C763   C768    1.409   .     A
C764   H769    1.081   .     S
C764   C765    1.398   .     A
C765   H770    1.082   .     S
C765   C766    1.398   .     A
C766   H771    1.082   .     S
C766   C767    1.397   .     A
C767   C768    1.398   .     A
C767   H772    1.082   .     S
C768   H773    1.083   .     S
C774   C779    1.404   .     A
C774   C775    1.409   .     A
C775   H780    1.083   .     S
C775   C776    1.398   .     A
C776   H781    1.082   .     S
C776   C777    1.397   .     A
C777   H782    1.082   .     S
C777   C778    1.398   .     A
C778   H783    1.082   .     S
C778   C779    1.398   .     A
C779   H784    1.081   .     S
C785   O817    1.305   .     A
C785   C794    1.439   .     S
C785   O820    1.310   .     A
C786   O819    1.309   .     A
C786   O818    1.305   .     A
C786   C793    1.439   .     S
C787   Br833   1.938   .     S
C787   C812    1.427   .     A
C787   C1695   1.395   1_554 S
C788   Br834   1.938   .     S
C788   C811    1.427   .     A
C788   C1696   1.395   .     S
C789   C794    1.408   .     A
C789   Br835   1.943   .     S
C790   C793    1.408   .     A
C790   Br836   1.943   .     S
C790   C596    1.377   1_655 S
C791   Br837   1.944   .     S
C791   C793    1.410   .     A
C791   C593    1.377   1_655 S
C792   Br838   1.944   .     S
C792   C794    1.411   .     A
C795   C839    1.476   .     S
C795   N816    1.373   .     A
C796   C850    1.476   .     S
C796   N815    1.373   .     A
C796   C209    1.437   1_565 S
C797   N816    1.379   .     A
C797   C861    1.481   .     S
C798   N815    1.379   .     A
C798   C872    1.481   .     S
C798   C207    1.437   1_565 S
C799   O821    1.298   .     A
C799   C804    1.416   .     S
C799   O824    1.301   .     A
C800   C803    1.416   .     S
C800   O823    1.301   .     A
C800   O822    1.298   .     A
C801   C811    1.418   .     A
C801   Br827   1.947   .     S
C801   C803    1.398   .     A
C802   C812    1.418   .     A
C802   Br828   1.947   .     S
C802   C804    1.398   .     A
C803   C805    1.383   .     A
C804   C806    1.383   .     A
C805   Br829   1.941   .     S
C805   C807    1.385   .     A
C806   Br830   1.941   .     S
C806   C808    1.385   .     A
C807   C813    1.403   .     A
C807   C809    1.413   .     A
C808   C810    1.413   .     A
C808   C814    1.403   .     A
C809   C811    1.438   .     A
C809   C1692   1.401   .     S
C810   C812    1.438   .     A
C810   C1691   1.401   1_554 S
C813   Br831   1.946   .     S
C813   C1669   1.395   .     S
C814   Br832   1.946   .     S
C814   C1670   1.395   1_554 S
N815   Zn825   2.058   .     S
N816   Zn826   2.058   .     S
O817   Zn825   1.992   .     S
O818   Zn826   1.992   .     S
O819   Zn825   1.986   .     S
O820   Zn826   1.986   .     S
O821   Zn825   2.011   .     S
O822   Zn826   2.011   .     S
O823   Zn825   1.988   .     S
O824   Zn826   1.988   .     S
C839   C840    1.403   .     A
C839   C844    1.408   .     A
C840   C841    1.397   .     A
C840   H845    1.082   .     S
C841   H846    1.081   .     S
C841   C842    1.398   .     A
C842   C843    1.396   .     A
C842   H847    1.082   .     S
C843   H848    1.082   .     S
C843   C844    1.398   .     A
C844   H849    1.083   .     S
C850   C851    1.403   .     A
C850   C855    1.408   .     A
C851   H856    1.082   .     S
C851   C852    1.397   .     A
C852   C853    1.398   .     A
C852   H857    1.081   .     S
C853   H858    1.082   .     S
C853   C854    1.397   .     A
C854   C855    1.398   .     A
C854   H859    1.082   .     S
C855   H860    1.083   .     S
C861   C862    1.404   .     A
C861   C866    1.409   .     A
C862   H867    1.081   .     S
C862   C863    1.398   .     A
C863   H868    1.082   .     S
C863   C864    1.398   .     A
C864   H869    1.082   .     S
C864   C865    1.397   .     A
C865   C866    1.398   .     A
C865   H870    1.082   .     S
C866   H871    1.083   .     S
C872   C877    1.404   .     A
C872   C873    1.409   .     A
C873   H878    1.083   .     S
C873   C874    1.398   .     A
C874   H879    1.082   .     S
C874   C875    1.397   .     A
C875   H880    1.082   .     S
C875   C876    1.398   .     A
C876   H881    1.082   .     S
C876   C877    1.398   .     A
C877   H882    1.081   .     S
C883   O915    1.305   .     A
C883   C892    1.439   .     S
C883   O918    1.310   .     A
C884   O917    1.309   .     A
C884   O916    1.305   .     A
C884   C891    1.439   .     S
C885   Br931   1.938   .     S
C885   C910    1.427   .     A
C886   Br932   1.938   .     S
C886   C909    1.427   .     A
C886   C30     1.395   1_556 S
C887   C892    1.408   .     A
C887   Br933   1.943   .     S
C887   C1085   1.377   1_455 S
C888   C891    1.408   .     A
C888   Br934   1.943   .     S
C888   C988    1.377   .     S
C889   Br935   1.944   .     S
C889   C891    1.410   .     A
C889   C985    1.377   .     S
C890   Br936   1.944   .     S
C890   C892    1.411   .     A
C890   C1084   1.377   1_455 S
C893   C937    1.476   .     S
C893   N914    1.373   .     A
C893   C1484   1.437   1_545 S
C894   C948    1.476   .     S
C894   N913    1.373   .     A
C894   C1189   1.437   .     S
C895   N914    1.379   .     A
C895   C959    1.481   .     S
C895   C1482   1.437   1_545 S
C896   N913    1.379   .     A
C896   C970    1.481   .     S
C896   C1187   1.437   .     S
C897   O919    1.298   .     A
C897   C902    1.416   .     S
C897   O922    1.301   .     A
C898   C901    1.416   .     S
C898   O921    1.301   .     A
C898   O920    1.298   .     A
C899   C909    1.418   .     A
C899   Br925   1.947   .     S
C899   C901    1.398   .     A
C900   C910    1.418   .     A
C900   Br926   1.947   .     S
C900   C902    1.398   .     A
C901   C903    1.383   .     A
C902   C904    1.383   .     A
C903   Br927   1.941   .     S
C903   C905    1.385   .     A
C904   Br928   1.941   .     S
C904   C906    1.385   .     A
C905   C911    1.403   .     A
C905   C907    1.413   .     A
C906   C908    1.413   .     A
C906   C912    1.403   .     A
C907   C909    1.438   .     A
C907   C26     1.401   1_556 S
C908   C910    1.438   .     A
C911   Br929   1.946   .     S
C911   C3      1.395   1_556 S
C912   Br930   1.946   .     S
N913   Zn923   2.058   .     S
N914   Zn924   2.058   .     S
O915   Zn923   1.992   .     S
O916   Zn924   1.992   .     S
O917   Zn923   1.986   .     S
O918   Zn924   1.986   .     S
O919   Zn923   2.011   .     S
O920   Zn924   2.011   .     S
O921   Zn923   1.988   .     S
O922   Zn924   1.988   .     S
C937   C938    1.403   .     A
C937   C942    1.408   .     A
C938   C939    1.397   .     A
C938   H943    1.082   .     S
C939   H944    1.081   .     S
C939   C940    1.398   .     A
C940   C941    1.396   .     A
C940   H945    1.082   .     S
C941   H946    1.082   .     S
C941   C942    1.398   .     A
C942   H947    1.083   .     S
C948   C949    1.403   .     A
C948   C953    1.408   .     A
C949   H954    1.082   .     S
C949   C950    1.397   .     A
C950   C951    1.398   .     A
C950   H955    1.081   .     S
C951   H956    1.082   .     S
C951   C952    1.397   .     A
C952   C953    1.398   .     A
C952   H957    1.082   .     S
C953   H958    1.083   .     S
C959   C960    1.404   .     A
C959   C964    1.409   .     A
C960   H965    1.081   .     S
C960   C961    1.398   .     A
C961   H966    1.082   .     S
C961   C962    1.398   .     A
C962   H967    1.082   .     S
C962   C963    1.397   .     A
C963   C964    1.398   .     A
C963   H968    1.082   .     S
C964   H969    1.083   .     S
C970   C975    1.404   .     A
C970   C971    1.409   .     A
C971   H976    1.083   .     S
C971   C972    1.398   .     A
C972   H977    1.082   .     S
C972   C973    1.397   .     A
C973   H978    1.082   .     S
C973   C974    1.398   .     A
C974   H979    1.082   .     S
C974   C975    1.398   .     A
C975   H980    1.081   .     S
C981   O1013   1.305   .     A
C981   C990    1.439   .     S
C981   O1016   1.310   .     A
C982   O1015   1.309   .     A
C982   O1014   1.305   .     A
C982   C989    1.439   .     S
C983   Br1029  1.938   .     S
C983   C1008   1.427   .     A
C984   Br1030  1.938   .     S
C984   C1007   1.427   .     A
C984   C128    1.395   1_556 S
C985   C990    1.408   .     A
C985   Br1031  1.943   .     S
C986   C989    1.408   .     A
C986   Br1032  1.943   .     S
C986   C1086   1.377   .     S
C987   Br1033  1.944   .     S
C987   C989    1.410   .     A
C987   C1083   1.377   .     S
C988   Br1034  1.944   .     S
C988   C990    1.411   .     A
C991   C1035   1.476   .     S
C991   N1012   1.373   .     A
C991   C1582   1.437   1_545 S
C992   C1046   1.476   .     S
C992   N1011   1.373   .     A
C992   C1287   1.437   .     S
C993   N1012   1.379   .     A
C993   C1057   1.481   .     S
C993   C1580   1.437   1_545 S
C994   N1011   1.379   .     A
C994   C1068   1.481   .     S
C994   C1285   1.437   .     S
C995   O1017   1.298   .     A
C995   C1000   1.416   .     S
C995   O1020   1.301   .     A
C996   C999    1.416   .     S
C996   O1019   1.301   .     A
C996   O1018   1.298   .     A
C997   C1007   1.418   .     A
C997   Br1023  1.947   .     S
C997   C999    1.398   .     A
C998   C1008   1.418   .     A
C998   Br1024  1.947   .     S
C998   C1000   1.398   .     A
C999   C1001   1.383   .     A
C1000  C1002   1.383   .     A
C1001  Br1025  1.941   .     S
C1001  C1003   1.385   .     A
C1002  Br1026  1.941   .     S
C1002  C1004   1.385   .     A
C1003  C1009   1.403   .     A
C1003  C1005   1.413   .     A
C1004  C1006   1.413   .     A
C1004  C1010   1.403   .     A
C1005  C1007   1.438   .     A
C1005  C124    1.401   1_556 S
C1006  C1008   1.438   .     A
C1009  Br1027  1.946   .     S
C1009  C101    1.395   1_556 S
C1010  Br1028  1.946   .     S
N1011  Zn1021  2.058   .     S
N1012  Zn1022  2.058   .     S
O1013  Zn1021  1.992   .     S
O1014  Zn1022  1.992   .     S
O1015  Zn1021  1.986   .     S
O1016  Zn1022  1.986   .     S
O1017  Zn1021  2.011   .     S
O1018  Zn1022  2.011   .     S
O1019  Zn1021  1.988   .     S
O1020  Zn1022  1.988   .     S
C1035  C1036   1.403   .     A
C1035  C1040   1.408   .     A
C1036  C1037   1.397   .     A
C1036  H1041   1.082   .     S
C1037  H1042   1.081   .     S
C1037  C1038   1.398   .     A
C1038  C1039   1.396   .     A
C1038  H1043   1.082   .     S
C1039  H1044   1.082   .     S
C1039  C1040   1.398   .     A
C1040  H1045   1.083   .     S
C1046  C1047   1.403   .     A
C1046  C1051   1.408   .     A
C1047  H1052   1.082   .     S
C1047  C1048   1.397   .     A
C1048  C1049   1.398   .     A
C1048  H1053   1.081   .     S
C1049  H1054   1.082   .     S
C1049  C1050   1.397   .     A
C1050  C1051   1.398   .     A
C1050  H1055   1.082   .     S
C1051  H1056   1.083   .     S
C1057  C1058   1.404   .     A
C1057  C1062   1.409   .     A
C1058  H1063   1.081   .     S
C1058  C1059   1.398   .     A
C1059  H1064   1.082   .     S
C1059  C1060   1.398   .     A
C1060  H1065   1.082   .     S
C1060  C1061   1.397   .     A
C1061  C1062   1.398   .     A
C1061  H1066   1.082   .     S
C1062  H1067   1.083   .     S
C1068  C1073   1.404   .     A
C1068  C1069   1.409   .     A
C1069  H1074   1.083   .     S
C1069  C1070   1.398   .     A
C1070  H1075   1.082   .     S
C1070  C1071   1.397   .     A
C1071  H1076   1.082   .     S
C1071  C1072   1.398   .     A
C1072  H1077   1.082   .     S
C1072  C1073   1.398   .     A
C1073  H1078   1.081   .     S
C1079  O1111   1.305   .     A
C1079  C1088   1.439   .     S
C1079  O1114   1.310   .     A
C1080  O1113   1.309   .     A
C1080  O1112   1.305   .     A
C1080  C1087   1.439   .     S
C1081  Br1127  1.938   .     S
C1081  C1106   1.427   .     A
C1082  Br1128  1.938   .     S
C1082  C1105   1.427   .     A
C1082  C226    1.395   1_556 S
C1083  C1088   1.408   .     A
C1083  Br1129  1.943   .     S
C1084  C1087   1.408   .     A
C1084  Br1130  1.943   .     S
C1084  C890    1.377   1_655 S
C1085  Br1131  1.944   .     S
C1085  C1087   1.410   .     A
C1085  C887    1.377   1_655 S
C1086  Br1132  1.944   .     S
C1086  C1088   1.411   .     A
C1089  C1133   1.476   .     S
C1089  N1110   1.373   .     A
C1089  C1680   1.437   1_545 S
C1090  C1144   1.476   .     S
C1090  N1109   1.373   .     A
C1090  C1385   1.437   .     S
C1091  N1110   1.379   .     A
C1091  C1155   1.481   .     S
C1091  C1678   1.437   1_545 S
C1092  N1109   1.379   .     A
C1092  C1166   1.481   .     S
C1092  C1383   1.437   .     S
C1093  O1115   1.298   .     A
C1093  C1098   1.416   .     S
C1093  O1118   1.301   .     A
C1094  C1097   1.416   .     S
C1094  O1117   1.301   .     A
C1094  O1116   1.298   .     A
C1095  C1105   1.418   .     A
C1095  Br1121  1.947   .     S
C1095  C1097   1.398   .     A
C1096  C1106   1.418   .     A
C1096  Br1122  1.947   .     S
C1096  C1098   1.398   .     A
C1097  C1099   1.383   .     A
C1098  C1100   1.383   .     A
C1099  Br1123  1.941   .     S
C1099  C1101   1.385   .     A
C1100  Br1124  1.941   .     S
C1100  C1102   1.385   .     A
C1101  C1107   1.403   .     A
C1101  C1103   1.413   .     A
C1102  C1104   1.413   .     A
C1102  C1108   1.403   .     A
C1103  C1105   1.438   .     A
C1103  C222    1.401   1_556 S
C1104  C1106   1.438   .     A
C1107  Br1125  1.946   .     S
C1107  C199    1.395   1_556 S
C1108  Br1126  1.946   .     S
N1109  Zn1119  2.058   .     S
N1110  Zn1120  2.058   .     S
O1111  Zn1119  1.992   .     S
O1112  Zn1120  1.992   .     S
O1113  Zn1119  1.986   .     S
O1114  Zn1120  1.986   .     S
O1115  Zn1119  2.011   .     S
O1116  Zn1120  2.011   .     S
O1117  Zn1119  1.988   .     S
O1118  Zn1120  1.988   .     S
C1133  C1134   1.403   .     A
C1133  C1138   1.408   .     A
C1134  C1135   1.397   .     A
C1134  H1139   1.082   .     S
C1135  H1140   1.081   .     S
C1135  C1136   1.398   .     A
C1136  C1137   1.396   .     A
C1136  H1141   1.082   .     S
C1137  H1142   1.082   .     S
C1137  C1138   1.398   .     A
C1138  H1143   1.083   .     S
C1144  C1145   1.403   .     A
C1144  C1149   1.408   .     A
C1145  H1150   1.082   .     S
C1145  C1146   1.397   .     A
C1146  C1147   1.398   .     A
C1146  H1151   1.081   .     S
C1147  H1152   1.082   .     S
C1147  C1148   1.397   .     A
C1148  C1149   1.398   .     A
C1148  H1153   1.082   .     S
C1149  H1154   1.083   .     S
C1155  C1156   1.404   .     A
C1155  C1160   1.409   .     A
C1156  H1161   1.081   .     S
C1156  C1157   1.398   .     A
C1157  H1162   1.082   .     S
C1157  C1158   1.398   .     A
C1158  H1163   1.082   .     S
C1158  C1159   1.397   .     A
C1159  C1160   1.398   .     A
C1159  H1164   1.082   .     S
C1160  H1165   1.083   .     S
C1166  C1171   1.404   .     A
C1166  C1167   1.409   .     A
C1167  H1172   1.083   .     S
C1167  C1168   1.398   .     A
C1168  H1173   1.082   .     S
C1168  C1169   1.397   .     A
C1169  H1174   1.082   .     S
C1169  C1170   1.398   .     A
C1170  H1175   1.082   .     S
C1170  C1171   1.398   .     A
C1171  H1176   1.081   .     S
C1177  O1209   1.305   .     A
C1177  C1186   1.439   .     S
C1177  O1212   1.310   .     A
C1178  O1211   1.309   .     A
C1178  O1210   1.305   .     A
C1178  C1185   1.439   .     S
C1179  Br1225  1.938   .     S
C1179  C1204   1.427   .     A
C1180  Br1226  1.938   .     S
C1180  C1203   1.427   .     A
C1180  C324    1.395   1_556 S
C1181  C1186   1.408   .     A
C1181  Br1227  1.943   .     S
C1181  C1379   1.377   1_455 S
C1182  C1185   1.408   .     A
C1182  Br1228  1.943   .     S
C1182  C1282   1.377   .     S
C1183  Br1229  1.944   .     S
C1183  C1185   1.410   .     A
C1183  C1279   1.377   .     S
C1184  Br1230  1.944   .     S
C1184  C1186   1.411   .     A
C1184  C1378   1.377   1_455 S
C1187  C1231   1.476   .     S
C1187  N1208   1.373   .     A
C1188  C1242   1.476   .     S
C1188  N1207   1.373   .     A
C1188  C1483   1.437   .     S
C1189  N1208   1.379   .     A
C1189  C1253   1.481   .     S
C1190  N1207   1.379   .     A
C1190  C1264   1.481   .     S
C1190  C1481   1.437   .     S
C1191  O1213   1.298   .     A
C1191  C1196   1.416   .     S
C1191  O1216   1.301   .     A
C1192  C1195   1.416   .     S
C1192  O1215   1.301   .     A
C1192  O1214   1.298   .     A
C1193  C1203   1.418   .     A
C1193  Br1219  1.947   .     S
C1193  C1195   1.398   .     A
C1194  C1204   1.418   .     A
C1194  Br1220  1.947   .     S
C1194  C1196   1.398   .     A
C1195  C1197   1.383   .     A
C1196  C1198   1.383   .     A
C1197  Br1221  1.941   .     S
C1197  C1199   1.385   .     A
C1198  Br1222  1.941   .     S
C1198  C1200   1.385   .     A
C1199  C1205   1.403   .     A
C1199  C1201   1.413   .     A
C1200  C1202   1.413   .     A
C1200  C1206   1.403   .     A
C1201  C1203   1.438   .     A
C1201  C320    1.401   1_556 S
C1202  C1204   1.438   .     A
C1205  Br1223  1.946   .     S
C1205  C297    1.395   1_556 S
C1206  Br1224  1.946   .     S
N1207  Zn1217  2.058   .     S
N1208  Zn1218  2.058   .     S
O1209  Zn1217  1.992   .     S
O1210  Zn1218  1.992   .     S
O1211  Zn1217  1.986   .     S
O1212  Zn1218  1.986   .     S
O1213  Zn1217  2.011   .     S
O1214  Zn1218  2.011   .     S
O1215  Zn1217  1.988   .     S
O1216  Zn1218  1.988   .     S
C1231  C1232   1.403   .     A
C1231  C1236   1.408   .     A
C1232  C1233   1.397   .     A
C1232  H1237   1.082   .     S
C1233  H1238   1.081   .     S
C1233  C1234   1.398   .     A
C1234  C1235   1.396   .     A
C1234  H1239   1.082   .     S
C1235  H1240   1.082   .     S
C1235  C1236   1.398   .     A
C1236  H1241   1.083   .     S
C1242  C1243   1.403   .     A
C1242  C1247   1.408   .     A
C1243  H1248   1.082   .     S
C1243  C1244   1.397   .     A
C1244  C1245   1.398   .     A
C1244  H1249   1.081   .     S
C1245  H1250   1.082   .     S
C1245  C1246   1.397   .     A
C1246  C1247   1.398   .     A
C1246  H1251   1.082   .     S
C1247  H1252   1.083   .     S
C1253  C1254   1.404   .     A
C1253  C1258   1.409   .     A
C1254  H1259   1.081   .     S
C1254  C1255   1.398   .     A
C1255  H1260   1.082   .     S
C1255  C1256   1.398   .     A
C1256  H1261   1.082   .     S
C1256  C1257   1.397   .     A
C1257  C1258   1.398   .     A
C1257  H1262   1.082   .     S
C1258  H1263   1.083   .     S
C1264  C1269   1.404   .     A
C1264  C1265   1.409   .     A
C1265  H1270   1.083   .     S
C1265  C1266   1.398   .     A
C1266  H1271   1.082   .     S
C1266  C1267   1.397   .     A
C1267  H1272   1.082   .     S
C1267  C1268   1.398   .     A
C1268  H1273   1.082   .     S
C1268  C1269   1.398   .     A
C1269  H1274   1.081   .     S
C1275  O1307   1.305   .     A
C1275  C1284   1.439   .     S
C1275  O1310   1.310   .     A
C1276  O1309   1.309   .     A
C1276  O1308   1.305   .     A
C1276  C1283   1.439   .     S
C1277  Br1323  1.938   .     S
C1277  C1302   1.427   .     A
C1278  Br1324  1.938   .     S
C1278  C1301   1.427   .     A
C1278  C422    1.395   1_556 S
C1279  C1284   1.408   .     A
C1279  Br1325  1.943   .     S
C1280  C1283   1.408   .     A
C1280  Br1326  1.943   .     S
C1280  C1380   1.377   .     S
C1281  Br1327  1.944   .     S
C1281  C1283   1.410   .     A
C1281  C1377   1.377   .     S
C1282  Br1328  1.944   .     S
C1282  C1284   1.411   .     A
C1285  C1329   1.476   .     S
C1285  N1306   1.373   .     A
C1286  C1340   1.476   .     S
C1286  N1305   1.373   .     A
C1286  C1581   1.437   .     S
C1287  N1306   1.379   .     A
C1287  C1351   1.481   .     S
C1288  N1305   1.379   .     A
C1288  C1362   1.481   .     S
C1288  C1579   1.437   .     S
C1289  O1311   1.298   .     A
C1289  C1294   1.416   .     S
C1289  O1314   1.301   .     A
C1290  C1293   1.416   .     S
C1290  O1313   1.301   .     A
C1290  O1312   1.298   .     A
C1291  C1301   1.418   .     A
C1291  Br1317  1.947   .     S
C1291  C1293   1.398   .     A
C1292  C1302   1.418   .     A
C1292  Br1318  1.947   .     S
C1292  C1294   1.398   .     A
C1293  C1295   1.383   .     A
C1294  C1296   1.383   .     A
C1295  Br1319  1.941   .     S
C1295  C1297   1.385   .     A
C1296  Br1320  1.941   .     S
C1296  C1298   1.385   .     A
C1297  C1303   1.403   .     A
C1297  C1299   1.413   .     A
C1298  C1300   1.413   .     A
C1298  C1304   1.403   .     A
C1299  C1301   1.438   .     A
C1299  C418    1.401   1_556 S
C1300  C1302   1.438   .     A
C1303  Br1321  1.946   .     S
C1303  C395    1.395   1_556 S
C1304  Br1322  1.946   .     S
N1305  Zn1315  2.058   .     S
N1306  Zn1316  2.058   .     S
O1307  Zn1315  1.992   .     S
O1308  Zn1316  1.992   .     S
O1309  Zn1315  1.986   .     S
O1310  Zn1316  1.986   .     S
O1311  Zn1315  2.011   .     S
O1312  Zn1316  2.011   .     S
O1313  Zn1315  1.988   .     S
O1314  Zn1316  1.988   .     S
C1329  C1330   1.403   .     A
C1329  C1334   1.408   .     A
C1330  C1331   1.397   .     A
C1330  H1335   1.082   .     S
C1331  H1336   1.081   .     S
C1331  C1332   1.398   .     A
C1332  C1333   1.396   .     A
C1332  H1337   1.082   .     S
C1333  H1338   1.082   .     S
C1333  C1334   1.398   .     A
C1334  H1339   1.083   .     S
C1340  C1341   1.403   .     A
C1340  C1345   1.408   .     A
C1341  H1346   1.082   .     S
C1341  C1342   1.397   .     A
C1342  C1343   1.398   .     A
C1342  H1347   1.081   .     S
C1343  H1348   1.082   .     S
C1343  C1344   1.397   .     A
C1344  C1345   1.398   .     A
C1344  H1349   1.082   .     S
C1345  H1350   1.083   .     S
C1351  C1352   1.404   .     A
C1351  C1356   1.409   .     A
C1352  H1357   1.081   .     S
C1352  C1353   1.398   .     A
C1353  H1358   1.082   .     S
C1353  C1354   1.398   .     A
C1354  H1359   1.082   .     S
C1354  C1355   1.397   .     A
C1355  C1356   1.398   .     A
C1355  H1360   1.082   .     S
C1356  H1361   1.083   .     S
C1362  C1367   1.404   .     A
C1362  C1363   1.409   .     A
C1363  H1368   1.083   .     S
C1363  C1364   1.398   .     A
C1364  H1369   1.082   .     S
C1364  C1365   1.397   .     A
C1365  H1370   1.082   .     S
C1365  C1366   1.398   .     A
C1366  H1371   1.082   .     S
C1366  C1367   1.398   .     A
C1367  H1372   1.081   .     S
C1373  O1405   1.305   .     A
C1373  C1382   1.439   .     S
C1373  O1408   1.310   .     A
C1374  O1407   1.309   .     A
C1374  O1406   1.305   .     A
C1374  C1381   1.439   .     S
C1375  Br1421  1.938   .     S
C1375  C1400   1.427   .     A
C1376  Br1422  1.938   .     S
C1376  C1399   1.427   .     A
C1376  C520    1.395   1_556 S
C1377  C1382   1.408   .     A
C1377  Br1423  1.943   .     S
C1378  C1381   1.408   .     A
C1378  Br1424  1.943   .     S
C1378  C1184   1.377   1_655 S
C1379  Br1425  1.944   .     S
C1379  C1381   1.410   .     A
C1379  C1181   1.377   1_655 S
C1380  Br1426  1.944   .     S
C1380  C1382   1.411   .     A
C1383  C1427   1.476   .     S
C1383  N1404   1.373   .     A
C1384  C1438   1.476   .     S
C1384  N1403   1.373   .     A
C1384  C1679   1.437   .     S
C1385  N1404   1.379   .     A
C1385  C1449   1.481   .     S
C1386  N1403   1.379   .     A
C1386  C1460   1.481   .     S
C1386  C1677   1.437   .     S
C1387  O1409   1.298   .     A
C1387  C1392   1.416   .     S
C1387  O1412   1.301   .     A
C1388  C1391   1.416   .     S
C1388  O1411   1.301   .     A
C1388  O1410   1.298   .     A
C1389  C1399   1.418   .     A
C1389  Br1415  1.947   .     S
C1389  C1391   1.398   .     A
C1390  C1400   1.418   .     A
C1390  Br1416  1.947   .     S
C1390  C1392   1.398   .     A
C1391  C1393   1.383   .     A
C1392  C1394   1.383   .     A
C1393  Br1417  1.941   .     S
C1393  C1395   1.385   .     A
C1394  Br1418  1.941   .     S
C1394  C1396   1.385   .     A
C1395  C1401   1.403   .     A
C1395  C1397   1.413   .     A
C1396  C1398   1.413   .     A
C1396  C1402   1.403   .     A
C1397  C1399   1.438   .     A
C1397  C516    1.401   1_556 S
C1398  C1400   1.438   .     A
C1401  Br1419  1.946   .     S
C1401  C493    1.395   1_556 S
C1402  Br1420  1.946   .     S
N1403  Zn1413  2.058   .     S
N1404  Zn1414  2.058   .     S
O1405  Zn1413  1.992   .     S
O1406  Zn1414  1.992   .     S
O1407  Zn1413  1.986   .     S
O1408  Zn1414  1.986   .     S
O1409  Zn1413  2.011   .     S
O1410  Zn1414  2.011   .     S
O1411  Zn1413  1.988   .     S
O1412  Zn1414  1.988   .     S
C1427  C1428   1.403   .     A
C1427  C1432   1.408   .     A
C1428  C1429   1.397   .     A
C1428  H1433   1.082   .     S
C1429  H1434   1.081   .     S
C1429  C1430   1.398   .     A
C1430  C1431   1.396   .     A
C1430  H1435   1.082   .     S
C1431  H1436   1.082   .     S
C1431  C1432   1.398   .     A
C1432  H1437   1.083   .     S
C1438  C1439   1.403   .     A
C1438  C1443   1.408   .     A
C1439  H1444   1.082   .     S
C1439  C1440   1.397   .     A
C1440  C1441   1.398   .     A
C1440  H1445   1.081   .     S
C1441  H1446   1.082   .     S
C1441  C1442   1.397   .     A
C1442  C1443   1.398   .     A
C1442  H1447   1.082   .     S
C1443  H1448   1.083   .     S
C1449  C1450   1.404   .     A
C1449  C1454   1.409   .     A
C1450  H1455   1.081   .     S
C1450  C1451   1.398   .     A
C1451  H1456   1.082   .     S
C1451  C1452   1.398   .     A
C1452  H1457   1.082   .     S
C1452  C1453   1.397   .     A
C1453  C1454   1.398   .     A
C1453  H1458   1.082   .     S
C1454  H1459   1.083   .     S
C1460  C1465   1.404   .     A
C1460  C1461   1.409   .     A
C1461  H1466   1.083   .     S
C1461  C1462   1.398   .     A
C1462  H1467   1.082   .     S
C1462  C1463   1.397   .     A
C1463  H1468   1.082   .     S
C1463  C1464   1.398   .     A
C1464  H1469   1.082   .     S
C1464  C1465   1.398   .     A
C1465  H1470   1.081   .     S
C1471  O1503   1.305   .     A
C1471  C1480   1.439   .     S
C1471  O1506   1.310   .     A
C1472  O1505   1.309   .     A
C1472  O1504   1.305   .     A
C1472  C1479   1.439   .     S
C1473  Br1519  1.938   .     S
C1473  C1498   1.427   .     A
C1474  Br1520  1.938   .     S
C1474  C1497   1.427   .     A
C1474  C618    1.395   1_556 S
C1475  C1480   1.408   .     A
C1475  Br1521  1.943   .     S
C1475  C1673   1.377   1_455 S
C1476  C1479   1.408   .     A
C1476  Br1522  1.943   .     S
C1476  C1576   1.377   .     S
C1477  Br1523  1.944   .     S
C1477  C1479   1.410   .     A
C1477  C1573   1.377   .     S
C1478  Br1524  1.944   .     S
C1478  C1480   1.411   .     A
C1478  C1672   1.377   1_455 S
C1481  C1525   1.476   .     S
C1481  N1502   1.373   .     A
C1482  C1536   1.476   .     S
C1482  N1501   1.373   .     A
C1482  C895    1.437   1_565 S
C1483  N1502   1.379   .     A
C1483  C1547   1.481   .     S
C1484  N1501   1.379   .     A
C1484  C1558   1.481   .     S
C1484  C893    1.437   1_565 S
C1485  O1507   1.298   .     A
C1485  C1490   1.416   .     S
C1485  O1510   1.301   .     A
C1486  C1489   1.416   .     S
C1486  O1509   1.301   .     A
C1486  O1508   1.298   .     A
C1487  C1497   1.418   .     A
C1487  Br1513  1.947   .     S
C1487  C1489   1.398   .     A
C1488  C1498   1.418   .     A
C1488  Br1514  1.947   .     S
C1488  C1490   1.398   .     A
C1489  C1491   1.383   .     A
C1490  C1492   1.383   .     A
C1491  Br1515  1.941   .     S
C1491  C1493   1.385   .     A
C1492  Br1516  1.941   .     S
C1492  C1494   1.385   .     A
C1493  C1499   1.403   .     A
C1493  C1495   1.413   .     A
C1494  C1496   1.413   .     A
C1494  C1500   1.403   .     A
C1495  C1497   1.438   .     A
C1495  C614    1.401   1_556 S
C1496  C1498   1.438   .     A
C1499  Br1517  1.946   .     S
C1499  C591    1.395   1_556 S
C1500  Br1518  1.946   .     S
N1501  Zn1511  2.058   .     S
N1502  Zn1512  2.058   .     S
O1503  Zn1511  1.992   .     S
O1504  Zn1512  1.992   .     S
O1505  Zn1511  1.986   .     S
O1506  Zn1512  1.986   .     S
O1507  Zn1511  2.011   .     S
O1508  Zn1512  2.011   .     S
O1509  Zn1511  1.988   .     S
O1510  Zn1512  1.988   .     S
C1525  C1526   1.403   .     A
C1525  C1530   1.408   .     A
C1526  C1527   1.397   .     A
C1526  H1531   1.082   .     S
C1527  H1532   1.081   .     S
C1527  C1528   1.398   .     A
C1528  C1529   1.396   .     A
C1528  H1533   1.082   .     S
C1529  H1534   1.082   .     S
C1529  C1530   1.398   .     A
C1530  H1535   1.083   .     S
C1536  C1537   1.403   .     A
C1536  C1541   1.408   .     A
C1537  H1542   1.082   .     S
C1537  C1538   1.397   .     A
C1538  C1539   1.398   .     A
C1538  H1543   1.081   .     S
C1539  H1544   1.082   .     S
C1539  C1540   1.397   .     A
C1540  C1541   1.398   .     A
C1540  H1545   1.082   .     S
C1541  H1546   1.083   .     S
C1547  C1548   1.404   .     A
C1547  C1552   1.409   .     A
C1548  H1553   1.081   .     S
C1548  C1549   1.398   .     A
C1549  H1554   1.082   .     S
C1549  C1550   1.398   .     A
C1550  H1555   1.082   .     S
C1550  C1551   1.397   .     A
C1551  C1552   1.398   .     A
C1551  H1556   1.082   .     S
C1552  H1557   1.083   .     S
C1558  C1563   1.404   .     A
C1558  C1559   1.409   .     A
C1559  H1564   1.083   .     S
C1559  C1560   1.398   .     A
C1560  H1565   1.082   .     S
C1560  C1561   1.397   .     A
C1561  H1566   1.082   .     S
C1561  C1562   1.398   .     A
C1562  H1567   1.082   .     S
C1562  C1563   1.398   .     A
C1563  H1568   1.081   .     S
C1569  O1601   1.305   .     A
C1569  C1578   1.439   .     S
C1569  O1604   1.310   .     A
C1570  O1603   1.309   .     A
C1570  O1602   1.305   .     A
C1570  C1577   1.439   .     S
C1571  Br1617  1.938   .     S
C1571  C1596   1.427   .     A
C1572  Br1618  1.938   .     S
C1572  C1595   1.427   .     A
C1572  C716    1.395   1_556 S
C1573  C1578   1.408   .     A
C1573  Br1619  1.943   .     S
C1574  C1577   1.408   .     A
C1574  Br1620  1.943   .     S
C1574  C1674   1.377   .     S
C1575  Br1621  1.944   .     S
C1575  C1577   1.410   .     A
C1575  C1671   1.377   .     S
C1576  Br1622  1.944   .     S
C1576  C1578   1.411   .     A
C1579  C1623   1.476   .     S
C1579  N1600   1.373   .     A
C1580  C1634   1.476   .     S
C1580  N1599   1.373   .     A
C1580  C993    1.437   1_565 S
C1581  N1600   1.379   .     A
C1581  C1645   1.481   .     S
C1582  N1599   1.379   .     A
C1582  C1656   1.481   .     S
C1582  C991    1.437   1_565 S
C1583  O1605   1.298   .     A
C1583  C1588   1.416   .     S
C1583  O1608   1.301   .     A
C1584  C1587   1.416   .     S
C1584  O1607   1.301   .     A
C1584  O1606   1.298   .     A
C1585  C1595   1.418   .     A
C1585  Br1611  1.947   .     S
C1585  C1587   1.398   .     A
C1586  C1596   1.418   .     A
C1586  Br1612  1.947   .     S
C1586  C1588   1.398   .     A
C1587  C1589   1.383   .     A
C1588  C1590   1.383   .     A
C1589  Br1613  1.941   .     S
C1589  C1591   1.385   .     A
C1590  Br1614  1.941   .     S
C1590  C1592   1.385   .     A
C1591  C1597   1.403   .     A
C1591  C1593   1.413   .     A
C1592  C1594   1.413   .     A
C1592  C1598   1.403   .     A
C1593  C1595   1.438   .     A
C1593  C712    1.401   1_556 S
C1594  C1596   1.438   .     A
C1597  Br1615  1.946   .     S
C1597  C689    1.395   1_556 S
C1598  Br1616  1.946   .     S
N1599  Zn1609  2.058   .     S
N1600  Zn1610  2.058   .     S
O1601  Zn1609  1.992   .     S
O1602  Zn1610  1.992   .     S
O1603  Zn1609  1.986   .     S
O1604  Zn1610  1.986   .     S
O1605  Zn1609  2.011   .     S
O1606  Zn1610  2.011   .     S
O1607  Zn1609  1.988   .     S
O1608  Zn1610  1.988   .     S
C1623  C1624   1.403   .     A
C1623  C1628   1.408   .     A
C1624  C1625   1.397   .     A
C1624  H1629   1.082   .     S
C1625  H1630   1.081   .     S
C1625  C1626   1.398   .     A
C1626  C1627   1.396   .     A
C1626  H1631   1.082   .     S
C1627  H1632   1.082   .     S
C1627  C1628   1.398   .     A
C1628  H1633   1.083   .     S
C1634  C1635   1.403   .     A
C1634  C1639   1.408   .     A
C1635  H1640   1.082   .     S
C1635  C1636   1.397   .     A
C1636  C1637   1.398   .     A
C1636  H1641   1.081   .     S
C1637  H1642   1.082   .     S
C1637  C1638   1.397   .     A
C1638  C1639   1.398   .     A
C1638  H1643   1.082   .     S
C1639  H1644   1.083   .     S
C1645  C1646   1.404   .     A
C1645  C1650   1.409   .     A
C1646  H1651   1.081   .     S
C1646  C1647   1.398   .     A
C1647  H1652   1.082   .     S
C1647  C1648   1.398   .     A
C1648  H1653   1.082   .     S
C1648  C1649   1.397   .     A
C1649  C1650   1.398   .     A
C1649  H1654   1.082   .     S
C1650  H1655   1.083   .     S
C1656  C1661   1.404   .     A
C1656  C1657   1.409   .     A
C1657  H1662   1.083   .     S
C1657  C1658   1.398   .     A
C1658  H1663   1.082   .     S
C1658  C1659   1.397   .     A
C1659  H1664   1.082   .     S
C1659  C1660   1.398   .     A
C1660  H1665   1.082   .     S
C1660  C1661   1.398   .     A
C1661  H1666   1.081   .     S
C1667  O1699   1.305   .     A
C1667  C1676   1.439   .     S
C1667  O1702   1.310   .     A
C1668  O1701   1.309   .     A
C1668  O1700   1.305   .     A
C1668  C1675   1.439   .     S
C1669  Br1715  1.938   .     S
C1669  C1694   1.427   .     A
C1670  Br1716  1.938   .     S
C1670  C1693   1.427   .     A
C1670  C814    1.395   1_556 S
C1671  C1676   1.408   .     A
C1671  Br1717  1.943   .     S
C1672  C1675   1.408   .     A
C1672  Br1718  1.943   .     S
C1672  C1478   1.377   1_655 S
C1673  Br1719  1.944   .     S
C1673  C1675   1.410   .     A
C1673  C1475   1.377   1_655 S
C1674  Br1720  1.944   .     S
C1674  C1676   1.411   .     A
C1677  C1721   1.476   .     S
C1677  N1698   1.373   .     A
C1678  C1732   1.476   .     S
C1678  N1697   1.373   .     A
C1678  C1091   1.437   1_565 S
C1679  N1698   1.379   .     A
C1679  C1743   1.481   .     S
C1680  N1697   1.379   .     A
C1680  C1754   1.481   .     S
C1680  C1089   1.437   1_565 S
C1681  O1703   1.298   .     A
C1681  C1686   1.416   .     S
C1681  O1706   1.301   .     A
C1682  C1685   1.416   .     S
C1682  O1705   1.301   .     A
C1682  O1704   1.298   .     A
C1683  C1693   1.418   .     A
C1683  Br1709  1.947   .     S
C1683  C1685   1.398   .     A
C1684  C1694   1.418   .     A
C1684  Br1710  1.947   .     S
C1684  C1686   1.398   .     A
C1685  C1687   1.383   .     A
C1686  C1688   1.383   .     A
C1687  Br1711  1.941   .     S
C1687  C1689   1.385   .     A
C1688  Br1712  1.941   .     S
C1688  C1690   1.385   .     A
C1689  C1695   1.403   .     A
C1689  C1691   1.413   .     A
C1690  C1692   1.413   .     A
C1690  C1696   1.403   .     A
C1691  C1693   1.438   .     A
C1691  C810    1.401   1_556 S
C1692  C1694   1.438   .     A
C1695  Br1713  1.946   .     S
C1695  C787    1.395   1_556 S
C1696  Br1714  1.946   .     S
N1697  Zn1707  2.058   .     S
N1698  Zn1708  2.058   .     S
O1699  Zn1707  1.992   .     S
O1700  Zn1708  1.992   .     S
O1701  Zn1707  1.986   .     S
O1702  Zn1708  1.986   .     S
O1703  Zn1707  2.011   .     S
O1704  Zn1708  2.011   .     S
O1705  Zn1707  1.988   .     S
O1706  Zn1708  1.988   .     S
C1721  C1722   1.403   .     A
C1721  C1726   1.408   .     A
C1722  C1723   1.397   .     A
C1722  H1727   1.082   .     S
C1723  H1728   1.081   .     S
C1723  C1724   1.398   .     A
C1724  C1725   1.396   .     A
C1724  H1729   1.082   .     S
C1725  H1730   1.082   .     S
C1725  C1726   1.398   .     A
C1726  H1731   1.083   .     S
C1732  C1733   1.403   .     A
C1732  C1737   1.408   .     A
C1733  H1738   1.082   .     S
C1733  C1734   1.397   .     A
C1734  C1735   1.398   .     A
C1734  H1739   1.081   .     S
C1735  H1740   1.082   .     S
C1735  C1736   1.397   .     A
C1736  C1737   1.398   .     A
C1736  H1741   1.082   .     S
C1737  H1742   1.083   .     S
C1743  C1744   1.404   .     A
C1743  C1748   1.409   .     A
C1744  H1749   1.081   .     S
C1744  C1745   1.398   .     A
C1745  H1750   1.082   .     S
C1745  C1746   1.398   .     A
C1746  H1751   1.082   .     S
C1746  C1747   1.397   .     A
C1747  C1748   1.398   .     A
C1747  H1752   1.082   .     S
C1748  H1753   1.083   .     S
C1754  C1759   1.404   .     A
C1754  C1755   1.409   .     A
C1755  H1760   1.083   .     S
C1755  C1756   1.398   .     A
C1756  H1761   1.082   .     S
C1756  C1757   1.397   .     A
C1757  H1762   1.082   .     S
C1757  C1758   1.398   .     A
C1758  H1763   1.082   .     S
C1758  C1759   1.398   .     A
C1759  H1764   1.081   .     S
