data_str_m1_o10_o16_pcu_sym.137
_audit_creation_date              2020-01-03
_audit_creation_method            'Materials Studio'
_symmetry_space_group_name_H-M    'P1'
_symmetry_Int_Tables_number       1
_symmetry_cell_setting            triclinic
loop_
_symmetry_equiv_pos_as_xyz
  x,y,z
_cell_length_a                    32.7349
_cell_length_b                    32.6671
_cell_length_c                    30.7648
_cell_angle_alpha                 96.8758
_cell_angle_beta                  74.8399
_cell_angle_gamma                 98.3503
loop_
_atom_site_label
_atom_site_type_symbol
_atom_site_fract_x
_atom_site_fract_y
_atom_site_fract_z
_atom_site_U_iso_or_equiv
_atom_site_adp_type
_atom_site_occupancy
C1     C     0.05298   0.15955   0.26021   0.00000  Uiso   1.00
C2     C     0.18483   0.16408   0.05295   0.00000  Uiso   1.00
C3     C     0.19947   0.09558   0.06310   0.00000  Uiso   1.00
C4     C     0.28070   0.17365   0.24013   0.00000  Uiso   1.00
C5     C     0.13743   0.19002   0.42174   0.00000  Uiso   1.00
C6     C     0.32642   0.17572   0.23608   0.00000  Uiso   1.00
C7     C     0.00789   0.15694   0.26481   0.00000  Uiso   1.00
C8     C     0.17928   0.32234   0.23778   0.00000  Uiso   1.00
C9     C     0.15075   0.01260   0.26489   0.00000  Uiso   1.00
C10    C     0.15656   0.05603   0.25976   0.00000  Uiso   1.00
C11    C     0.17629   0.27783   0.24044   0.00000  Uiso   1.00
C12    C     0.11676   0.23476   0.49115   0.00000  Uiso   1.00
C13    C     0.18510   0.14798   0.12913   0.00000  Uiso   1.00
C14    C     0.14764   0.18403   0.37142   0.00000  Uiso   1.00
C15    C     0.19299   0.08089   0.02019   0.00000  Uiso   1.00
C16    C     0.19317   0.13675   0.08018   0.00000  Uiso   1.00
C17    C     0.12144   0.22697   0.44447   0.00000  Uiso   1.00
C18    C     0.11370   0.33092   0.29908   0.00000  Uiso   1.00
C19    C     0.17466   0.05197   0.42966   0.00000  Uiso   1.00
C20    C     0.19982   0.03800   0.00547   0.00000  Uiso   1.00
C21    C     0.19512   0.20821   0.06406   0.00000  Uiso   1.00
C22    C     0.12432   0.09890   0.39953   0.00000  Uiso   1.00
C23    C     0.13168   0.20826   0.01421   0.00000  Uiso   1.00
C24    C     0.02208   0.19838   0.20017   0.00000  Uiso   1.00
C25    C     0.15104   0.17311   0.49162   0.00000  Uiso   1.00
C26    C     0.14644   0.16042   0.44751   0.00000  Uiso   1.00
C27    C     0.17091   0.14834   0.01340   0.00000  Uiso   1.00
C28    C     0.17740   0.10667   0.49500   0.00000  Uiso   1.00
C29    C     0.16639   0.09229   0.45329   0.00000  Uiso   1.00
C30    C     0.14833   0.11813   0.43190   0.00000  Uiso   1.00
H31    H     0.20586   0.00326   0.21276   0.00000  Uiso   1.00
H32    H     0.12007   0.28870   0.03040   0.00000  Uiso   1.00
H33    H     0.12589   0.21465   0.05043   0.00000  Uiso   1.00
H34    H     0.21783   0.08252   0.11934   0.00000  Uiso   1.00
H35    H     0.24249   0.05988   0.07040   0.00000  Uiso   1.00
H36    H     0.31994   0.14884   0.33151   0.00000  Uiso   1.00
H37    H     0.32139   0.10446   0.29705   0.00000  Uiso   1.00
H38    H     0.07699   0.25915   0.43397   0.00000  Uiso   1.00
H39    H     0.12666   0.28513   0.42567   0.00000  Uiso   1.00
H40    H     0.07158   0.26041   0.04048   0.00000  Uiso   1.00
N41    N     0.21267   0.06793   0.08885   0.00000  Uiso   1.00
N42    N     0.04520   0.21639   0.17157   0.00000  Uiso   1.00
N43    N     0.31362   0.13486   0.30119   0.00000  Uiso   1.00
N44    N     0.08409   0.31907   0.32643   0.00000  Uiso   1.00
N45    N     0.18134   0.02017   0.40998   0.00000  Uiso   1.00
N46    N     0.20544   0.00370   0.49440   0.00000  Uiso   1.00
N47    N     0.20350   0.24335   0.07295   0.00000  Uiso   1.00
N48    N     0.10935   0.25631   0.42039   0.00000  Uiso   1.00
N49    N     0.09788   0.27053   0.01495   0.00000  Uiso   1.00
N50    N     0.10502   0.08356   0.37401   0.00000  Uiso   1.00
O51    O     0.16667   0.16667   0.25000   0.00000  Uiso   1.00
O52    O     0.15451   0.12637   0.15459   0.00000  Uiso   1.00
O53    O     0.12940   0.20391   0.34968   0.00000  Uiso   1.00
O54    O     0.20824   0.17759   0.14606   0.00000  Uiso   1.00
O55    O     0.17451   0.15880   0.34968   0.00000  Uiso   1.00
O56    O     0.17930   0.08019   0.28213   0.00000  Uiso   1.00
O57    O     0.14632   0.26085   0.27014   0.00000  Uiso   1.00
O58    O     0.07412   0.13291   0.23413   0.00000  Uiso   1.00
O59    O     0.26693   0.19272   0.21361   0.00000  Uiso   1.00
O60    O     0.07071   0.18878   0.28213   0.00000  Uiso   1.00
O61    O     0.25491   0.15226   0.27014   0.00000  Uiso   1.00
O62    O     0.13760   0.06944   0.23413   0.00000  Uiso   1.00
O63    O     0.20345   0.25620   0.21361   0.00000  Uiso   1.00
Zn64   Zn    0.19338   0.13994   0.28734   0.00000  Uiso   1.00
Zn65   Zn    0.13379   0.12458   0.21876   0.00000  Uiso   1.00
Zn66   Zn    0.21056   0.19775   0.20657   0.00000  Uiso   1.00
Zn67   Zn    0.12893   0.20439   0.28734   0.00000  Uiso   1.00
C68    C     0.38631   0.15955   0.26021   0.00000  Uiso   1.00
C69    C     0.51816   0.16408   0.05295   0.00000  Uiso   1.00
C70    C     0.53280   0.09558   0.06310   0.00000  Uiso   1.00
C71    C     0.61404   0.17365   0.24013   0.00000  Uiso   1.00
C72    C     0.47076   0.19002   0.42174   0.00000  Uiso   1.00
C73    C     0.65975   0.17572   0.23608   0.00000  Uiso   1.00
C74    C     0.34123   0.15694   0.26481   0.00000  Uiso   1.00
C75    C     0.51261   0.32234   0.23778   0.00000  Uiso   1.00
C76    C     0.48409   0.01260   0.26489   0.00000  Uiso   1.00
C77    C     0.48989   0.05603   0.25976   0.00000  Uiso   1.00
C78    C     0.50962   0.27783   0.24044   0.00000  Uiso   1.00
C79    C     0.45010   0.23476   0.49115   0.00000  Uiso   1.00
C80    C     0.51843   0.14798   0.12913   0.00000  Uiso   1.00
C81    C     0.48098   0.18403   0.37142   0.00000  Uiso   1.00
C82    C     0.52632   0.08089   0.02019   0.00000  Uiso   1.00
C83    C     0.52650   0.13675   0.08018   0.00000  Uiso   1.00
C84    C     0.45477   0.22697   0.44447   0.00000  Uiso   1.00
C85    C     0.44703   0.33092   0.29908   0.00000  Uiso   1.00
C86    C     0.50800   0.05197   0.42966   0.00000  Uiso   1.00
C87    C     0.53315   0.03800   0.00547   0.00000  Uiso   1.00
C88    C     0.52845   0.20821   0.06406   0.00000  Uiso   1.00
C89    C     0.45766   0.09890   0.39953   0.00000  Uiso   1.00
C90    C     0.46502   0.20826   0.01421   0.00000  Uiso   1.00
C91    C     0.35542   0.19838   0.20017   0.00000  Uiso   1.00
C92    C     0.48438   0.17311   0.49162   0.00000  Uiso   1.00
C93    C     0.47977   0.16042   0.44751   0.00000  Uiso   1.00
C94    C     0.50424   0.14834   0.01340   0.00000  Uiso   1.00
C95    C     0.51073   0.10667   0.49500   0.00000  Uiso   1.00
C96    C     0.49972   0.09229   0.45329   0.00000  Uiso   1.00
C97    C     0.48166   0.11813   0.43190   0.00000  Uiso   1.00
H98    H     0.53919   0.00326   0.21276   0.00000  Uiso   1.00
H99    H     0.45340   0.28870   0.03040   0.00000  Uiso   1.00
H100   H     0.45922   0.21465   0.05043   0.00000  Uiso   1.00
H101   H     0.55117   0.08252   0.11934   0.00000  Uiso   1.00
H102   H     0.57583   0.05988   0.07040   0.00000  Uiso   1.00
H103   H     0.65328   0.14884   0.33151   0.00000  Uiso   1.00
H104   H     0.65472   0.10446   0.29705   0.00000  Uiso   1.00
H105   H     0.41032   0.25915   0.43397   0.00000  Uiso   1.00
H106   H     0.45999   0.28513   0.42567   0.00000  Uiso   1.00
H107   H     0.40491   0.26041   0.04048   0.00000  Uiso   1.00
N108   N     0.54600   0.06793   0.08885   0.00000  Uiso   1.00
N109   N     0.37853   0.21639   0.17157   0.00000  Uiso   1.00
N110   N     0.64696   0.13486   0.30119   0.00000  Uiso   1.00
N111   N     0.41742   0.31907   0.32643   0.00000  Uiso   1.00
N112   N     0.51468   0.02017   0.40998   0.00000  Uiso   1.00
N113   N     0.53877   0.00370   0.49440   0.00000  Uiso   1.00
N114   N     0.53683   0.24335   0.07295   0.00000  Uiso   1.00
N115   N     0.44268   0.25631   0.42039   0.00000  Uiso   1.00
N116   N     0.43121   0.27053   0.01495   0.00000  Uiso   1.00
N117   N     0.43836   0.08356   0.37401   0.00000  Uiso   1.00
O118   O     0.50000   0.16667   0.25000   0.00000  Uiso   1.00
O119   O     0.48784   0.12637   0.15459   0.00000  Uiso   1.00
O120   O     0.46274   0.20391   0.34968   0.00000  Uiso   1.00
O121   O     0.54157   0.17759   0.14606   0.00000  Uiso   1.00
O122   O     0.50785   0.15880   0.34968   0.00000  Uiso   1.00
O123   O     0.51264   0.08019   0.28213   0.00000  Uiso   1.00
O124   O     0.47965   0.26085   0.27014   0.00000  Uiso   1.00
O125   O     0.40745   0.13291   0.23413   0.00000  Uiso   1.00
O126   O     0.60026   0.19272   0.21361   0.00000  Uiso   1.00
O127   O     0.40405   0.18878   0.28213   0.00000  Uiso   1.00
O128   O     0.58824   0.15226   0.27014   0.00000  Uiso   1.00
O129   O     0.47093   0.06944   0.23413   0.00000  Uiso   1.00
O130   O     0.53678   0.25620   0.21361   0.00000  Uiso   1.00
Zn131  Zn    0.52672   0.13994   0.28734   0.00000  Uiso   1.00
Zn132  Zn    0.46713   0.12458   0.21876   0.00000  Uiso   1.00
Zn133  Zn    0.54389   0.19775   0.20657   0.00000  Uiso   1.00
Zn134  Zn    0.46226   0.20439   0.28734   0.00000  Uiso   1.00
C135   C     0.71964   0.15955   0.26021   0.00000  Uiso   1.00
C136   C     0.85149   0.16408   0.05295   0.00000  Uiso   1.00
C137   C     0.86614   0.09558   0.06310   0.00000  Uiso   1.00
C138   C     0.94737   0.17365   0.24013   0.00000  Uiso   1.00
C139   C     0.80409   0.19002   0.42174   0.00000  Uiso   1.00
C140   C     0.99308   0.17572   0.23608   0.00000  Uiso   1.00
C141   C     0.67456   0.15694   0.26481   0.00000  Uiso   1.00
C142   C     0.84595   0.32234   0.23778   0.00000  Uiso   1.00
C143   C     0.81742   0.01260   0.26489   0.00000  Uiso   1.00
C144   C     0.82323   0.05603   0.25976   0.00000  Uiso   1.00
C145   C     0.84296   0.27783   0.24044   0.00000  Uiso   1.00
C146   C     0.78343   0.23476   0.49115   0.00000  Uiso   1.00
C147   C     0.85176   0.14798   0.12913   0.00000  Uiso   1.00
C148   C     0.81431   0.18403   0.37142   0.00000  Uiso   1.00
C149   C     0.85966   0.08089   0.02019   0.00000  Uiso   1.00
C150   C     0.85984   0.13675   0.08018   0.00000  Uiso   1.00
C151   C     0.78811   0.22697   0.44447   0.00000  Uiso   1.00
C152   C     0.78037   0.33092   0.29908   0.00000  Uiso   1.00
C153   C     0.84133   0.05197   0.42966   0.00000  Uiso   1.00
C154   C     0.86648   0.03800   0.00547   0.00000  Uiso   1.00
C155   C     0.86179   0.20821   0.06406   0.00000  Uiso   1.00
C156   C     0.79099   0.09890   0.39953   0.00000  Uiso   1.00
C157   C     0.79835   0.20826   0.01421   0.00000  Uiso   1.00
C158   C     0.68875   0.19838   0.20017   0.00000  Uiso   1.00
C159   C     0.81771   0.17311   0.49162   0.00000  Uiso   1.00
C160   C     0.81310   0.16042   0.44751   0.00000  Uiso   1.00
C161   C     0.83758   0.14834   0.01340   0.00000  Uiso   1.00
C162   C     0.84406   0.10667   0.49500   0.00000  Uiso   1.00
C163   C     0.83305   0.09229   0.45329   0.00000  Uiso   1.00
C164   C     0.81500   0.11813   0.43190   0.00000  Uiso   1.00
H165   H     0.87252   0.00326   0.21276   0.00000  Uiso   1.00
H166   H     0.78674   0.28870   0.03040   0.00000  Uiso   1.00
H167   H     0.79255   0.21465   0.05043   0.00000  Uiso   1.00
H168   H     0.88450   0.08252   0.11934   0.00000  Uiso   1.00
H169   H     0.90916   0.05988   0.07040   0.00000  Uiso   1.00
H170   H     0.98661   0.14884   0.33151   0.00000  Uiso   1.00
H171   H     0.98805   0.10446   0.29705   0.00000  Uiso   1.00
H172   H     0.74366   0.25915   0.43397   0.00000  Uiso   1.00
H173   H     0.79332   0.28513   0.42567   0.00000  Uiso   1.00
H174   H     0.73824   0.26041   0.04048   0.00000  Uiso   1.00
N175   N     0.87933   0.06793   0.08885   0.00000  Uiso   1.00
N176   N     0.71186   0.21639   0.17157   0.00000  Uiso   1.00
N177   N     0.98029   0.13486   0.30119   0.00000  Uiso   1.00
N178   N     0.75076   0.31907   0.32643   0.00000  Uiso   1.00
N179   N     0.84801   0.02017   0.40998   0.00000  Uiso   1.00
N180   N     0.87210   0.00370   0.49440   0.00000  Uiso   1.00
N181   N     0.87017   0.24335   0.07295   0.00000  Uiso   1.00
N182   N     0.77602   0.25631   0.42039   0.00000  Uiso   1.00
N183   N     0.76455   0.27053   0.01495   0.00000  Uiso   1.00
N184   N     0.77169   0.08356   0.37401   0.00000  Uiso   1.00
O185   O     0.83333   0.16667   0.25000   0.00000  Uiso   1.00
O186   O     0.82118   0.12637   0.15459   0.00000  Uiso   1.00
O187   O     0.79607   0.20391   0.34968   0.00000  Uiso   1.00
O188   O     0.87491   0.17759   0.14606   0.00000  Uiso   1.00
O189   O     0.84118   0.15880   0.34968   0.00000  Uiso   1.00
O190   O     0.84597   0.08019   0.28213   0.00000  Uiso   1.00
O191   O     0.81298   0.26085   0.27014   0.00000  Uiso   1.00
O192   O     0.74078   0.13291   0.23413   0.00000  Uiso   1.00
O193   O     0.93360   0.19272   0.21361   0.00000  Uiso   1.00
O194   O     0.73738   0.18878   0.28213   0.00000  Uiso   1.00
O195   O     0.92158   0.15226   0.27014   0.00000  Uiso   1.00
O196   O     0.80426   0.06944   0.23413   0.00000  Uiso   1.00
O197   O     0.87012   0.25620   0.21361   0.00000  Uiso   1.00
Zn198  Zn    0.86005   0.13994   0.28734   0.00000  Uiso   1.00
Zn199  Zn    0.80046   0.12458   0.21876   0.00000  Uiso   1.00
Zn200  Zn    0.87723   0.19775   0.20657   0.00000  Uiso   1.00
Zn201  Zn    0.79560   0.20439   0.28734   0.00000  Uiso   1.00
C202   C     0.05298   0.49288   0.26021   0.00000  Uiso   1.00
C203   C     0.18483   0.49742   0.05295   0.00000  Uiso   1.00
C204   C     0.19947   0.42892   0.06310   0.00000  Uiso   1.00
C205   C     0.28070   0.50699   0.24013   0.00000  Uiso   1.00
C206   C     0.13743   0.52336   0.42174   0.00000  Uiso   1.00
C207   C     0.32642   0.50906   0.23608   0.00000  Uiso   1.00
C208   C     0.00789   0.49027   0.26481   0.00000  Uiso   1.00
C209   C     0.17928   0.65567   0.23778   0.00000  Uiso   1.00
C210   C     0.15075   0.34593   0.26489   0.00000  Uiso   1.00
C211   C     0.15656   0.38937   0.25976   0.00000  Uiso   1.00
C212   C     0.17629   0.61117   0.24044   0.00000  Uiso   1.00
C213   C     0.11676   0.56809   0.49115   0.00000  Uiso   1.00
C214   C     0.18510   0.48132   0.12913   0.00000  Uiso   1.00
C215   C     0.14764   0.51737   0.37142   0.00000  Uiso   1.00
C216   C     0.19299   0.41423   0.02019   0.00000  Uiso   1.00
C217   C     0.19317   0.47009   0.08018   0.00000  Uiso   1.00
C218   C     0.12144   0.56030   0.44447   0.00000  Uiso   1.00
C219   C     0.11370   0.66426   0.29908   0.00000  Uiso   1.00
C220   C     0.17466   0.38531   0.42966   0.00000  Uiso   1.00
C221   C     0.19982   0.37133   0.00547   0.00000  Uiso   1.00
C222   C     0.19512   0.54155   0.06406   0.00000  Uiso   1.00
C223   C     0.12432   0.43223   0.39953   0.00000  Uiso   1.00
C224   C     0.13168   0.54159   0.01421   0.00000  Uiso   1.00
C225   C     0.02208   0.53171   0.20017   0.00000  Uiso   1.00
C226   C     0.15104   0.50644   0.49162   0.00000  Uiso   1.00
C227   C     0.14644   0.49375   0.44751   0.00000  Uiso   1.00
C228   C     0.17091   0.48167   0.01340   0.00000  Uiso   1.00
C229   C     0.17740   0.44000   0.49500   0.00000  Uiso   1.00
C230   C     0.16639   0.42563   0.45329   0.00000  Uiso   1.00
C231   C     0.14833   0.45146   0.43190   0.00000  Uiso   1.00
H232   H     0.20586   0.33659   0.21276   0.00000  Uiso   1.00
H233   H     0.12007   0.62203   0.03040   0.00000  Uiso   1.00
H234   H     0.12589   0.54798   0.05043   0.00000  Uiso   1.00
H235   H     0.21783   0.41586   0.11934   0.00000  Uiso   1.00
H236   H     0.24249   0.39321   0.07040   0.00000  Uiso   1.00
H237   H     0.31994   0.48217   0.33151   0.00000  Uiso   1.00
H238   H     0.32139   0.43779   0.29705   0.00000  Uiso   1.00
H239   H     0.07699   0.59249   0.43397   0.00000  Uiso   1.00
H240   H     0.12666   0.61847   0.42567   0.00000  Uiso   1.00
H241   H     0.07158   0.59375   0.04048   0.00000  Uiso   1.00
N242   N     0.21267   0.40126   0.08885   0.00000  Uiso   1.00
N243   N     0.04520   0.54973   0.17157   0.00000  Uiso   1.00
N244   N     0.31362   0.46819   0.30119   0.00000  Uiso   1.00
N245   N     0.08409   0.65240   0.32643   0.00000  Uiso   1.00
N246   N     0.18134   0.35350   0.40998   0.00000  Uiso   1.00
N247   N     0.20544   0.33703   0.49440   0.00000  Uiso   1.00
N248   N     0.20350   0.57668   0.07295   0.00000  Uiso   1.00
N249   N     0.10935   0.58965   0.42039   0.00000  Uiso   1.00
N250   N     0.09788   0.60387   0.01495   0.00000  Uiso   1.00
N251   N     0.10502   0.41690   0.37401   0.00000  Uiso   1.00
O252   O     0.16667   0.50000   0.25000   0.00000  Uiso   1.00
O253   O     0.15451   0.45970   0.15459   0.00000  Uiso   1.00
O254   O     0.12940   0.53724   0.34968   0.00000  Uiso   1.00
O255   O     0.20824   0.51092   0.14606   0.00000  Uiso   1.00
O256   O     0.17451   0.49213   0.34968   0.00000  Uiso   1.00
O257   O     0.17930   0.41352   0.28213   0.00000  Uiso   1.00
O258   O     0.14632   0.59418   0.27014   0.00000  Uiso   1.00
O259   O     0.07412   0.46625   0.23413   0.00000  Uiso   1.00
O260   O     0.26693   0.52605   0.21361   0.00000  Uiso   1.00
O261   O     0.07071   0.52211   0.28213   0.00000  Uiso   1.00
O262   O     0.25491   0.48559   0.27014   0.00000  Uiso   1.00
O263   O     0.13760   0.40277   0.23413   0.00000  Uiso   1.00
O264   O     0.20345   0.58953   0.21361   0.00000  Uiso   1.00
Zn265  Zn    0.19338   0.47327   0.28734   0.00000  Uiso   1.00
Zn266  Zn    0.13379   0.45791   0.21876   0.00000  Uiso   1.00
Zn267  Zn    0.21056   0.53109   0.20657   0.00000  Uiso   1.00
Zn268  Zn    0.12893   0.53773   0.28734   0.00000  Uiso   1.00
C269   C     0.38631   0.49288   0.26021   0.00000  Uiso   1.00
C270   C     0.51816   0.49742   0.05295   0.00000  Uiso   1.00
C271   C     0.53280   0.42892   0.06310   0.00000  Uiso   1.00
C272   C     0.61404   0.50699   0.24013   0.00000  Uiso   1.00
C273   C     0.47076   0.52336   0.42174   0.00000  Uiso   1.00
C274   C     0.65975   0.50906   0.23608   0.00000  Uiso   1.00
C275   C     0.34123   0.49027   0.26481   0.00000  Uiso   1.00
C276   C     0.51261   0.65567   0.23778   0.00000  Uiso   1.00
C277   C     0.48409   0.34593   0.26489   0.00000  Uiso   1.00
C278   C     0.48989   0.38937   0.25976   0.00000  Uiso   1.00
C279   C     0.50962   0.61117   0.24044   0.00000  Uiso   1.00
C280   C     0.45010   0.56809   0.49115   0.00000  Uiso   1.00
C281   C     0.51843   0.48132   0.12913   0.00000  Uiso   1.00
C282   C     0.48098   0.51737   0.37142   0.00000  Uiso   1.00
C283   C     0.52632   0.41423   0.02019   0.00000  Uiso   1.00
C284   C     0.52650   0.47009   0.08018   0.00000  Uiso   1.00
C285   C     0.45477   0.56030   0.44447   0.00000  Uiso   1.00
C286   C     0.44703   0.66426   0.29908   0.00000  Uiso   1.00
C287   C     0.50800   0.38531   0.42966   0.00000  Uiso   1.00
C288   C     0.53315   0.37133   0.00547   0.00000  Uiso   1.00
C289   C     0.52845   0.54155   0.06406   0.00000  Uiso   1.00
C290   C     0.45766   0.43223   0.39953   0.00000  Uiso   1.00
C291   C     0.46502   0.54159   0.01421   0.00000  Uiso   1.00
C292   C     0.35542   0.53171   0.20017   0.00000  Uiso   1.00
C293   C     0.48438   0.50644   0.49162   0.00000  Uiso   1.00
C294   C     0.47977   0.49375   0.44751   0.00000  Uiso   1.00
C295   C     0.50424   0.48167   0.01340   0.00000  Uiso   1.00
C296   C     0.51073   0.44000   0.49500   0.00000  Uiso   1.00
C297   C     0.49972   0.42563   0.45329   0.00000  Uiso   1.00
C298   C     0.48166   0.45146   0.43190   0.00000  Uiso   1.00
H299   H     0.53919   0.33659   0.21276   0.00000  Uiso   1.00
H300   H     0.45340   0.62203   0.03040   0.00000  Uiso   1.00
H301   H     0.45922   0.54798   0.05043   0.00000  Uiso   1.00
H302   H     0.55117   0.41586   0.11934   0.00000  Uiso   1.00
H303   H     0.57583   0.39321   0.07040   0.00000  Uiso   1.00
H304   H     0.65328   0.48217   0.33151   0.00000  Uiso   1.00
H305   H     0.65472   0.43779   0.29705   0.00000  Uiso   1.00
H306   H     0.41032   0.59249   0.43397   0.00000  Uiso   1.00
H307   H     0.45999   0.61847   0.42567   0.00000  Uiso   1.00
H308   H     0.40491   0.59375   0.04048   0.00000  Uiso   1.00
N309   N     0.54600   0.40126   0.08885   0.00000  Uiso   1.00
N310   N     0.37853   0.54973   0.17157   0.00000  Uiso   1.00
N311   N     0.64696   0.46819   0.30119   0.00000  Uiso   1.00
N312   N     0.41742   0.65240   0.32643   0.00000  Uiso   1.00
N313   N     0.51468   0.35350   0.40998   0.00000  Uiso   1.00
N314   N     0.53877   0.33703   0.49440   0.00000  Uiso   1.00
N315   N     0.53683   0.57668   0.07295   0.00000  Uiso   1.00
N316   N     0.44268   0.58965   0.42039   0.00000  Uiso   1.00
N317   N     0.43121   0.60387   0.01495   0.00000  Uiso   1.00
N318   N     0.43836   0.41690   0.37401   0.00000  Uiso   1.00
O319   O     0.50000   0.50000   0.25000   0.00000  Uiso   1.00
O320   O     0.48784   0.45970   0.15459   0.00000  Uiso   1.00
O321   O     0.46274   0.53724   0.34968   0.00000  Uiso   1.00
O322   O     0.54157   0.51092   0.14606   0.00000  Uiso   1.00
O323   O     0.50785   0.49213   0.34968   0.00000  Uiso   1.00
O324   O     0.51264   0.41352   0.28213   0.00000  Uiso   1.00
O325   O     0.47965   0.59418   0.27014   0.00000  Uiso   1.00
O326   O     0.40745   0.46625   0.23413   0.00000  Uiso   1.00
O327   O     0.60026   0.52605   0.21361   0.00000  Uiso   1.00
O328   O     0.40405   0.52211   0.28213   0.00000  Uiso   1.00
O329   O     0.58824   0.48559   0.27014   0.00000  Uiso   1.00
O330   O     0.47093   0.40277   0.23413   0.00000  Uiso   1.00
O331   O     0.53678   0.58953   0.21361   0.00000  Uiso   1.00
Zn332  Zn    0.52672   0.47327   0.28734   0.00000  Uiso   1.00
Zn333  Zn    0.46713   0.45791   0.21876   0.00000  Uiso   1.00
Zn334  Zn    0.54389   0.53109   0.20657   0.00000  Uiso   1.00
Zn335  Zn    0.46226   0.53773   0.28734   0.00000  Uiso   1.00
C336   C     0.71964   0.49288   0.26021   0.00000  Uiso   1.00
C337   C     0.85149   0.49742   0.05295   0.00000  Uiso   1.00
C338   C     0.86614   0.42892   0.06310   0.00000  Uiso   1.00
C339   C     0.94737   0.50699   0.24013   0.00000  Uiso   1.00
C340   C     0.80409   0.52336   0.42174   0.00000  Uiso   1.00
C341   C     0.99308   0.50906   0.23608   0.00000  Uiso   1.00
C342   C     0.67456   0.49027   0.26481   0.00000  Uiso   1.00
C343   C     0.84595   0.65567   0.23778   0.00000  Uiso   1.00
C344   C     0.81742   0.34593   0.26489   0.00000  Uiso   1.00
C345   C     0.82323   0.38937   0.25976   0.00000  Uiso   1.00
C346   C     0.84296   0.61117   0.24044   0.00000  Uiso   1.00
C347   C     0.78343   0.56809   0.49115   0.00000  Uiso   1.00
C348   C     0.85176   0.48132   0.12913   0.00000  Uiso   1.00
C349   C     0.81431   0.51737   0.37142   0.00000  Uiso   1.00
C350   C     0.85966   0.41423   0.02019   0.00000  Uiso   1.00
C351   C     0.85984   0.47009   0.08018   0.00000  Uiso   1.00
C352   C     0.78811   0.56030   0.44447   0.00000  Uiso   1.00
C353   C     0.78037   0.66426   0.29908   0.00000  Uiso   1.00
C354   C     0.84133   0.38531   0.42966   0.00000  Uiso   1.00
C355   C     0.86648   0.37133   0.00547   0.00000  Uiso   1.00
C356   C     0.86179   0.54155   0.06406   0.00000  Uiso   1.00
C357   C     0.79099   0.43223   0.39953   0.00000  Uiso   1.00
C358   C     0.79835   0.54159   0.01421   0.00000  Uiso   1.00
C359   C     0.68875   0.53171   0.20017   0.00000  Uiso   1.00
C360   C     0.81771   0.50644   0.49162   0.00000  Uiso   1.00
C361   C     0.81310   0.49375   0.44751   0.00000  Uiso   1.00
C362   C     0.83758   0.48167   0.01340   0.00000  Uiso   1.00
C363   C     0.84406   0.44000   0.49500   0.00000  Uiso   1.00
C364   C     0.83305   0.42563   0.45329   0.00000  Uiso   1.00
C365   C     0.81500   0.45146   0.43190   0.00000  Uiso   1.00
H366   H     0.87252   0.33659   0.21276   0.00000  Uiso   1.00
H367   H     0.78674   0.62203   0.03040   0.00000  Uiso   1.00
H368   H     0.79255   0.54798   0.05043   0.00000  Uiso   1.00
H369   H     0.88450   0.41586   0.11934   0.00000  Uiso   1.00
H370   H     0.90916   0.39321   0.07040   0.00000  Uiso   1.00
H371   H     0.98661   0.48217   0.33151   0.00000  Uiso   1.00
H372   H     0.98805   0.43779   0.29705   0.00000  Uiso   1.00
H373   H     0.74366   0.59249   0.43397   0.00000  Uiso   1.00
H374   H     0.79332   0.61847   0.42567   0.00000  Uiso   1.00
H375   H     0.73824   0.59375   0.04048   0.00000  Uiso   1.00
N376   N     0.87933   0.40126   0.08885   0.00000  Uiso   1.00
N377   N     0.71186   0.54973   0.17157   0.00000  Uiso   1.00
N378   N     0.98029   0.46819   0.30119   0.00000  Uiso   1.00
N379   N     0.75076   0.65240   0.32643   0.00000  Uiso   1.00
N380   N     0.84801   0.35350   0.40998   0.00000  Uiso   1.00
N381   N     0.87210   0.33703   0.49440   0.00000  Uiso   1.00
N382   N     0.87017   0.57668   0.07295   0.00000  Uiso   1.00
N383   N     0.77602   0.58965   0.42039   0.00000  Uiso   1.00
N384   N     0.76455   0.60387   0.01495   0.00000  Uiso   1.00
N385   N     0.77169   0.41690   0.37401   0.00000  Uiso   1.00
O386   O     0.83333   0.50000   0.25000   0.00000  Uiso   1.00
O387   O     0.82118   0.45970   0.15459   0.00000  Uiso   1.00
O388   O     0.79607   0.53724   0.34968   0.00000  Uiso   1.00
O389   O     0.87491   0.51092   0.14606   0.00000  Uiso   1.00
O390   O     0.84118   0.49213   0.34968   0.00000  Uiso   1.00
O391   O     0.84597   0.41352   0.28213   0.00000  Uiso   1.00
O392   O     0.81298   0.59418   0.27014   0.00000  Uiso   1.00
O393   O     0.74078   0.46625   0.23413   0.00000  Uiso   1.00
O394   O     0.93360   0.52605   0.21361   0.00000  Uiso   1.00
O395   O     0.73738   0.52211   0.28213   0.00000  Uiso   1.00
O396   O     0.92158   0.48559   0.27014   0.00000  Uiso   1.00
O397   O     0.80426   0.40277   0.23413   0.00000  Uiso   1.00
O398   O     0.87012   0.58953   0.21361   0.00000  Uiso   1.00
Zn399  Zn    0.86005   0.47327   0.28734   0.00000  Uiso   1.00
Zn400  Zn    0.80046   0.45791   0.21876   0.00000  Uiso   1.00
Zn401  Zn    0.87723   0.53109   0.20657   0.00000  Uiso   1.00
Zn402  Zn    0.79560   0.53773   0.28734   0.00000  Uiso   1.00
C403   C     0.05298   0.82622   0.26021   0.00000  Uiso   1.00
C404   C     0.18483   0.83075   0.05295   0.00000  Uiso   1.00
C405   C     0.19947   0.76225   0.06310   0.00000  Uiso   1.00
C406   C     0.28070   0.84032   0.24013   0.00000  Uiso   1.00
C407   C     0.13743   0.85669   0.42174   0.00000  Uiso   1.00
C408   C     0.32642   0.84239   0.23608   0.00000  Uiso   1.00
C409   C     0.00789   0.82361   0.26481   0.00000  Uiso   1.00
C410   C     0.17928   0.98900   0.23778   0.00000  Uiso   1.00
C411   C     0.15075   0.67927   0.26489   0.00000  Uiso   1.00
C412   C     0.15656   0.72270   0.25976   0.00000  Uiso   1.00
C413   C     0.17629   0.94450   0.24044   0.00000  Uiso   1.00
C414   C     0.11676   0.90142   0.49115   0.00000  Uiso   1.00
C415   C     0.18510   0.81465   0.12913   0.00000  Uiso   1.00
C416   C     0.14764   0.85070   0.37142   0.00000  Uiso   1.00
C417   C     0.19299   0.74756   0.02019   0.00000  Uiso   1.00
C418   C     0.19317   0.80342   0.08018   0.00000  Uiso   1.00
C419   C     0.12144   0.89364   0.44447   0.00000  Uiso   1.00
C420   C     0.11370   0.99759   0.29908   0.00000  Uiso   1.00
C421   C     0.17466   0.71864   0.42966   0.00000  Uiso   1.00
C422   C     0.19982   0.70466   0.00547   0.00000  Uiso   1.00
C423   C     0.19512   0.87488   0.06406   0.00000  Uiso   1.00
C424   C     0.12432   0.76556   0.39953   0.00000  Uiso   1.00
C425   C     0.13168   0.87493   0.01421   0.00000  Uiso   1.00
C426   C     0.02208   0.86504   0.20017   0.00000  Uiso   1.00
C427   C     0.15104   0.83977   0.49162   0.00000  Uiso   1.00
C428   C     0.14644   0.82709   0.44751   0.00000  Uiso   1.00
C429   C     0.17091   0.81501   0.01340   0.00000  Uiso   1.00
C430   C     0.17740   0.77334   0.49500   0.00000  Uiso   1.00
C431   C     0.16639   0.75896   0.45329   0.00000  Uiso   1.00
C432   C     0.14833   0.78479   0.43190   0.00000  Uiso   1.00
H433   H     0.20586   0.66993   0.21276   0.00000  Uiso   1.00
H434   H     0.12007   0.95537   0.03040   0.00000  Uiso   1.00
H435   H     0.12589   0.88131   0.05043   0.00000  Uiso   1.00
H436   H     0.21783   0.74919   0.11934   0.00000  Uiso   1.00
H437   H     0.24249   0.72655   0.07040   0.00000  Uiso   1.00
H438   H     0.31994   0.81551   0.33151   0.00000  Uiso   1.00
H439   H     0.32139   0.77113   0.29705   0.00000  Uiso   1.00
H440   H     0.07699   0.92582   0.43397   0.00000  Uiso   1.00
H441   H     0.12666   0.95180   0.42567   0.00000  Uiso   1.00
H442   H     0.07158   0.92708   0.04048   0.00000  Uiso   1.00
N443   N     0.21267   0.73460   0.08885   0.00000  Uiso   1.00
N444   N     0.04520   0.88306   0.17157   0.00000  Uiso   1.00
N445   N     0.31362   0.80153   0.30119   0.00000  Uiso   1.00
N446   N     0.08409   0.98573   0.32643   0.00000  Uiso   1.00
N447   N     0.18134   0.68684   0.40998   0.00000  Uiso   1.00
N448   N     0.20544   0.67036   0.49440   0.00000  Uiso   1.00
N449   N     0.20350   0.91002   0.07295   0.00000  Uiso   1.00
N450   N     0.10935   0.92298   0.42039   0.00000  Uiso   1.00
N451   N     0.09788   0.93720   0.01495   0.00000  Uiso   1.00
N452   N     0.10502   0.75023   0.37401   0.00000  Uiso   1.00
O453   O     0.16667   0.83333   0.25000   0.00000  Uiso   1.00
O454   O     0.15451   0.79304   0.15459   0.00000  Uiso   1.00
O455   O     0.12940   0.87058   0.34968   0.00000  Uiso   1.00
O456   O     0.20824   0.84425   0.14606   0.00000  Uiso   1.00
O457   O     0.17451   0.82546   0.34968   0.00000  Uiso   1.00
O458   O     0.17930   0.74686   0.28213   0.00000  Uiso   1.00
O459   O     0.14632   0.92751   0.27014   0.00000  Uiso   1.00
O460   O     0.07412   0.79958   0.23413   0.00000  Uiso   1.00
O461   O     0.26693   0.85939   0.21361   0.00000  Uiso   1.00
O462   O     0.07071   0.85544   0.28213   0.00000  Uiso   1.00
O463   O     0.25491   0.81892   0.27014   0.00000  Uiso   1.00
O464   O     0.13760   0.73610   0.23413   0.00000  Uiso   1.00
O465   O     0.20345   0.92286   0.21361   0.00000  Uiso   1.00
Zn466  Zn    0.19338   0.80661   0.28734   0.00000  Uiso   1.00
Zn467  Zn    0.13379   0.79124   0.21876   0.00000  Uiso   1.00
Zn468  Zn    0.21056   0.86442   0.20657   0.00000  Uiso   1.00
Zn469  Zn    0.12893   0.87106   0.28734   0.00000  Uiso   1.00
C470   C     0.38631   0.82622   0.26021   0.00000  Uiso   1.00
C471   C     0.51816   0.83075   0.05295   0.00000  Uiso   1.00
C472   C     0.53280   0.76225   0.06310   0.00000  Uiso   1.00
C473   C     0.61404   0.84032   0.24013   0.00000  Uiso   1.00
C474   C     0.47076   0.85669   0.42174   0.00000  Uiso   1.00
C475   C     0.65975   0.84239   0.23608   0.00000  Uiso   1.00
C476   C     0.34123   0.82361   0.26481   0.00000  Uiso   1.00
C477   C     0.51261   0.98900   0.23778   0.00000  Uiso   1.00
C478   C     0.48409   0.67927   0.26489   0.00000  Uiso   1.00
C479   C     0.48989   0.72270   0.25976   0.00000  Uiso   1.00
C480   C     0.50962   0.94450   0.24044   0.00000  Uiso   1.00
C481   C     0.45010   0.90142   0.49115   0.00000  Uiso   1.00
C482   C     0.51843   0.81465   0.12913   0.00000  Uiso   1.00
C483   C     0.48098   0.85070   0.37142   0.00000  Uiso   1.00
C484   C     0.52632   0.74756   0.02019   0.00000  Uiso   1.00
C485   C     0.52650   0.80342   0.08018   0.00000  Uiso   1.00
C486   C     0.45477   0.89364   0.44447   0.00000  Uiso   1.00
C487   C     0.44703   0.99759   0.29908   0.00000  Uiso   1.00
C488   C     0.50800   0.71864   0.42966   0.00000  Uiso   1.00
C489   C     0.53315   0.70466   0.00547   0.00000  Uiso   1.00
C490   C     0.52845   0.87488   0.06406   0.00000  Uiso   1.00
C491   C     0.45766   0.76556   0.39953   0.00000  Uiso   1.00
C492   C     0.46502   0.87493   0.01421   0.00000  Uiso   1.00
C493   C     0.35542   0.86504   0.20017   0.00000  Uiso   1.00
C494   C     0.48438   0.83977   0.49162   0.00000  Uiso   1.00
C495   C     0.47977   0.82709   0.44751   0.00000  Uiso   1.00
C496   C     0.50424   0.81501   0.01340   0.00000  Uiso   1.00
C497   C     0.51073   0.77334   0.49500   0.00000  Uiso   1.00
C498   C     0.49972   0.75896   0.45329   0.00000  Uiso   1.00
C499   C     0.48166   0.78479   0.43190   0.00000  Uiso   1.00
H500   H     0.53919   0.66993   0.21276   0.00000  Uiso   1.00
H501   H     0.45340   0.95537   0.03040   0.00000  Uiso   1.00
H502   H     0.45922   0.88131   0.05043   0.00000  Uiso   1.00
H503   H     0.55117   0.74919   0.11934   0.00000  Uiso   1.00
H504   H     0.57583   0.72655   0.07040   0.00000  Uiso   1.00
H505   H     0.65328   0.81551   0.33151   0.00000  Uiso   1.00
H506   H     0.65472   0.77113   0.29705   0.00000  Uiso   1.00
H507   H     0.41032   0.92582   0.43397   0.00000  Uiso   1.00
H508   H     0.45999   0.95180   0.42567   0.00000  Uiso   1.00
H509   H     0.40491   0.92708   0.04048   0.00000  Uiso   1.00
N510   N     0.54600   0.73460   0.08885   0.00000  Uiso   1.00
N511   N     0.37853   0.88306   0.17157   0.00000  Uiso   1.00
N512   N     0.64696   0.80153   0.30119   0.00000  Uiso   1.00
N513   N     0.41742   0.98573   0.32643   0.00000  Uiso   1.00
N514   N     0.51468   0.68684   0.40998   0.00000  Uiso   1.00
N515   N     0.53877   0.67036   0.49440   0.00000  Uiso   1.00
N516   N     0.53683   0.91002   0.07295   0.00000  Uiso   1.00
N517   N     0.44268   0.92298   0.42039   0.00000  Uiso   1.00
N518   N     0.43121   0.93720   0.01495   0.00000  Uiso   1.00
N519   N     0.43836   0.75023   0.37401   0.00000  Uiso   1.00
O520   O     0.50000   0.83333   0.25000   0.00000  Uiso   1.00
O521   O     0.48784   0.79304   0.15459   0.00000  Uiso   1.00
O522   O     0.46274   0.87058   0.34968   0.00000  Uiso   1.00
O523   O     0.54157   0.84425   0.14606   0.00000  Uiso   1.00
O524   O     0.50785   0.82546   0.34968   0.00000  Uiso   1.00
O525   O     0.51264   0.74686   0.28213   0.00000  Uiso   1.00
O526   O     0.47965   0.92751   0.27014   0.00000  Uiso   1.00
O527   O     0.40745   0.79958   0.23413   0.00000  Uiso   1.00
O528   O     0.60026   0.85939   0.21361   0.00000  Uiso   1.00
O529   O     0.40405   0.85544   0.28213   0.00000  Uiso   1.00
O530   O     0.58824   0.81892   0.27014   0.00000  Uiso   1.00
O531   O     0.47093   0.73610   0.23413   0.00000  Uiso   1.00
O532   O     0.53678   0.92286   0.21361   0.00000  Uiso   1.00
Zn533  Zn    0.52672   0.80661   0.28734   0.00000  Uiso   1.00
Zn534  Zn    0.46713   0.79124   0.21876   0.00000  Uiso   1.00
Zn535  Zn    0.54389   0.86442   0.20657   0.00000  Uiso   1.00
Zn536  Zn    0.46226   0.87106   0.28734   0.00000  Uiso   1.00
C537   C     0.71964   0.82622   0.26021   0.00000  Uiso   1.00
C538   C     0.85149   0.83075   0.05295   0.00000  Uiso   1.00
C539   C     0.86614   0.76225   0.06310   0.00000  Uiso   1.00
C540   C     0.94737   0.84032   0.24013   0.00000  Uiso   1.00
C541   C     0.80409   0.85669   0.42174   0.00000  Uiso   1.00
C542   C     0.99308   0.84239   0.23608   0.00000  Uiso   1.00
C543   C     0.67456   0.82361   0.26481   0.00000  Uiso   1.00
C544   C     0.84595   0.98900   0.23778   0.00000  Uiso   1.00
C545   C     0.81742   0.67927   0.26489   0.00000  Uiso   1.00
C546   C     0.82323   0.72270   0.25976   0.00000  Uiso   1.00
C547   C     0.84296   0.94450   0.24044   0.00000  Uiso   1.00
C548   C     0.78343   0.90142   0.49115   0.00000  Uiso   1.00
C549   C     0.85176   0.81465   0.12913   0.00000  Uiso   1.00
C550   C     0.81431   0.85070   0.37142   0.00000  Uiso   1.00
C551   C     0.85966   0.74756   0.02019   0.00000  Uiso   1.00
C552   C     0.85984   0.80342   0.08018   0.00000  Uiso   1.00
C553   C     0.78811   0.89364   0.44447   0.00000  Uiso   1.00
C554   C     0.78037   0.99759   0.29908   0.00000  Uiso   1.00
C555   C     0.84133   0.71864   0.42966   0.00000  Uiso   1.00
C556   C     0.86648   0.70466   0.00547   0.00000  Uiso   1.00
C557   C     0.86179   0.87488   0.06406   0.00000  Uiso   1.00
C558   C     0.79099   0.76556   0.39953   0.00000  Uiso   1.00
C559   C     0.79835   0.87493   0.01421   0.00000  Uiso   1.00
C560   C     0.68875   0.86504   0.20017   0.00000  Uiso   1.00
C561   C     0.81771   0.83977   0.49162   0.00000  Uiso   1.00
C562   C     0.81310   0.82709   0.44751   0.00000  Uiso   1.00
C563   C     0.83758   0.81501   0.01340   0.00000  Uiso   1.00
C564   C     0.84406   0.77334   0.49500   0.00000  Uiso   1.00
C565   C     0.83305   0.75896   0.45329   0.00000  Uiso   1.00
C566   C     0.81500   0.78479   0.43190   0.00000  Uiso   1.00
H567   H     0.87252   0.66993   0.21276   0.00000  Uiso   1.00
H568   H     0.78674   0.95537   0.03040   0.00000  Uiso   1.00
H569   H     0.79255   0.88131   0.05043   0.00000  Uiso   1.00
H570   H     0.88450   0.74919   0.11934   0.00000  Uiso   1.00
H571   H     0.90916   0.72655   0.07040   0.00000  Uiso   1.00
H572   H     0.98661   0.81551   0.33151   0.00000  Uiso   1.00
H573   H     0.98805   0.77113   0.29705   0.00000  Uiso   1.00
H574   H     0.74366   0.92582   0.43397   0.00000  Uiso   1.00
H575   H     0.79332   0.95180   0.42567   0.00000  Uiso   1.00
H576   H     0.73824   0.92708   0.04048   0.00000  Uiso   1.00
N577   N     0.87933   0.73460   0.08885   0.00000  Uiso   1.00
N578   N     0.71186   0.88306   0.17157   0.00000  Uiso   1.00
N579   N     0.98029   0.80153   0.30119   0.00000  Uiso   1.00
N580   N     0.75076   0.98573   0.32643   0.00000  Uiso   1.00
N581   N     0.84801   0.68684   0.40998   0.00000  Uiso   1.00
N582   N     0.87210   0.67036   0.49440   0.00000  Uiso   1.00
N583   N     0.87017   0.91002   0.07295   0.00000  Uiso   1.00
N584   N     0.77602   0.92298   0.42039   0.00000  Uiso   1.00
N585   N     0.76455   0.93720   0.01495   0.00000  Uiso   1.00
N586   N     0.77169   0.75023   0.37401   0.00000  Uiso   1.00
O587   O     0.83333   0.83333   0.25000   0.00000  Uiso   1.00
O588   O     0.82118   0.79304   0.15459   0.00000  Uiso   1.00
O589   O     0.79607   0.87058   0.34968   0.00000  Uiso   1.00
O590   O     0.87491   0.84425   0.14606   0.00000  Uiso   1.00
O591   O     0.84118   0.82546   0.34968   0.00000  Uiso   1.00
O592   O     0.84597   0.74686   0.28213   0.00000  Uiso   1.00
O593   O     0.81298   0.92751   0.27014   0.00000  Uiso   1.00
O594   O     0.74078   0.79958   0.23413   0.00000  Uiso   1.00
O595   O     0.93360   0.85939   0.21361   0.00000  Uiso   1.00
O596   O     0.73738   0.85544   0.28213   0.00000  Uiso   1.00
O597   O     0.92158   0.81892   0.27014   0.00000  Uiso   1.00
O598   O     0.80426   0.73610   0.23413   0.00000  Uiso   1.00
O599   O     0.87012   0.92286   0.21361   0.00000  Uiso   1.00
Zn600  Zn    0.86005   0.80661   0.28734   0.00000  Uiso   1.00
Zn601  Zn    0.80046   0.79124   0.21876   0.00000  Uiso   1.00
Zn602  Zn    0.87723   0.86442   0.20657   0.00000  Uiso   1.00
Zn603  Zn    0.79560   0.87106   0.28734   0.00000  Uiso   1.00
C604   C     0.05298   0.15955   0.76021   0.00000  Uiso   1.00
C605   C     0.18483   0.16408   0.55295   0.00000  Uiso   1.00
C606   C     0.19947   0.09558   0.56310   0.00000  Uiso   1.00
C607   C     0.28070   0.17365   0.74013   0.00000  Uiso   1.00
C608   C     0.13743   0.19002   0.92174   0.00000  Uiso   1.00
C609   C     0.32642   0.17572   0.73608   0.00000  Uiso   1.00
C610   C     0.00789   0.15694   0.76481   0.00000  Uiso   1.00
C611   C     0.17928   0.32234   0.73778   0.00000  Uiso   1.00
C612   C     0.15075   0.01260   0.76489   0.00000  Uiso   1.00
C613   C     0.15656   0.05603   0.75976   0.00000  Uiso   1.00
C614   C     0.17629   0.27783   0.74044   0.00000  Uiso   1.00
C615   C     0.11676   0.23476   0.99115   0.00000  Uiso   1.00
C616   C     0.18510   0.14798   0.62913   0.00000  Uiso   1.00
C617   C     0.14764   0.18403   0.87142   0.00000  Uiso   1.00
C618   C     0.19299   0.08089   0.52019   0.00000  Uiso   1.00
C619   C     0.19317   0.13675   0.58018   0.00000  Uiso   1.00
C620   C     0.12144   0.22697   0.94447   0.00000  Uiso   1.00
C621   C     0.11370   0.33092   0.79908   0.00000  Uiso   1.00
C622   C     0.17466   0.05197   0.92966   0.00000  Uiso   1.00
C623   C     0.19982   0.03800   0.50547   0.00000  Uiso   1.00
C624   C     0.19512   0.20821   0.56406   0.00000  Uiso   1.00
C625   C     0.12432   0.09890   0.89953   0.00000  Uiso   1.00
C626   C     0.13168   0.20826   0.51421   0.00000  Uiso   1.00
C627   C     0.02208   0.19838   0.70017   0.00000  Uiso   1.00
C628   C     0.15104   0.17311   0.99162   0.00000  Uiso   1.00
C629   C     0.14644   0.16042   0.94751   0.00000  Uiso   1.00
C630   C     0.17091   0.14834   0.51340   0.00000  Uiso   1.00
C631   C     0.17740   0.10667   0.99500   0.00000  Uiso   1.00
C632   C     0.16639   0.09229   0.95329   0.00000  Uiso   1.00
C633   C     0.14833   0.11813   0.93190   0.00000  Uiso   1.00
H634   H     0.20586   0.00326   0.71276   0.00000  Uiso   1.00
H635   H     0.12007   0.28870   0.53040   0.00000  Uiso   1.00
H636   H     0.12589   0.21465   0.55043   0.00000  Uiso   1.00
H637   H     0.21783   0.08252   0.61934   0.00000  Uiso   1.00
H638   H     0.24249   0.05988   0.57040   0.00000  Uiso   1.00
H639   H     0.31994   0.14884   0.83151   0.00000  Uiso   1.00
H640   H     0.32139   0.10446   0.79705   0.00000  Uiso   1.00
H641   H     0.07699   0.25915   0.93397   0.00000  Uiso   1.00
H642   H     0.12666   0.28513   0.92567   0.00000  Uiso   1.00
H643   H     0.07158   0.26041   0.54048   0.00000  Uiso   1.00
N644   N     0.21267   0.06793   0.58885   0.00000  Uiso   1.00
N645   N     0.04520   0.21639   0.67157   0.00000  Uiso   1.00
N646   N     0.31362   0.13486   0.80119   0.00000  Uiso   1.00
N647   N     0.08409   0.31907   0.82643   0.00000  Uiso   1.00
N648   N     0.18134   0.02017   0.90998   0.00000  Uiso   1.00
N649   N     0.20544   0.00370   0.99440   0.00000  Uiso   1.00
N650   N     0.20350   0.24335   0.57295   0.00000  Uiso   1.00
N651   N     0.10935   0.25631   0.92039   0.00000  Uiso   1.00
N652   N     0.09788   0.27053   0.51495   0.00000  Uiso   1.00
N653   N     0.10502   0.08356   0.87401   0.00000  Uiso   1.00
O654   O     0.16667   0.16667   0.75000   0.00000  Uiso   1.00
O655   O     0.15451   0.12637   0.65459   0.00000  Uiso   1.00
O656   O     0.12940   0.20391   0.84968   0.00000  Uiso   1.00
O657   O     0.20824   0.17759   0.64606   0.00000  Uiso   1.00
O658   O     0.17451   0.15880   0.84968   0.00000  Uiso   1.00
O659   O     0.17930   0.08019   0.78213   0.00000  Uiso   1.00
O660   O     0.14632   0.26085   0.77014   0.00000  Uiso   1.00
O661   O     0.07412   0.13291   0.73413   0.00000  Uiso   1.00
O662   O     0.26693   0.19272   0.71361   0.00000  Uiso   1.00
O663   O     0.07071   0.18878   0.78213   0.00000  Uiso   1.00
O664   O     0.25491   0.15226   0.77014   0.00000  Uiso   1.00
O665   O     0.13760   0.06944   0.73413   0.00000  Uiso   1.00
O666   O     0.20345   0.25620   0.71361   0.00000  Uiso   1.00
Zn667  Zn    0.19338   0.13994   0.78734   0.00000  Uiso   1.00
Zn668  Zn    0.13379   0.12458   0.71876   0.00000  Uiso   1.00
Zn669  Zn    0.21056   0.19775   0.70657   0.00000  Uiso   1.00
Zn670  Zn    0.12893   0.20439   0.78734   0.00000  Uiso   1.00
C671   C     0.38631   0.15955   0.76021   0.00000  Uiso   1.00
C672   C     0.51816   0.16408   0.55295   0.00000  Uiso   1.00
C673   C     0.53280   0.09558   0.56310   0.00000  Uiso   1.00
C674   C     0.61404   0.17365   0.74013   0.00000  Uiso   1.00
C675   C     0.47076   0.19002   0.92174   0.00000  Uiso   1.00
C676   C     0.65975   0.17572   0.73608   0.00000  Uiso   1.00
C677   C     0.34123   0.15694   0.76481   0.00000  Uiso   1.00
C678   C     0.51261   0.32234   0.73778   0.00000  Uiso   1.00
C679   C     0.48409   0.01260   0.76489   0.00000  Uiso   1.00
C680   C     0.48989   0.05603   0.75976   0.00000  Uiso   1.00
C681   C     0.50962   0.27783   0.74044   0.00000  Uiso   1.00
C682   C     0.45010   0.23476   0.99115   0.00000  Uiso   1.00
C683   C     0.51843   0.14798   0.62913   0.00000  Uiso   1.00
C684   C     0.48098   0.18403   0.87142   0.00000  Uiso   1.00
C685   C     0.52632   0.08089   0.52019   0.00000  Uiso   1.00
C686   C     0.52650   0.13675   0.58018   0.00000  Uiso   1.00
C687   C     0.45477   0.22697   0.94447   0.00000  Uiso   1.00
C688   C     0.44703   0.33092   0.79908   0.00000  Uiso   1.00
C689   C     0.50800   0.05197   0.92966   0.00000  Uiso   1.00
C690   C     0.53315   0.03800   0.50547   0.00000  Uiso   1.00
C691   C     0.52845   0.20821   0.56406   0.00000  Uiso   1.00
C692   C     0.45766   0.09890   0.89953   0.00000  Uiso   1.00
C693   C     0.46502   0.20826   0.51421   0.00000  Uiso   1.00
C694   C     0.35542   0.19838   0.70017   0.00000  Uiso   1.00
C695   C     0.48438   0.17311   0.99162   0.00000  Uiso   1.00
C696   C     0.47977   0.16042   0.94751   0.00000  Uiso   1.00
C697   C     0.50424   0.14834   0.51340   0.00000  Uiso   1.00
C698   C     0.51073   0.10667   0.99500   0.00000  Uiso   1.00
C699   C     0.49972   0.09229   0.95329   0.00000  Uiso   1.00
C700   C     0.48166   0.11813   0.93190   0.00000  Uiso   1.00
H701   H     0.53919   0.00326   0.71276   0.00000  Uiso   1.00
H702   H     0.45340   0.28870   0.53040   0.00000  Uiso   1.00
H703   H     0.45922   0.21465   0.55043   0.00000  Uiso   1.00
H704   H     0.55117   0.08252   0.61934   0.00000  Uiso   1.00
H705   H     0.57583   0.05988   0.57040   0.00000  Uiso   1.00
H706   H     0.65328   0.14884   0.83151   0.00000  Uiso   1.00
H707   H     0.65472   0.10446   0.79705   0.00000  Uiso   1.00
H708   H     0.41032   0.25915   0.93397   0.00000  Uiso   1.00
H709   H     0.45999   0.28513   0.92567   0.00000  Uiso   1.00
H710   H     0.40491   0.26041   0.54048   0.00000  Uiso   1.00
N711   N     0.54600   0.06793   0.58885   0.00000  Uiso   1.00
N712   N     0.37853   0.21639   0.67157   0.00000  Uiso   1.00
N713   N     0.64696   0.13486   0.80119   0.00000  Uiso   1.00
N714   N     0.41742   0.31907   0.82643   0.00000  Uiso   1.00
N715   N     0.51468   0.02017   0.90998   0.00000  Uiso   1.00
N716   N     0.53877   0.00370   0.99440   0.00000  Uiso   1.00
N717   N     0.53683   0.24335   0.57295   0.00000  Uiso   1.00
N718   N     0.44268   0.25631   0.92039   0.00000  Uiso   1.00
N719   N     0.43121   0.27053   0.51495   0.00000  Uiso   1.00
N720   N     0.43836   0.08356   0.87401   0.00000  Uiso   1.00
O721   O     0.50000   0.16667   0.75000   0.00000  Uiso   1.00
O722   O     0.48784   0.12637   0.65459   0.00000  Uiso   1.00
O723   O     0.46274   0.20391   0.84968   0.00000  Uiso   1.00
O724   O     0.54157   0.17759   0.64606   0.00000  Uiso   1.00
O725   O     0.50785   0.15880   0.84968   0.00000  Uiso   1.00
O726   O     0.51264   0.08019   0.78213   0.00000  Uiso   1.00
O727   O     0.47965   0.26085   0.77014   0.00000  Uiso   1.00
O728   O     0.40745   0.13291   0.73413   0.00000  Uiso   1.00
O729   O     0.60026   0.19272   0.71361   0.00000  Uiso   1.00
O730   O     0.40405   0.18878   0.78213   0.00000  Uiso   1.00
O731   O     0.58824   0.15226   0.77014   0.00000  Uiso   1.00
O732   O     0.47093   0.06944   0.73413   0.00000  Uiso   1.00
O733   O     0.53678   0.25620   0.71361   0.00000  Uiso   1.00
Zn734  Zn    0.52672   0.13994   0.78734   0.00000  Uiso   1.00
Zn735  Zn    0.46713   0.12458   0.71876   0.00000  Uiso   1.00
Zn736  Zn    0.54389   0.19775   0.70657   0.00000  Uiso   1.00
Zn737  Zn    0.46226   0.20439   0.78734   0.00000  Uiso   1.00
C738   C     0.71964   0.15955   0.76021   0.00000  Uiso   1.00
C739   C     0.85149   0.16408   0.55295   0.00000  Uiso   1.00
C740   C     0.86614   0.09558   0.56310   0.00000  Uiso   1.00
C741   C     0.94737   0.17365   0.74013   0.00000  Uiso   1.00
C742   C     0.80409   0.19002   0.92174   0.00000  Uiso   1.00
C743   C     0.99308   0.17572   0.73608   0.00000  Uiso   1.00
C744   C     0.67456   0.15694   0.76481   0.00000  Uiso   1.00
C745   C     0.84595   0.32234   0.73778   0.00000  Uiso   1.00
C746   C     0.81742   0.01260   0.76489   0.00000  Uiso   1.00
C747   C     0.82323   0.05603   0.75976   0.00000  Uiso   1.00
C748   C     0.84296   0.27783   0.74044   0.00000  Uiso   1.00
C749   C     0.78343   0.23476   0.99115   0.00000  Uiso   1.00
C750   C     0.85176   0.14798   0.62913   0.00000  Uiso   1.00
C751   C     0.81431   0.18403   0.87142   0.00000  Uiso   1.00
C752   C     0.85966   0.08089   0.52019   0.00000  Uiso   1.00
C753   C     0.85984   0.13675   0.58018   0.00000  Uiso   1.00
C754   C     0.78811   0.22697   0.94447   0.00000  Uiso   1.00
C755   C     0.78037   0.33092   0.79908   0.00000  Uiso   1.00
C756   C     0.84133   0.05197   0.92966   0.00000  Uiso   1.00
C757   C     0.86648   0.03800   0.50547   0.00000  Uiso   1.00
C758   C     0.86179   0.20821   0.56406   0.00000  Uiso   1.00
C759   C     0.79099   0.09890   0.89953   0.00000  Uiso   1.00
C760   C     0.79835   0.20826   0.51421   0.00000  Uiso   1.00
C761   C     0.68875   0.19838   0.70017   0.00000  Uiso   1.00
C762   C     0.81771   0.17311   0.99162   0.00000  Uiso   1.00
C763   C     0.81310   0.16042   0.94751   0.00000  Uiso   1.00
C764   C     0.83758   0.14834   0.51340   0.00000  Uiso   1.00
C765   C     0.84406   0.10667   0.99500   0.00000  Uiso   1.00
C766   C     0.83305   0.09229   0.95329   0.00000  Uiso   1.00
C767   C     0.81500   0.11813   0.93190   0.00000  Uiso   1.00
H768   H     0.87252   0.00326   0.71276   0.00000  Uiso   1.00
H769   H     0.78674   0.28870   0.53040   0.00000  Uiso   1.00
H770   H     0.79255   0.21465   0.55043   0.00000  Uiso   1.00
H771   H     0.88450   0.08252   0.61934   0.00000  Uiso   1.00
H772   H     0.90916   0.05988   0.57040   0.00000  Uiso   1.00
H773   H     0.98661   0.14884   0.83151   0.00000  Uiso   1.00
H774   H     0.98805   0.10446   0.79705   0.00000  Uiso   1.00
H775   H     0.74366   0.25915   0.93397   0.00000  Uiso   1.00
H776   H     0.79332   0.28513   0.92567   0.00000  Uiso   1.00
H777   H     0.73824   0.26041   0.54048   0.00000  Uiso   1.00
N778   N     0.87933   0.06793   0.58885   0.00000  Uiso   1.00
N779   N     0.71186   0.21639   0.67157   0.00000  Uiso   1.00
N780   N     0.98029   0.13486   0.80119   0.00000  Uiso   1.00
N781   N     0.75076   0.31907   0.82643   0.00000  Uiso   1.00
N782   N     0.84801   0.02017   0.90998   0.00000  Uiso   1.00
N783   N     0.87210   0.00370   0.99440   0.00000  Uiso   1.00
N784   N     0.87017   0.24335   0.57295   0.00000  Uiso   1.00
N785   N     0.77602   0.25631   0.92039   0.00000  Uiso   1.00
N786   N     0.76455   0.27053   0.51495   0.00000  Uiso   1.00
N787   N     0.77169   0.08356   0.87401   0.00000  Uiso   1.00
O788   O     0.83333   0.16667   0.75000   0.00000  Uiso   1.00
O789   O     0.82118   0.12637   0.65459   0.00000  Uiso   1.00
O790   O     0.79607   0.20391   0.84968   0.00000  Uiso   1.00
O791   O     0.87491   0.17759   0.64606   0.00000  Uiso   1.00
O792   O     0.84118   0.15880   0.84968   0.00000  Uiso   1.00
O793   O     0.84597   0.08019   0.78213   0.00000  Uiso   1.00
O794   O     0.81298   0.26085   0.77014   0.00000  Uiso   1.00
O795   O     0.74078   0.13291   0.73413   0.00000  Uiso   1.00
O796   O     0.93360   0.19272   0.71361   0.00000  Uiso   1.00
O797   O     0.73738   0.18878   0.78213   0.00000  Uiso   1.00
O798   O     0.92158   0.15226   0.77014   0.00000  Uiso   1.00
O799   O     0.80426   0.06944   0.73413   0.00000  Uiso   1.00
O800   O     0.87012   0.25620   0.71361   0.00000  Uiso   1.00
Zn801  Zn    0.86005   0.13994   0.78734   0.00000  Uiso   1.00
Zn802  Zn    0.80046   0.12458   0.71876   0.00000  Uiso   1.00
Zn803  Zn    0.87723   0.19775   0.70657   0.00000  Uiso   1.00
Zn804  Zn    0.79560   0.20439   0.78734   0.00000  Uiso   1.00
C805   C     0.05298   0.49288   0.76021   0.00000  Uiso   1.00
C806   C     0.18483   0.49742   0.55295   0.00000  Uiso   1.00
C807   C     0.19947   0.42892   0.56310   0.00000  Uiso   1.00
C808   C     0.28070   0.50699   0.74013   0.00000  Uiso   1.00
C809   C     0.13743   0.52336   0.92174   0.00000  Uiso   1.00
C810   C     0.32642   0.50906   0.73608   0.00000  Uiso   1.00
C811   C     0.00789   0.49027   0.76481   0.00000  Uiso   1.00
C812   C     0.17928   0.65567   0.73778   0.00000  Uiso   1.00
C813   C     0.15075   0.34593   0.76489   0.00000  Uiso   1.00
C814   C     0.15656   0.38937   0.75976   0.00000  Uiso   1.00
C815   C     0.17629   0.61117   0.74044   0.00000  Uiso   1.00
C816   C     0.11676   0.56809   0.99115   0.00000  Uiso   1.00
C817   C     0.18510   0.48132   0.62913   0.00000  Uiso   1.00
C818   C     0.14764   0.51737   0.87142   0.00000  Uiso   1.00
C819   C     0.19299   0.41423   0.52019   0.00000  Uiso   1.00
C820   C     0.19317   0.47009   0.58018   0.00000  Uiso   1.00
C821   C     0.12144   0.56030   0.94447   0.00000  Uiso   1.00
C822   C     0.11370   0.66426   0.79908   0.00000  Uiso   1.00
C823   C     0.17466   0.38531   0.92966   0.00000  Uiso   1.00
C824   C     0.19982   0.37133   0.50547   0.00000  Uiso   1.00
C825   C     0.19512   0.54155   0.56406   0.00000  Uiso   1.00
C826   C     0.12432   0.43223   0.89953   0.00000  Uiso   1.00
C827   C     0.13168   0.54159   0.51421   0.00000  Uiso   1.00
C828   C     0.02208   0.53171   0.70017   0.00000  Uiso   1.00
C829   C     0.15104   0.50644   0.99162   0.00000  Uiso   1.00
C830   C     0.14644   0.49375   0.94751   0.00000  Uiso   1.00
C831   C     0.17091   0.48167   0.51340   0.00000  Uiso   1.00
C832   C     0.17740   0.44000   0.99500   0.00000  Uiso   1.00
C833   C     0.16639   0.42563   0.95329   0.00000  Uiso   1.00
C834   C     0.14833   0.45146   0.93190   0.00000  Uiso   1.00
H835   H     0.20586   0.33659   0.71276   0.00000  Uiso   1.00
H836   H     0.12007   0.62203   0.53040   0.00000  Uiso   1.00
H837   H     0.12589   0.54798   0.55043   0.00000  Uiso   1.00
H838   H     0.21783   0.41586   0.61934   0.00000  Uiso   1.00
H839   H     0.24249   0.39321   0.57040   0.00000  Uiso   1.00
H840   H     0.31994   0.48217   0.83151   0.00000  Uiso   1.00
H841   H     0.32139   0.43779   0.79705   0.00000  Uiso   1.00
H842   H     0.07699   0.59249   0.93397   0.00000  Uiso   1.00
H843   H     0.12666   0.61847   0.92567   0.00000  Uiso   1.00
H844   H     0.07158   0.59375   0.54048   0.00000  Uiso   1.00
N845   N     0.21267   0.40126   0.58885   0.00000  Uiso   1.00
N846   N     0.04520   0.54973   0.67157   0.00000  Uiso   1.00
N847   N     0.31362   0.46819   0.80119   0.00000  Uiso   1.00
N848   N     0.08409   0.65240   0.82643   0.00000  Uiso   1.00
N849   N     0.18134   0.35350   0.90998   0.00000  Uiso   1.00
N850   N     0.20544   0.33703   0.99440   0.00000  Uiso   1.00
N851   N     0.20350   0.57668   0.57295   0.00000  Uiso   1.00
N852   N     0.10935   0.58965   0.92039   0.00000  Uiso   1.00
N853   N     0.09788   0.60387   0.51495   0.00000  Uiso   1.00
N854   N     0.10502   0.41690   0.87401   0.00000  Uiso   1.00
O855   O     0.16667   0.50000   0.75000   0.00000  Uiso   1.00
O856   O     0.15451   0.45970   0.65459   0.00000  Uiso   1.00
O857   O     0.12940   0.53724   0.84968   0.00000  Uiso   1.00
O858   O     0.20824   0.51092   0.64606   0.00000  Uiso   1.00
O859   O     0.17451   0.49213   0.84968   0.00000  Uiso   1.00
O860   O     0.17930   0.41352   0.78213   0.00000  Uiso   1.00
O861   O     0.14632   0.59418   0.77014   0.00000  Uiso   1.00
O862   O     0.07412   0.46625   0.73413   0.00000  Uiso   1.00
O863   O     0.26693   0.52605   0.71361   0.00000  Uiso   1.00
O864   O     0.07071   0.52211   0.78213   0.00000  Uiso   1.00
O865   O     0.25491   0.48559   0.77014   0.00000  Uiso   1.00
O866   O     0.13760   0.40277   0.73413   0.00000  Uiso   1.00
O867   O     0.20345   0.58953   0.71361   0.00000  Uiso   1.00
Zn868  Zn    0.19338   0.47327   0.78734   0.00000  Uiso   1.00
Zn869  Zn    0.13379   0.45791   0.71876   0.00000  Uiso   1.00
Zn870  Zn    0.21056   0.53109   0.70657   0.00000  Uiso   1.00
Zn871  Zn    0.12893   0.53773   0.78734   0.00000  Uiso   1.00
C872   C     0.38631   0.49288   0.76021   0.00000  Uiso   1.00
C873   C     0.51816   0.49742   0.55295   0.00000  Uiso   1.00
C874   C     0.53280   0.42892   0.56310   0.00000  Uiso   1.00
C875   C     0.61404   0.50699   0.74013   0.00000  Uiso   1.00
C876   C     0.47076   0.52336   0.92174   0.00000  Uiso   1.00
C877   C     0.65975   0.50906   0.73608   0.00000  Uiso   1.00
C878   C     0.34123   0.49027   0.76481   0.00000  Uiso   1.00
C879   C     0.51261   0.65567   0.73778   0.00000  Uiso   1.00
C880   C     0.48409   0.34593   0.76489   0.00000  Uiso   1.00
C881   C     0.48989   0.38937   0.75976   0.00000  Uiso   1.00
C882   C     0.50962   0.61117   0.74044   0.00000  Uiso   1.00
C883   C     0.45010   0.56809   0.99115   0.00000  Uiso   1.00
C884   C     0.51843   0.48132   0.62913   0.00000  Uiso   1.00
C885   C     0.48098   0.51737   0.87142   0.00000  Uiso   1.00
C886   C     0.52632   0.41423   0.52019   0.00000  Uiso   1.00
C887   C     0.52650   0.47009   0.58018   0.00000  Uiso   1.00
C888   C     0.45477   0.56030   0.94447   0.00000  Uiso   1.00
C889   C     0.44703   0.66426   0.79908   0.00000  Uiso   1.00
C890   C     0.50800   0.38531   0.92966   0.00000  Uiso   1.00
C891   C     0.53315   0.37133   0.50547   0.00000  Uiso   1.00
C892   C     0.52845   0.54155   0.56406   0.00000  Uiso   1.00
C893   C     0.45766   0.43223   0.89953   0.00000  Uiso   1.00
C894   C     0.46502   0.54159   0.51421   0.00000  Uiso   1.00
C895   C     0.35542   0.53171   0.70017   0.00000  Uiso   1.00
C896   C     0.48438   0.50644   0.99162   0.00000  Uiso   1.00
C897   C     0.47977   0.49375   0.94751   0.00000  Uiso   1.00
C898   C     0.50424   0.48167   0.51340   0.00000  Uiso   1.00
C899   C     0.51073   0.44000   0.99500   0.00000  Uiso   1.00
C900   C     0.49972   0.42563   0.95329   0.00000  Uiso   1.00
C901   C     0.48166   0.45146   0.93190   0.00000  Uiso   1.00
H902   H     0.53919   0.33659   0.71276   0.00000  Uiso   1.00
H903   H     0.45340   0.62203   0.53040   0.00000  Uiso   1.00
H904   H     0.45922   0.54798   0.55043   0.00000  Uiso   1.00
H905   H     0.55117   0.41586   0.61934   0.00000  Uiso   1.00
H906   H     0.57583   0.39321   0.57040   0.00000  Uiso   1.00
H907   H     0.65328   0.48217   0.83151   0.00000  Uiso   1.00
H908   H     0.65472   0.43779   0.79705   0.00000  Uiso   1.00
H909   H     0.41032   0.59249   0.93397   0.00000  Uiso   1.00
H910   H     0.45999   0.61847   0.92567   0.00000  Uiso   1.00
H911   H     0.40491   0.59375   0.54048   0.00000  Uiso   1.00
N912   N     0.54600   0.40126   0.58885   0.00000  Uiso   1.00
N913   N     0.37853   0.54973   0.67157   0.00000  Uiso   1.00
N914   N     0.64696   0.46819   0.80119   0.00000  Uiso   1.00
N915   N     0.41742   0.65240   0.82643   0.00000  Uiso   1.00
N916   N     0.51468   0.35350   0.90998   0.00000  Uiso   1.00
N917   N     0.53877   0.33703   0.99440   0.00000  Uiso   1.00
N918   N     0.53683   0.57668   0.57295   0.00000  Uiso   1.00
N919   N     0.44268   0.58965   0.92039   0.00000  Uiso   1.00
N920   N     0.43121   0.60387   0.51495   0.00000  Uiso   1.00
N921   N     0.43836   0.41690   0.87401   0.00000  Uiso   1.00
O922   O     0.50000   0.50000   0.75000   0.00000  Uiso   1.00
O923   O     0.48784   0.45970   0.65459   0.00000  Uiso   1.00
O924   O     0.46274   0.53724   0.84968   0.00000  Uiso   1.00
O925   O     0.54157   0.51092   0.64606   0.00000  Uiso   1.00
O926   O     0.50785   0.49213   0.84968   0.00000  Uiso   1.00
O927   O     0.51264   0.41352   0.78213   0.00000  Uiso   1.00
O928   O     0.47965   0.59418   0.77014   0.00000  Uiso   1.00
O929   O     0.40745   0.46625   0.73413   0.00000  Uiso   1.00
O930   O     0.60026   0.52605   0.71361   0.00000  Uiso   1.00
O931   O     0.40405   0.52211   0.78213   0.00000  Uiso   1.00
O932   O     0.58824   0.48559   0.77014   0.00000  Uiso   1.00
O933   O     0.47093   0.40277   0.73413   0.00000  Uiso   1.00
O934   O     0.53678   0.58953   0.71361   0.00000  Uiso   1.00
Zn935  Zn    0.52672   0.47327   0.78734   0.00000  Uiso   1.00
Zn936  Zn    0.46713   0.45791   0.71876   0.00000  Uiso   1.00
Zn937  Zn    0.54389   0.53109   0.70657   0.00000  Uiso   1.00
Zn938  Zn    0.46226   0.53773   0.78734   0.00000  Uiso   1.00
C939   C     0.71964   0.49288   0.76021   0.00000  Uiso   1.00
C940   C     0.85149   0.49742   0.55295   0.00000  Uiso   1.00
C941   C     0.86614   0.42892   0.56310   0.00000  Uiso   1.00
C942   C     0.94737   0.50699   0.74013   0.00000  Uiso   1.00
C943   C     0.80409   0.52336   0.92174   0.00000  Uiso   1.00
C944   C     0.99308   0.50906   0.73608   0.00000  Uiso   1.00
C945   C     0.67456   0.49027   0.76481   0.00000  Uiso   1.00
C946   C     0.84595   0.65567   0.73778   0.00000  Uiso   1.00
C947   C     0.81742   0.34593   0.76489   0.00000  Uiso   1.00
C948   C     0.82323   0.38937   0.75976   0.00000  Uiso   1.00
C949   C     0.84296   0.61117   0.74044   0.00000  Uiso   1.00
C950   C     0.78343   0.56809   0.99115   0.00000  Uiso   1.00
C951   C     0.85176   0.48132   0.62913   0.00000  Uiso   1.00
C952   C     0.81431   0.51737   0.87142   0.00000  Uiso   1.00
C953   C     0.85966   0.41423   0.52019   0.00000  Uiso   1.00
C954   C     0.85984   0.47009   0.58018   0.00000  Uiso   1.00
C955   C     0.78811   0.56030   0.94447   0.00000  Uiso   1.00
C956   C     0.78037   0.66426   0.79908   0.00000  Uiso   1.00
C957   C     0.84133   0.38531   0.92966   0.00000  Uiso   1.00
C958   C     0.86648   0.37133   0.50547   0.00000  Uiso   1.00
C959   C     0.86179   0.54155   0.56406   0.00000  Uiso   1.00
C960   C     0.79099   0.43223   0.89953   0.00000  Uiso   1.00
C961   C     0.79835   0.54159   0.51421   0.00000  Uiso   1.00
C962   C     0.68875   0.53171   0.70017   0.00000  Uiso   1.00
C963   C     0.81771   0.50644   0.99162   0.00000  Uiso   1.00
C964   C     0.81310   0.49375   0.94751   0.00000  Uiso   1.00
C965   C     0.83758   0.48167   0.51340   0.00000  Uiso   1.00
C966   C     0.84406   0.44000   0.99500   0.00000  Uiso   1.00
C967   C     0.83305   0.42563   0.95329   0.00000  Uiso   1.00
C968   C     0.81500   0.45146   0.93190   0.00000  Uiso   1.00
H969   H     0.87252   0.33659   0.71276   0.00000  Uiso   1.00
H970   H     0.78674   0.62203   0.53040   0.00000  Uiso   1.00
H971   H     0.79255   0.54798   0.55043   0.00000  Uiso   1.00
H972   H     0.88450   0.41586   0.61934   0.00000  Uiso   1.00
H973   H     0.90916   0.39321   0.57040   0.00000  Uiso   1.00
H974   H     0.98661   0.48217   0.83151   0.00000  Uiso   1.00
H975   H     0.98805   0.43779   0.79705   0.00000  Uiso   1.00
H976   H     0.74366   0.59249   0.93397   0.00000  Uiso   1.00
H977   H     0.79332   0.61847   0.92567   0.00000  Uiso   1.00
H978   H     0.73824   0.59375   0.54048   0.00000  Uiso   1.00
N979   N     0.87933   0.40126   0.58885   0.00000  Uiso   1.00
N980   N     0.71186   0.54973   0.67157   0.00000  Uiso   1.00
N981   N     0.98029   0.46819   0.80119   0.00000  Uiso   1.00
N982   N     0.75076   0.65240   0.82643   0.00000  Uiso   1.00
N983   N     0.84801   0.35350   0.90998   0.00000  Uiso   1.00
N984   N     0.87210   0.33703   0.99440   0.00000  Uiso   1.00
N985   N     0.87017   0.57668   0.57295   0.00000  Uiso   1.00
N986   N     0.77602   0.58965   0.92039   0.00000  Uiso   1.00
N987   N     0.76455   0.60387   0.51495   0.00000  Uiso   1.00
N988   N     0.77169   0.41690   0.87401   0.00000  Uiso   1.00
O989   O     0.83333   0.50000   0.75000   0.00000  Uiso   1.00
O990   O     0.82118   0.45970   0.65459   0.00000  Uiso   1.00
O991   O     0.79607   0.53724   0.84968   0.00000  Uiso   1.00
O992   O     0.87491   0.51092   0.64606   0.00000  Uiso   1.00
O993   O     0.84118   0.49213   0.84968   0.00000  Uiso   1.00
O994   O     0.84597   0.41352   0.78213   0.00000  Uiso   1.00
O995   O     0.81298   0.59418   0.77014   0.00000  Uiso   1.00
O996   O     0.74078   0.46625   0.73413   0.00000  Uiso   1.00
O997   O     0.93360   0.52605   0.71361   0.00000  Uiso   1.00
O998   O     0.73738   0.52211   0.78213   0.00000  Uiso   1.00
O999   O     0.92158   0.48559   0.77014   0.00000  Uiso   1.00
O1000  O     0.80426   0.40277   0.73413   0.00000  Uiso   1.00
O1001  O     0.87012   0.58953   0.71361   0.00000  Uiso   1.00
Zn1002 Zn    0.86005   0.47327   0.78734   0.00000  Uiso   1.00
Zn1003 Zn    0.80046   0.45791   0.71876   0.00000  Uiso   1.00
Zn1004 Zn    0.87723   0.53109   0.70657   0.00000  Uiso   1.00
Zn1005 Zn    0.79560   0.53773   0.78734   0.00000  Uiso   1.00
C1006  C     0.05298   0.82622   0.76021   0.00000  Uiso   1.00
C1007  C     0.18483   0.83075   0.55295   0.00000  Uiso   1.00
C1008  C     0.19947   0.76225   0.56310   0.00000  Uiso   1.00
C1009  C     0.28070   0.84032   0.74013   0.00000  Uiso   1.00
C1010  C     0.13743   0.85669   0.92174   0.00000  Uiso   1.00
C1011  C     0.32642   0.84239   0.73608   0.00000  Uiso   1.00
C1012  C     0.00789   0.82361   0.76481   0.00000  Uiso   1.00
C1013  C     0.17928   0.98900   0.73778   0.00000  Uiso   1.00
C1014  C     0.15075   0.67927   0.76489   0.00000  Uiso   1.00
C1015  C     0.15656   0.72270   0.75976   0.00000  Uiso   1.00
C1016  C     0.17629   0.94450   0.74044   0.00000  Uiso   1.00
C1017  C     0.11676   0.90142   0.99115   0.00000  Uiso   1.00
C1018  C     0.18510   0.81465   0.62913   0.00000  Uiso   1.00
C1019  C     0.14764   0.85070   0.87142   0.00000  Uiso   1.00
C1020  C     0.19299   0.74756   0.52019   0.00000  Uiso   1.00
C1021  C     0.19317   0.80342   0.58018   0.00000  Uiso   1.00
C1022  C     0.12144   0.89364   0.94447   0.00000  Uiso   1.00
C1023  C     0.11370   0.99759   0.79908   0.00000  Uiso   1.00
C1024  C     0.17466   0.71864   0.92966   0.00000  Uiso   1.00
C1025  C     0.19982   0.70466   0.50547   0.00000  Uiso   1.00
C1026  C     0.19512   0.87488   0.56406   0.00000  Uiso   1.00
C1027  C     0.12432   0.76556   0.89953   0.00000  Uiso   1.00
C1028  C     0.13168   0.87493   0.51421   0.00000  Uiso   1.00
C1029  C     0.02208   0.86504   0.70017   0.00000  Uiso   1.00
C1030  C     0.15104   0.83977   0.99162   0.00000  Uiso   1.00
C1031  C     0.14644   0.82709   0.94751   0.00000  Uiso   1.00
C1032  C     0.17091   0.81501   0.51340   0.00000  Uiso   1.00
C1033  C     0.17740   0.77334   0.99500   0.00000  Uiso   1.00
C1034  C     0.16639   0.75896   0.95329   0.00000  Uiso   1.00
C1035  C     0.14833   0.78479   0.93190   0.00000  Uiso   1.00
H1036  H     0.20586   0.66993   0.71276   0.00000  Uiso   1.00
H1037  H     0.12007   0.95537   0.53040   0.00000  Uiso   1.00
H1038  H     0.12589   0.88131   0.55043   0.00000  Uiso   1.00
H1039  H     0.21783   0.74919   0.61934   0.00000  Uiso   1.00
H1040  H     0.24249   0.72655   0.57040   0.00000  Uiso   1.00
H1041  H     0.31994   0.81551   0.83151   0.00000  Uiso   1.00
H1042  H     0.32139   0.77113   0.79705   0.00000  Uiso   1.00
H1043  H     0.07699   0.92582   0.93397   0.00000  Uiso   1.00
H1044  H     0.12666   0.95180   0.92567   0.00000  Uiso   1.00
H1045  H     0.07158   0.92708   0.54048   0.00000  Uiso   1.00
N1046  N     0.21267   0.73460   0.58885   0.00000  Uiso   1.00
N1047  N     0.04520   0.88306   0.67157   0.00000  Uiso   1.00
N1048  N     0.31362   0.80153   0.80119   0.00000  Uiso   1.00
N1049  N     0.08409   0.98573   0.82643   0.00000  Uiso   1.00
N1050  N     0.18134   0.68684   0.90998   0.00000  Uiso   1.00
N1051  N     0.20544   0.67036   0.99440   0.00000  Uiso   1.00
N1052  N     0.20350   0.91002   0.57295   0.00000  Uiso   1.00
N1053  N     0.10935   0.92298   0.92039   0.00000  Uiso   1.00
N1054  N     0.09788   0.93720   0.51495   0.00000  Uiso   1.00
N1055  N     0.10502   0.75023   0.87401   0.00000  Uiso   1.00
O1056  O     0.16667   0.83333   0.75000   0.00000  Uiso   1.00
O1057  O     0.15451   0.79304   0.65459   0.00000  Uiso   1.00
O1058  O     0.12940   0.87058   0.84968   0.00000  Uiso   1.00
O1059  O     0.20824   0.84425   0.64606   0.00000  Uiso   1.00
O1060  O     0.17451   0.82546   0.84968   0.00000  Uiso   1.00
O1061  O     0.17930   0.74686   0.78213   0.00000  Uiso   1.00
O1062  O     0.14632   0.92751   0.77014   0.00000  Uiso   1.00
O1063  O     0.07412   0.79958   0.73413   0.00000  Uiso   1.00
O1064  O     0.26693   0.85939   0.71361   0.00000  Uiso   1.00
O1065  O     0.07071   0.85544   0.78213   0.00000  Uiso   1.00
O1066  O     0.25491   0.81892   0.77014   0.00000  Uiso   1.00
O1067  O     0.13760   0.73610   0.73413   0.00000  Uiso   1.00
O1068  O     0.20345   0.92286   0.71361   0.00000  Uiso   1.00
Zn1069 Zn    0.19338   0.80661   0.78734   0.00000  Uiso   1.00
Zn1070 Zn    0.13379   0.79124   0.71876   0.00000  Uiso   1.00
Zn1071 Zn    0.21056   0.86442   0.70657   0.00000  Uiso   1.00
Zn1072 Zn    0.12893   0.87106   0.78734   0.00000  Uiso   1.00
C1073  C     0.38631   0.82622   0.76021   0.00000  Uiso   1.00
C1074  C     0.51816   0.83075   0.55295   0.00000  Uiso   1.00
C1075  C     0.53280   0.76225   0.56310   0.00000  Uiso   1.00
C1076  C     0.61404   0.84032   0.74013   0.00000  Uiso   1.00
C1077  C     0.47076   0.85669   0.92174   0.00000  Uiso   1.00
C1078  C     0.65975   0.84239   0.73608   0.00000  Uiso   1.00
C1079  C     0.34123   0.82361   0.76481   0.00000  Uiso   1.00
C1080  C     0.51261   0.98900   0.73778   0.00000  Uiso   1.00
C1081  C     0.48409   0.67927   0.76489   0.00000  Uiso   1.00
C1082  C     0.48989   0.72270   0.75976   0.00000  Uiso   1.00
C1083  C     0.50962   0.94450   0.74044   0.00000  Uiso   1.00
C1084  C     0.45010   0.90142   0.99115   0.00000  Uiso   1.00
C1085  C     0.51843   0.81465   0.62913   0.00000  Uiso   1.00
C1086  C     0.48098   0.85070   0.87142   0.00000  Uiso   1.00
C1087  C     0.52632   0.74756   0.52019   0.00000  Uiso   1.00
C1088  C     0.52650   0.80342   0.58018   0.00000  Uiso   1.00
C1089  C     0.45477   0.89364   0.94447   0.00000  Uiso   1.00
C1090  C     0.44703   0.99759   0.79908   0.00000  Uiso   1.00
C1091  C     0.50800   0.71864   0.92966   0.00000  Uiso   1.00
C1092  C     0.53315   0.70466   0.50547   0.00000  Uiso   1.00
C1093  C     0.52845   0.87488   0.56406   0.00000  Uiso   1.00
C1094  C     0.45766   0.76556   0.89953   0.00000  Uiso   1.00
C1095  C     0.46502   0.87493   0.51421   0.00000  Uiso   1.00
C1096  C     0.35542   0.86504   0.70017   0.00000  Uiso   1.00
C1097  C     0.48438   0.83977   0.99162   0.00000  Uiso   1.00
C1098  C     0.47977   0.82709   0.94751   0.00000  Uiso   1.00
C1099  C     0.50424   0.81501   0.51340   0.00000  Uiso   1.00
C1100  C     0.51073   0.77334   0.99500   0.00000  Uiso   1.00
C1101  C     0.49972   0.75896   0.95329   0.00000  Uiso   1.00
C1102  C     0.48166   0.78479   0.93190   0.00000  Uiso   1.00
H1103  H     0.53919   0.66993   0.71276   0.00000  Uiso   1.00
H1104  H     0.45340   0.95537   0.53040   0.00000  Uiso   1.00
H1105  H     0.45922   0.88131   0.55043   0.00000  Uiso   1.00
H1106  H     0.55117   0.74919   0.61934   0.00000  Uiso   1.00
H1107  H     0.57583   0.72655   0.57040   0.00000  Uiso   1.00
H1108  H     0.65328   0.81551   0.83151   0.00000  Uiso   1.00
H1109  H     0.65472   0.77113   0.79705   0.00000  Uiso   1.00
H1110  H     0.41032   0.92582   0.93397   0.00000  Uiso   1.00
H1111  H     0.45999   0.95180   0.92567   0.00000  Uiso   1.00
H1112  H     0.40491   0.92708   0.54048   0.00000  Uiso   1.00
N1113  N     0.54600   0.73460   0.58885   0.00000  Uiso   1.00
N1114  N     0.37853   0.88306   0.67157   0.00000  Uiso   1.00
N1115  N     0.64696   0.80153   0.80119   0.00000  Uiso   1.00
N1116  N     0.41742   0.98573   0.82643   0.00000  Uiso   1.00
N1117  N     0.51468   0.68684   0.90998   0.00000  Uiso   1.00
N1118  N     0.53877   0.67036   0.99440   0.00000  Uiso   1.00
N1119  N     0.53683   0.91002   0.57295   0.00000  Uiso   1.00
N1120  N     0.44268   0.92298   0.92039   0.00000  Uiso   1.00
N1121  N     0.43121   0.93720   0.51495   0.00000  Uiso   1.00
N1122  N     0.43836   0.75023   0.87401   0.00000  Uiso   1.00
O1123  O     0.50000   0.83333   0.75000   0.00000  Uiso   1.00
O1124  O     0.48784   0.79304   0.65459   0.00000  Uiso   1.00
O1125  O     0.46274   0.87058   0.84968   0.00000  Uiso   1.00
O1126  O     0.54157   0.84425   0.64606   0.00000  Uiso   1.00
O1127  O     0.50785   0.82546   0.84968   0.00000  Uiso   1.00
O1128  O     0.51264   0.74686   0.78213   0.00000  Uiso   1.00
O1129  O     0.47965   0.92751   0.77014   0.00000  Uiso   1.00
O1130  O     0.40745   0.79958   0.73413   0.00000  Uiso   1.00
O1131  O     0.60026   0.85939   0.71361   0.00000  Uiso   1.00
O1132  O     0.40405   0.85544   0.78213   0.00000  Uiso   1.00
O1133  O     0.58824   0.81892   0.77014   0.00000  Uiso   1.00
O1134  O     0.47093   0.73610   0.73413   0.00000  Uiso   1.00
O1135  O     0.53678   0.92286   0.71361   0.00000  Uiso   1.00
Zn1136 Zn    0.52672   0.80661   0.78734   0.00000  Uiso   1.00
Zn1137 Zn    0.46713   0.79124   0.71876   0.00000  Uiso   1.00
Zn1138 Zn    0.54389   0.86442   0.70657   0.00000  Uiso   1.00
Zn1139 Zn    0.46226   0.87106   0.78734   0.00000  Uiso   1.00
C1140  C     0.71964   0.82622   0.76021   0.00000  Uiso   1.00
C1141  C     0.85149   0.83075   0.55295   0.00000  Uiso   1.00
C1142  C     0.86614   0.76225   0.56310   0.00000  Uiso   1.00
C1143  C     0.94737   0.84032   0.74013   0.00000  Uiso   1.00
C1144  C     0.80409   0.85669   0.92174   0.00000  Uiso   1.00
C1145  C     0.99308   0.84239   0.73608   0.00000  Uiso   1.00
C1146  C     0.67456   0.82361   0.76481   0.00000  Uiso   1.00
C1147  C     0.84595   0.98900   0.73778   0.00000  Uiso   1.00
C1148  C     0.81742   0.67927   0.76489   0.00000  Uiso   1.00
C1149  C     0.82323   0.72270   0.75976   0.00000  Uiso   1.00
C1150  C     0.84296   0.94450   0.74044   0.00000  Uiso   1.00
C1151  C     0.78343   0.90142   0.99115   0.00000  Uiso   1.00
C1152  C     0.85176   0.81465   0.62913   0.00000  Uiso   1.00
C1153  C     0.81431   0.85070   0.87142   0.00000  Uiso   1.00
C1154  C     0.85966   0.74756   0.52019   0.00000  Uiso   1.00
C1155  C     0.85984   0.80342   0.58018   0.00000  Uiso   1.00
C1156  C     0.78811   0.89364   0.94447   0.00000  Uiso   1.00
C1157  C     0.78037   0.99759   0.79908   0.00000  Uiso   1.00
C1158  C     0.84133   0.71864   0.92966   0.00000  Uiso   1.00
C1159  C     0.86648   0.70466   0.50547   0.00000  Uiso   1.00
C1160  C     0.86179   0.87488   0.56406   0.00000  Uiso   1.00
C1161  C     0.79099   0.76556   0.89953   0.00000  Uiso   1.00
C1162  C     0.79835   0.87493   0.51421   0.00000  Uiso   1.00
C1163  C     0.68875   0.86504   0.70017   0.00000  Uiso   1.00
C1164  C     0.81771   0.83977   0.99162   0.00000  Uiso   1.00
C1165  C     0.81310   0.82709   0.94751   0.00000  Uiso   1.00
C1166  C     0.83758   0.81501   0.51340   0.00000  Uiso   1.00
C1167  C     0.84406   0.77334   0.99500   0.00000  Uiso   1.00
C1168  C     0.83305   0.75896   0.95329   0.00000  Uiso   1.00
C1169  C     0.81500   0.78479   0.93190   0.00000  Uiso   1.00
H1170  H     0.87252   0.66993   0.71276   0.00000  Uiso   1.00
H1171  H     0.78674   0.95537   0.53040   0.00000  Uiso   1.00
H1172  H     0.79255   0.88131   0.55043   0.00000  Uiso   1.00
H1173  H     0.88450   0.74919   0.61934   0.00000  Uiso   1.00
H1174  H     0.90916   0.72655   0.57040   0.00000  Uiso   1.00
H1175  H     0.98661   0.81551   0.83151   0.00000  Uiso   1.00
H1176  H     0.98805   0.77113   0.79705   0.00000  Uiso   1.00
H1177  H     0.74366   0.92582   0.93397   0.00000  Uiso   1.00
H1178  H     0.79332   0.95180   0.92567   0.00000  Uiso   1.00
H1179  H     0.73824   0.92708   0.54048   0.00000  Uiso   1.00
N1180  N     0.87933   0.73460   0.58885   0.00000  Uiso   1.00
N1181  N     0.71186   0.88306   0.67157   0.00000  Uiso   1.00
N1182  N     0.98029   0.80153   0.80119   0.00000  Uiso   1.00
N1183  N     0.75076   0.98573   0.82643   0.00000  Uiso   1.00
N1184  N     0.84801   0.68684   0.90998   0.00000  Uiso   1.00
N1185  N     0.87210   0.67036   0.99440   0.00000  Uiso   1.00
N1186  N     0.87017   0.91002   0.57295   0.00000  Uiso   1.00
N1187  N     0.77602   0.92298   0.92039   0.00000  Uiso   1.00
N1188  N     0.76455   0.93720   0.51495   0.00000  Uiso   1.00
N1189  N     0.77169   0.75023   0.87401   0.00000  Uiso   1.00
O1190  O     0.83333   0.83333   0.75000   0.00000  Uiso   1.00
O1191  O     0.82118   0.79304   0.65459   0.00000  Uiso   1.00
O1192  O     0.79607   0.87058   0.84968   0.00000  Uiso   1.00
O1193  O     0.87491   0.84425   0.64606   0.00000  Uiso   1.00
O1194  O     0.84118   0.82546   0.84968   0.00000  Uiso   1.00
O1195  O     0.84597   0.74686   0.78213   0.00000  Uiso   1.00
O1196  O     0.81298   0.92751   0.77014   0.00000  Uiso   1.00
O1197  O     0.74078   0.79958   0.73413   0.00000  Uiso   1.00
O1198  O     0.93360   0.85939   0.71361   0.00000  Uiso   1.00
O1199  O     0.73738   0.85544   0.78213   0.00000  Uiso   1.00
O1200  O     0.92158   0.81892   0.77014   0.00000  Uiso   1.00
O1201  O     0.80426   0.73610   0.73413   0.00000  Uiso   1.00
O1202  O     0.87012   0.92286   0.71361   0.00000  Uiso   1.00
Zn1203 Zn    0.86005   0.80661   0.78734   0.00000  Uiso   1.00
Zn1204 Zn    0.80046   0.79124   0.71876   0.00000  Uiso   1.00
Zn1205 Zn    0.87723   0.86442   0.70657   0.00000  Uiso   1.00
Zn1206 Zn    0.79560   0.87106   0.78734   0.00000  Uiso   1.00
loop_
_geom_bond_atom_site_label_1
_geom_bond_atom_site_label_2
_geom_bond_distance
_geom_bond_site_symmetry_2
_ccdc_geom_bond_type
C1     O58     1.264   .     A
C1     O60     1.262   .     A
C1     C7      1.436   .     S
C2     C16     1.394   .     A
C2     C21     1.452   .     S
C2     C27     1.423   .     A
C3     C15     1.408   .     A
C3     N41     1.447   .     S
C3     C16     1.408   .     A
C4     O59     1.286   .     A
C4     C6      1.461   .     S
C4     O61     1.276   .     A
C5     C14     1.491   .     S
C5     C17     1.418   .     A
C5     C26     1.428   .     A
C6     C74     1.354   .     S
C6     C91     1.454   .     S
C7     C140    1.354   1_455 S
C7     N177    1.437   1_455 S
C8     C11     1.454   .     S
C8     C210    1.345   .     S
C8     H232    1.088   .     S
C9     C10     1.426   .     S
C9     C410    1.345   1_545 S
C9     C420    1.450   1_545 S
C10    O62     1.271   .     A
C10    O56     1.272   .     A
C11    O57     1.265   .     A
C11    O63     1.277   .     A
C12    C17     1.400   .     A
C12    C626    1.393   .     S
C12    N652    1.433   .     S
C13    O52     1.277   .     A
C13    C16     1.470   .     S
C13    O54     1.286   .     A
C14    O55     1.293   .     A
C14    O53     1.285   .     A
C15    C20     1.451   .     S
C15    C631    1.435   1_554 S
C17    N48     1.434   .     S
C18    N44     1.157   .     T
C18    C210    1.450   .     S
C19    N45     1.157   .     T
C19    C29     1.452   .     S
C20    N649    1.158   1_554 S
C21    N47     1.158   .     T
C22    N50     1.157   .     T
C22    C30     1.456   .     S
C23    H33     1.080   .     S
C23    C615    1.393   1_554 S
C23    C628    1.412   1_554 S
C24    N42     1.157   .     T
C24    C140    1.454   1_455 S
C25    C26     1.411   .     A
C25    C626    1.412   .     S
C25    C630    1.427   .     S
C26    C30     1.412   .     A
C27    C628    1.427   1_554 S
C27    C631    1.434   1_554 S
C28    C29     1.430   .     A
C28    C630    1.434   .     S
C28    C618    1.435   .     S
C29    C30     1.406   .     A
H31    C410    1.088   1_545 S
H32    N49     1.046   .     S
H34    N41     1.043   .     S
H35    N41     1.046   .     S
H36    N43     1.046   .     S
H37    N43     1.045   .     S
H38    N48     1.046   .     S
H39    N48     1.044   .     S
H40    N49     1.046   .     S
N43    C74     1.437   .     S
N46    C623    1.158   .     S
N49    C615    1.433   1_554 S
O51    Zn67    1.930   .     S
O51    Zn64    1.958   .     S
O51    Zn65    1.941   .     S
O51    Zn66    1.944   .     S
O52    Zn65    1.917   .     S
O53    Zn67    1.924   .     S
O54    Zn66    1.916   .     S
O55    Zn64    1.910   .     S
O56    Zn64    1.937   .     S
O57    Zn67    1.943   .     S
O58    Zn65    1.938   .     S
O59    Zn66    1.945   .     S
O60    Zn67    1.943   .     S
O61    Zn64    1.938   .     S
O62    Zn65    1.945   .     S
O63    Zn66    1.936   .     S
C68    O125    1.264   .     A
C68    O127    1.262   .     A
C68    C74     1.436   .     S
C69    C83     1.394   .     A
C69    C88     1.452   .     S
C69    C94     1.423   .     A
C70    C82     1.408   .     A
C70    N108    1.447   .     S
C70    C83     1.408   .     A
C71    O126    1.286   .     A
C71    C73     1.461   .     S
C71    O128    1.276   .     A
C72    C81     1.491   .     S
C72    C84     1.418   .     A
C72    C93     1.428   .     A
C73    C141    1.354   .     S
C73    C158    1.454   .     S
C75    C78     1.454   .     S
C75    C277    1.345   .     S
C75    H299    1.088   .     S
C76    C77     1.426   .     S
C76    C477    1.345   1_545 S
C76    C487    1.450   1_545 S
C77    O129    1.271   .     A
C77    O123    1.272   .     A
C78    O124    1.265   .     A
C78    O130    1.277   .     A
C79    C84     1.400   .     A
C79    C693    1.393   .     S
C79    N719    1.433   .     S
C80    O119    1.277   .     A
C80    C83     1.470   .     S
C80    O121    1.286   .     A
C81    O122    1.293   .     A
C81    O120    1.285   .     A
C82    C87     1.451   .     S
C82    C698    1.435   1_554 S
C84    N115    1.434   .     S
C85    N111    1.157   .     T
C85    C277    1.450   .     S
C86    N112    1.157   .     T
C86    C96     1.452   .     S
C87    N716    1.158   1_554 S
C88    N114    1.158   .     T
C89    N117    1.157   .     T
C89    C97     1.456   .     S
C90    H100    1.080   .     S
C90    C682    1.393   1_554 S
C90    C695    1.412   1_554 S
C91    N109    1.157   .     T
C92    C93     1.411   .     A
C92    C693    1.412   .     S
C92    C697    1.427   .     S
C93    C97     1.412   .     A
C94    C695    1.427   1_554 S
C94    C698    1.434   1_554 S
C95    C96     1.430   .     A
C95    C697    1.434   .     S
C95    C685    1.435   .     S
C96    C97     1.406   .     A
H98    C477    1.088   1_545 S
H99    N116    1.046   .     S
H101   N108    1.043   .     S
H102   N108    1.046   .     S
H103   N110    1.046   .     S
H104   N110    1.045   .     S
H105   N115    1.046   .     S
H106   N115    1.044   .     S
H107   N116    1.046   .     S
N110   C141    1.437   .     S
N113   C690    1.158   .     S
N116   C682    1.433   1_554 S
O118   Zn134   1.930   .     S
O118   Zn131   1.958   .     S
O118   Zn132   1.941   .     S
O118   Zn133   1.944   .     S
O119   Zn132   1.917   .     S
O120   Zn134   1.924   .     S
O121   Zn133   1.916   .     S
O122   Zn131   1.910   .     S
O123   Zn131   1.937   .     S
O124   Zn134   1.943   .     S
O125   Zn132   1.938   .     S
O126   Zn133   1.945   .     S
O127   Zn134   1.943   .     S
O128   Zn131   1.938   .     S
O129   Zn132   1.945   .     S
O130   Zn133   1.936   .     S
C135   O192    1.264   .     A
C135   O194    1.262   .     A
C135   C141    1.436   .     S
C136   C150    1.394   .     A
C136   C155    1.452   .     S
C136   C161    1.423   .     A
C137   C149    1.408   .     A
C137   N175    1.447   .     S
C137   C150    1.408   .     A
C138   O193    1.286   .     A
C138   C140    1.461   .     S
C138   O195    1.276   .     A
C139   C148    1.491   .     S
C139   C151    1.418   .     A
C139   C160    1.428   .     A
C140   C7      1.354   1_655 S
C140   C24     1.454   1_655 S
C142   C145    1.454   .     S
C142   C344    1.345   .     S
C142   H366    1.088   .     S
C143   C144    1.426   .     S
C143   C544    1.345   1_545 S
C143   C554    1.450   1_545 S
C144   O196    1.271   .     A
C144   O190    1.272   .     A
C145   O191    1.265   .     A
C145   O197    1.277   .     A
C146   C151    1.400   .     A
C146   C760    1.393   .     S
C146   N786    1.433   .     S
C147   O186    1.277   .     A
C147   C150    1.470   .     S
C147   O188    1.286   .     A
C148   O189    1.293   .     A
C148   O187    1.285   .     A
C149   C154    1.451   .     S
C149   C765    1.435   1_554 S
C151   N182    1.434   .     S
C152   N178    1.157   .     T
C152   C344    1.450   .     S
C153   N179    1.157   .     T
C153   C163    1.452   .     S
C154   N783    1.158   1_554 S
C155   N181    1.158   .     T
C156   N184    1.157   .     T
C156   C164    1.456   .     S
C157   H167    1.080   .     S
C157   C749    1.393   1_554 S
C157   C762    1.412   1_554 S
C158   N176    1.157   .     T
C159   C160    1.411   .     A
C159   C760    1.412   .     S
C159   C764    1.427   .     S
C160   C164    1.412   .     A
C161   C762    1.427   1_554 S
C161   C765    1.434   1_554 S
C162   C163    1.430   .     A
C162   C764    1.434   .     S
C162   C752    1.435   .     S
C163   C164    1.406   .     A
H165   C544    1.088   1_545 S
H166   N183    1.046   .     S
H168   N175    1.043   .     S
H169   N175    1.046   .     S
H170   N177    1.046   .     S
H171   N177    1.045   .     S
H172   N182    1.046   .     S
H173   N182    1.044   .     S
H174   N183    1.046   .     S
N177   C7      1.437   1_655 S
N180   C757    1.158   .     S
N183   C749    1.433   1_554 S
O185   Zn201   1.930   .     S
O185   Zn198   1.958   .     S
O185   Zn199   1.941   .     S
O185   Zn200   1.944   .     S
O186   Zn199   1.917   .     S
O187   Zn201   1.924   .     S
O188   Zn200   1.916   .     S
O189   Zn198   1.910   .     S
O190   Zn198   1.937   .     S
O191   Zn201   1.943   .     S
O192   Zn199   1.938   .     S
O193   Zn200   1.945   .     S
O194   Zn201   1.943   .     S
O195   Zn198   1.938   .     S
O196   Zn199   1.945   .     S
O197   Zn200   1.936   .     S
C202   O259    1.264   .     A
C202   O261    1.262   .     A
C202   C208    1.436   .     S
C203   C217    1.394   .     A
C203   C222    1.452   .     S
C203   C228    1.423   .     A
C204   C216    1.408   .     A
C204   N242    1.447   .     S
C204   C217    1.408   .     A
C205   O260    1.286   .     A
C205   C207    1.461   .     S
C205   O262    1.276   .     A
C206   C215    1.491   .     S
C206   C218    1.418   .     A
C206   C227    1.428   .     A
C207   C275    1.354   .     S
C207   C292    1.454   .     S
C208   C341    1.354   1_455 S
C208   N378    1.437   1_455 S
C209   C212    1.454   .     S
C209   C411    1.345   .     S
C209   H433    1.088   .     S
C210   C211    1.426   .     S
C211   O263    1.271   .     A
C211   O257    1.272   .     A
C212   O258    1.265   .     A
C212   O264    1.277   .     A
C213   C218    1.400   .     A
C213   C827    1.393   .     S
C213   N853    1.433   .     S
C214   O253    1.277   .     A
C214   C217    1.470   .     S
C214   O255    1.286   .     A
C215   O256    1.293   .     A
C215   O254    1.285   .     A
C216   C221    1.451   .     S
C216   C832    1.435   1_554 S
C218   N249    1.434   .     S
C219   N245    1.157   .     T
C219   C411    1.450   .     S
C220   N246    1.157   .     T
C220   C230    1.452   .     S
C221   N850    1.158   1_554 S
C222   N248    1.158   .     T
C223   N251    1.157   .     T
C223   C231    1.456   .     S
C224   H234    1.080   .     S
C224   C816    1.393   1_554 S
C224   C829    1.412   1_554 S
C225   N243    1.157   .     T
C225   C341    1.454   1_455 S
C226   C227    1.411   .     A
C226   C827    1.412   .     S
C226   C831    1.427   .     S
C227   C231    1.412   .     A
C228   C829    1.427   1_554 S
C228   C832    1.434   1_554 S
C229   C230    1.430   .     A
C229   C831    1.434   .     S
C229   C819    1.435   .     S
C230   C231    1.406   .     A
H233   N250    1.046   .     S
H235   N242    1.043   .     S
H236   N242    1.046   .     S
H237   N244    1.046   .     S
H238   N244    1.045   .     S
H239   N249    1.046   .     S
H240   N249    1.044   .     S
H241   N250    1.046   .     S
N244   C275    1.437   .     S
N247   C824    1.158   .     S
N250   C816    1.433   1_554 S
O252   Zn268   1.930   .     S
O252   Zn265   1.958   .     S
O252   Zn266   1.941   .     S
O252   Zn267   1.944   .     S
O253   Zn266   1.917   .     S
O254   Zn268   1.924   .     S
O255   Zn267   1.916   .     S
O256   Zn265   1.910   .     S
O257   Zn265   1.937   .     S
O258   Zn268   1.943   .     S
O259   Zn266   1.938   .     S
O260   Zn267   1.945   .     S
O261   Zn268   1.943   .     S
O262   Zn265   1.938   .     S
O263   Zn266   1.945   .     S
O264   Zn267   1.936   .     S
C269   O326    1.264   .     A
C269   O328    1.262   .     A
C269   C275    1.436   .     S
C270   C284    1.394   .     A
C270   C289    1.452   .     S
C270   C295    1.423   .     A
C271   C283    1.408   .     A
C271   N309    1.447   .     S
C271   C284    1.408   .     A
C272   O327    1.286   .     A
C272   C274    1.461   .     S
C272   O329    1.276   .     A
C273   C282    1.491   .     S
C273   C285    1.418   .     A
C273   C294    1.428   .     A
C274   C342    1.354   .     S
C274   C359    1.454   .     S
C276   C279    1.454   .     S
C276   C478    1.345   .     S
C276   H500    1.088   .     S
C277   C278    1.426   .     S
C278   O330    1.271   .     A
C278   O324    1.272   .     A
C279   O325    1.265   .     A
C279   O331    1.277   .     A
C280   C285    1.400   .     A
C280   C894    1.393   .     S
C280   N920    1.433   .     S
C281   O320    1.277   .     A
C281   C284    1.470   .     S
C281   O322    1.286   .     A
C282   O323    1.293   .     A
C282   O321    1.285   .     A
C283   C288    1.451   .     S
C283   C899    1.435   1_554 S
C285   N316    1.434   .     S
C286   N312    1.157   .     T
C286   C478    1.450   .     S
C287   N313    1.157   .     T
C287   C297    1.452   .     S
C288   N917    1.158   1_554 S
C289   N315    1.158   .     T
C290   N318    1.157   .     T
C290   C298    1.456   .     S
C291   H301    1.080   .     S
C291   C883    1.393   1_554 S
C291   C896    1.412   1_554 S
C292   N310    1.157   .     T
C293   C294    1.411   .     A
C293   C894    1.412   .     S
C293   C898    1.427   .     S
C294   C298    1.412   .     A
C295   C896    1.427   1_554 S
C295   C899    1.434   1_554 S
C296   C297    1.430   .     A
C296   C898    1.434   .     S
C296   C886    1.435   .     S
C297   C298    1.406   .     A
H300   N317    1.046   .     S
H302   N309    1.043   .     S
H303   N309    1.046   .     S
H304   N311    1.046   .     S
H305   N311    1.045   .     S
H306   N316    1.046   .     S
H307   N316    1.044   .     S
H308   N317    1.046   .     S
N311   C342    1.437   .     S
N314   C891    1.158   .     S
N317   C883    1.433   1_554 S
O319   Zn335   1.930   .     S
O319   Zn332   1.958   .     S
O319   Zn333   1.941   .     S
O319   Zn334   1.944   .     S
O320   Zn333   1.917   .     S
O321   Zn335   1.924   .     S
O322   Zn334   1.916   .     S
O323   Zn332   1.910   .     S
O324   Zn332   1.937   .     S
O325   Zn335   1.943   .     S
O326   Zn333   1.938   .     S
O327   Zn334   1.945   .     S
O328   Zn335   1.943   .     S
O329   Zn332   1.938   .     S
O330   Zn333   1.945   .     S
O331   Zn334   1.936   .     S
C336   O393    1.264   .     A
C336   O395    1.262   .     A
C336   C342    1.436   .     S
C337   C351    1.394   .     A
C337   C356    1.452   .     S
C337   C362    1.423   .     A
C338   C350    1.408   .     A
C338   N376    1.447   .     S
C338   C351    1.408   .     A
C339   O394    1.286   .     A
C339   C341    1.461   .     S
C339   O396    1.276   .     A
C340   C349    1.491   .     S
C340   C352    1.418   .     A
C340   C361    1.428   .     A
C341   C208    1.354   1_655 S
C341   C225    1.454   1_655 S
C343   C346    1.454   .     S
C343   C545    1.345   .     S
C343   H567    1.088   .     S
C344   C345    1.426   .     S
C345   O397    1.271   .     A
C345   O391    1.272   .     A
C346   O392    1.265   .     A
C346   O398    1.277   .     A
C347   C352    1.400   .     A
C347   C961    1.393   .     S
C347   N987    1.433   .     S
C348   O387    1.277   .     A
C348   C351    1.470   .     S
C348   O389    1.286   .     A
C349   O390    1.293   .     A
C349   O388    1.285   .     A
C350   C355    1.451   .     S
C350   C966    1.435   1_554 S
C352   N383    1.434   .     S
C353   N379    1.157   .     T
C353   C545    1.450   .     S
C354   N380    1.157   .     T
C354   C364    1.452   .     S
C355   N984    1.158   1_554 S
C356   N382    1.158   .     T
C357   N385    1.157   .     T
C357   C365    1.456   .     S
C358   H368    1.080   .     S
C358   C950    1.393   1_554 S
C358   C963    1.412   1_554 S
C359   N377    1.157   .     T
C360   C361    1.411   .     A
C360   C961    1.412   .     S
C360   C965    1.427   .     S
C361   C365    1.412   .     A
C362   C963    1.427   1_554 S
C362   C966    1.434   1_554 S
C363   C364    1.430   .     A
C363   C965    1.434   .     S
C363   C953    1.435   .     S
C364   C365    1.406   .     A
H367   N384    1.046   .     S
H369   N376    1.043   .     S
H370   N376    1.046   .     S
H371   N378    1.046   .     S
H372   N378    1.045   .     S
H373   N383    1.046   .     S
H374   N383    1.044   .     S
H375   N384    1.046   .     S
N378   C208    1.437   1_655 S
N381   C958    1.158   .     S
N384   C950    1.433   1_554 S
O386   Zn402   1.930   .     S
O386   Zn399   1.958   .     S
O386   Zn400   1.941   .     S
O386   Zn401   1.944   .     S
O387   Zn400   1.917   .     S
O388   Zn402   1.924   .     S
O389   Zn401   1.916   .     S
O390   Zn399   1.910   .     S
O391   Zn399   1.937   .     S
O392   Zn402   1.943   .     S
O393   Zn400   1.938   .     S
O394   Zn401   1.945   .     S
O395   Zn402   1.943   .     S
O396   Zn399   1.938   .     S
O397   Zn400   1.945   .     S
O398   Zn401   1.936   .     S
C403   O460    1.264   .     A
C403   O462    1.262   .     A
C403   C409    1.436   .     S
C404   C418    1.394   .     A
C404   C423    1.452   .     S
C404   C429    1.423   .     A
C405   C417    1.408   .     A
C405   N443    1.447   .     S
C405   C418    1.408   .     A
C406   O461    1.286   .     A
C406   C408    1.461   .     S
C406   O463    1.276   .     A
C407   C416    1.491   .     S
C407   C419    1.418   .     A
C407   C428    1.428   .     A
C408   C476    1.354   .     S
C408   C493    1.454   .     S
C409   C542    1.354   1_455 S
C409   N579    1.437   1_455 S
C410   C413    1.454   .     S
C410   C9      1.345   1_565 S
C410   H31     1.088   1_565 S
C411   C412    1.426   .     S
C412   O464    1.271   .     A
C412   O458    1.272   .     A
C413   O459    1.265   .     A
C413   O465    1.277   .     A
C414   C419    1.400   .     A
C414   C1028   1.393   .     S
C414   N1054   1.433   .     S
C415   O454    1.277   .     A
C415   C418    1.470   .     S
C415   O456    1.286   .     A
C416   O457    1.293   .     A
C416   O455    1.285   .     A
C417   C422    1.451   .     S
C417   C1033   1.435   1_554 S
C419   N450    1.434   .     S
C420   N446    1.157   .     T
C420   C9      1.450   1_565 S
C421   N447    1.157   .     T
C421   C431    1.452   .     S
C422   N1051   1.158   1_554 S
C423   N449    1.158   .     T
C424   N452    1.157   .     T
C424   C432    1.456   .     S
C425   H435    1.080   .     S
C425   C1017   1.393   1_554 S
C425   C1030   1.412   1_554 S
C426   N444    1.157   .     T
C426   C542    1.454   1_455 S
C427   C428    1.411   .     A
C427   C1028   1.412   .     S
C427   C1032   1.427   .     S
C428   C432    1.412   .     A
C429   C1030   1.427   1_554 S
C429   C1033   1.434   1_554 S
C430   C431    1.430   .     A
C430   C1032   1.434   .     S
C430   C1020   1.435   .     S
C431   C432    1.406   .     A
H434   N451    1.046   .     S
H436   N443    1.043   .     S
H437   N443    1.046   .     S
H438   N445    1.046   .     S
H439   N445    1.045   .     S
H440   N450    1.046   .     S
H441   N450    1.044   .     S
H442   N451    1.046   .     S
N445   C476    1.437   .     S
N448   C1025   1.158   .     S
N451   C1017   1.433   1_554 S
O453   Zn469   1.930   .     S
O453   Zn466   1.958   .     S
O453   Zn467   1.941   .     S
O453   Zn468   1.944   .     S
O454   Zn467   1.917   .     S
O455   Zn469   1.924   .     S
O456   Zn468   1.916   .     S
O457   Zn466   1.910   .     S
O458   Zn466   1.937   .     S
O459   Zn469   1.943   .     S
O460   Zn467   1.938   .     S
O461   Zn468   1.945   .     S
O462   Zn469   1.943   .     S
O463   Zn466   1.938   .     S
O464   Zn467   1.945   .     S
O465   Zn468   1.936   .     S
C470   O527    1.264   .     A
C470   O529    1.262   .     A
C470   C476    1.436   .     S
C471   C485    1.394   .     A
C471   C490    1.452   .     S
C471   C496    1.423   .     A
C472   C484    1.408   .     A
C472   N510    1.447   .     S
C472   C485    1.408   .     A
C473   O528    1.286   .     A
C473   C475    1.461   .     S
C473   O530    1.276   .     A
C474   C483    1.491   .     S
C474   C486    1.418   .     A
C474   C495    1.428   .     A
C475   C543    1.354   .     S
C475   C560    1.454   .     S
C477   C480    1.454   .     S
C477   C76     1.345   1_565 S
C477   H98     1.088   1_565 S
C478   C479    1.426   .     S
C479   O531    1.271   .     A
C479   O525    1.272   .     A
C480   O526    1.265   .     A
C480   O532    1.277   .     A
C481   C486    1.400   .     A
C481   C1095   1.393   .     S
C481   N1121   1.433   .     S
C482   O521    1.277   .     A
C482   C485    1.470   .     S
C482   O523    1.286   .     A
C483   O524    1.293   .     A
C483   O522    1.285   .     A
C484   C489    1.451   .     S
C484   C1100   1.435   1_554 S
C486   N517    1.434   .     S
C487   N513    1.157   .     T
C487   C76     1.450   1_565 S
C488   N514    1.157   .     T
C488   C498    1.452   .     S
C489   N1118   1.158   1_554 S
C490   N516    1.158   .     T
C491   N519    1.157   .     T
C491   C499    1.456   .     S
C492   H502    1.080   .     S
C492   C1084   1.393   1_554 S
C492   C1097   1.412   1_554 S
C493   N511    1.157   .     T
C494   C495    1.411   .     A
C494   C1095   1.412   .     S
C494   C1099   1.427   .     S
C495   C499    1.412   .     A
C496   C1097   1.427   1_554 S
C496   C1100   1.434   1_554 S
C497   C498    1.430   .     A
C497   C1099   1.434   .     S
C497   C1087   1.435   .     S
C498   C499    1.406   .     A
H501   N518    1.046   .     S
H503   N510    1.043   .     S
H504   N510    1.046   .     S
H505   N512    1.046   .     S
H506   N512    1.045   .     S
H507   N517    1.046   .     S
H508   N517    1.044   .     S
H509   N518    1.046   .     S
N512   C543    1.437   .     S
N515   C1092   1.158   .     S
N518   C1084   1.433   1_554 S
O520   Zn536   1.930   .     S
O520   Zn533   1.958   .     S
O520   Zn534   1.941   .     S
O520   Zn535   1.944   .     S
O521   Zn534   1.917   .     S
O522   Zn536   1.924   .     S
O523   Zn535   1.916   .     S
O524   Zn533   1.910   .     S
O525   Zn533   1.937   .     S
O526   Zn536   1.943   .     S
O527   Zn534   1.938   .     S
O528   Zn535   1.945   .     S
O529   Zn536   1.943   .     S
O530   Zn533   1.938   .     S
O531   Zn534   1.945   .     S
O532   Zn535   1.936   .     S
C537   O594    1.264   .     A
C537   O596    1.262   .     A
C537   C543    1.436   .     S
C538   C552    1.394   .     A
C538   C557    1.452   .     S
C538   C563    1.423   .     A
C539   C551    1.408   .     A
C539   N577    1.447   .     S
C539   C552    1.408   .     A
C540   O595    1.286   .     A
C540   C542    1.461   .     S
C540   O597    1.276   .     A
C541   C550    1.491   .     S
C541   C553    1.418   .     A
C541   C562    1.428   .     A
C542   C409    1.354   1_655 S
C542   C426    1.454   1_655 S
C544   C547    1.454   .     S
C544   C143    1.345   1_565 S
C544   H165    1.088   1_565 S
C545   C546    1.426   .     S
C546   O598    1.271   .     A
C546   O592    1.272   .     A
C547   O593    1.265   .     A
C547   O599    1.277   .     A
C548   C553    1.400   .     A
C548   C1162   1.393   .     S
C548   N1188   1.433   .     S
C549   O588    1.277   .     A
C549   C552    1.470   .     S
C549   O590    1.286   .     A
C550   O591    1.293   .     A
C550   O589    1.285   .     A
C551   C556    1.451   .     S
C551   C1167   1.435   1_554 S
C553   N584    1.434   .     S
C554   N580    1.157   .     T
C554   C143    1.450   1_565 S
C555   N581    1.157   .     T
C555   C565    1.452   .     S
C556   N1185   1.158   1_554 S
C557   N583    1.158   .     T
C558   N586    1.157   .     T
C558   C566    1.456   .     S
C559   H569    1.080   .     S
C559   C1151   1.393   1_554 S
C559   C1164   1.412   1_554 S
C560   N578    1.157   .     T
C561   C562    1.411   .     A
C561   C1162   1.412   .     S
C561   C1166   1.427   .     S
C562   C566    1.412   .     A
C563   C1164   1.427   1_554 S
C563   C1167   1.434   1_554 S
C564   C565    1.430   .     A
C564   C1166   1.434   .     S
C564   C1154   1.435   .     S
C565   C566    1.406   .     A
H568   N585    1.046   .     S
H570   N577    1.043   .     S
H571   N577    1.046   .     S
H572   N579    1.046   .     S
H573   N579    1.045   .     S
H574   N584    1.046   .     S
H575   N584    1.044   .     S
H576   N585    1.046   .     S
N579   C409    1.437   1_655 S
N582   C1159   1.158   .     S
N585   C1151   1.433   1_554 S
O587   Zn603   1.930   .     S
O587   Zn600   1.958   .     S
O587   Zn601   1.941   .     S
O587   Zn602   1.944   .     S
O588   Zn601   1.917   .     S
O589   Zn603   1.924   .     S
O590   Zn602   1.916   .     S
O591   Zn600   1.910   .     S
O592   Zn600   1.937   .     S
O593   Zn603   1.943   .     S
O594   Zn601   1.938   .     S
O595   Zn602   1.945   .     S
O596   Zn603   1.943   .     S
O597   Zn600   1.938   .     S
O598   Zn601   1.945   .     S
O599   Zn602   1.936   .     S
C604   O661    1.264   .     A
C604   O663    1.262   .     A
C604   C610    1.436   .     S
C605   C619    1.394   .     A
C605   C624    1.452   .     S
C605   C630    1.423   .     A
C606   C618    1.408   .     A
C606   N644    1.447   .     S
C606   C619    1.408   .     A
C607   O662    1.286   .     A
C607   C609    1.461   .     S
C607   O664    1.276   .     A
C608   C617    1.491   .     S
C608   C620    1.418   .     A
C608   C629    1.428   .     A
C609   C677    1.354   .     S
C609   C694    1.454   .     S
C610   C743    1.354   1_455 S
C610   N780    1.437   1_455 S
C611   C614    1.454   .     S
C611   C813    1.345   .     S
C611   H835    1.088   .     S
C612   C613    1.426   .     S
C612   C1013   1.345   1_545 S
C612   C1023   1.450   1_545 S
C613   O665    1.271   .     A
C613   O659    1.272   .     A
C614   O660    1.265   .     A
C614   O666    1.277   .     A
C615   C620    1.400   .     A
C615   C23     1.393   1_556 S
C615   N49     1.433   1_556 S
C616   O655    1.277   .     A
C616   C619    1.470   .     S
C616   O657    1.286   .     A
C617   O658    1.293   .     A
C617   O656    1.285   .     A
C618   C623    1.451   .     S
C620   N651    1.434   .     S
C621   N647    1.157   .     T
C621   C813    1.450   .     S
C622   N648    1.157   .     T
C622   C632    1.452   .     S
C624   N650    1.158   .     T
C625   N653    1.157   .     T
C625   C633    1.456   .     S
C626   H636    1.080   .     S
C627   N645    1.157   .     T
C627   C743    1.454   1_455 S
C628   C629    1.411   .     A
C628   C23     1.412   1_556 S
C628   C27     1.427   1_556 S
C629   C633    1.412   .     A
C631   C632    1.430   .     A
C631   C27     1.434   1_556 S
C631   C15     1.435   1_556 S
C632   C633    1.406   .     A
H634   C1013   1.088   1_545 S
H635   N652    1.046   .     S
H637   N644    1.043   .     S
H638   N644    1.046   .     S
H639   N646    1.046   .     S
H640   N646    1.045   .     S
H641   N651    1.046   .     S
H642   N651    1.044   .     S
H643   N652    1.046   .     S
N646   C677    1.437   .     S
N649   C20     1.158   1_556 S
O654   Zn670   1.930   .     S
O654   Zn667   1.958   .     S
O654   Zn668   1.941   .     S
O654   Zn669   1.944   .     S
O655   Zn668   1.917   .     S
O656   Zn670   1.924   .     S
O657   Zn669   1.916   .     S
O658   Zn667   1.910   .     S
O659   Zn667   1.937   .     S
O660   Zn670   1.943   .     S
O661   Zn668   1.938   .     S
O662   Zn669   1.945   .     S
O663   Zn670   1.943   .     S
O664   Zn667   1.938   .     S
O665   Zn668   1.945   .     S
O666   Zn669   1.936   .     S
C671   O728    1.264   .     A
C671   O730    1.262   .     A
C671   C677    1.436   .     S
C672   C686    1.394   .     A
C672   C691    1.452   .     S
C672   C697    1.423   .     A
C673   C685    1.408   .     A
C673   N711    1.447   .     S
C673   C686    1.408   .     A
C674   O729    1.286   .     A
C674   C676    1.461   .     S
C674   O731    1.276   .     A
C675   C684    1.491   .     S
C675   C687    1.418   .     A
C675   C696    1.428   .     A
C676   C744    1.354   .     S
C676   C761    1.454   .     S
C678   C681    1.454   .     S
C678   C880    1.345   .     S
C678   H902    1.088   .     S
C679   C680    1.426   .     S
C679   C1080   1.345   1_545 S
C679   C1090   1.450   1_545 S
C680   O732    1.271   .     A
C680   O726    1.272   .     A
C681   O727    1.265   .     A
C681   O733    1.277   .     A
C682   C687    1.400   .     A
C682   C90     1.393   1_556 S
C682   N116    1.433   1_556 S
C683   O722    1.277   .     A
C683   C686    1.470   .     S
C683   O724    1.286   .     A
C684   O725    1.293   .     A
C684   O723    1.285   .     A
C685   C690    1.451   .     S
C687   N718    1.434   .     S
C688   N714    1.157   .     T
C688   C880    1.450   .     S
C689   N715    1.157   .     T
C689   C699    1.452   .     S
C691   N717    1.158   .     T
C692   N720    1.157   .     T
C692   C700    1.456   .     S
C693   H703    1.080   .     S
C694   N712    1.157   .     T
C695   C696    1.411   .     A
C695   C90     1.412   1_556 S
C695   C94     1.427   1_556 S
C696   C700    1.412   .     A
C698   C699    1.430   .     A
C698   C94     1.434   1_556 S
C698   C82     1.435   1_556 S
C699   C700    1.406   .     A
H701   C1080   1.088   1_545 S
H702   N719    1.046   .     S
H704   N711    1.043   .     S
H705   N711    1.046   .     S
H706   N713    1.046   .     S
H707   N713    1.045   .     S
H708   N718    1.046   .     S
H709   N718    1.044   .     S
H710   N719    1.046   .     S
N713   C744    1.437   .     S
N716   C87     1.158   1_556 S
O721   Zn737   1.930   .     S
O721   Zn734   1.958   .     S
O721   Zn735   1.941   .     S
O721   Zn736   1.944   .     S
O722   Zn735   1.917   .     S
O723   Zn737   1.924   .     S
O724   Zn736   1.916   .     S
O725   Zn734   1.910   .     S
O726   Zn734   1.937   .     S
O727   Zn737   1.943   .     S
O728   Zn735   1.938   .     S
O729   Zn736   1.945   .     S
O730   Zn737   1.943   .     S
O731   Zn734   1.938   .     S
O732   Zn735   1.945   .     S
O733   Zn736   1.936   .     S
C738   O795    1.264   .     A
C738   O797    1.262   .     A
C738   C744    1.436   .     S
C739   C753    1.394   .     A
C739   C758    1.452   .     S
C739   C764    1.423   .     A
C740   C752    1.408   .     A
C740   N778    1.447   .     S
C740   C753    1.408   .     A
C741   O796    1.286   .     A
C741   C743    1.461   .     S
C741   O798    1.276   .     A
C742   C751    1.491   .     S
C742   C754    1.418   .     A
C742   C763    1.428   .     A
C743   C610    1.354   1_655 S
C743   C627    1.454   1_655 S
C745   C748    1.454   .     S
C745   C947    1.345   .     S
C745   H969    1.088   .     S
C746   C747    1.426   .     S
C746   C1147   1.345   1_545 S
C746   C1157   1.450   1_545 S
C747   O799    1.271   .     A
C747   O793    1.272   .     A
C748   O794    1.265   .     A
C748   O800    1.277   .     A
C749   C754    1.400   .     A
C749   C157    1.393   1_556 S
C749   N183    1.433   1_556 S
C750   O789    1.277   .     A
C750   C753    1.470   .     S
C750   O791    1.286   .     A
C751   O792    1.293   .     A
C751   O790    1.285   .     A
C752   C757    1.451   .     S
C754   N785    1.434   .     S
C755   N781    1.157   .     T
C755   C947    1.450   .     S
C756   N782    1.157   .     T
C756   C766    1.452   .     S
C758   N784    1.158   .     T
C759   N787    1.157   .     T
C759   C767    1.456   .     S
C760   H770    1.080   .     S
C761   N779    1.157   .     T
C762   C763    1.411   .     A
C762   C157    1.412   1_556 S
C762   C161    1.427   1_556 S
C763   C767    1.412   .     A
C765   C766    1.430   .     A
C765   C161    1.434   1_556 S
C765   C149    1.435   1_556 S
C766   C767    1.406   .     A
H768   C1147   1.088   1_545 S
H769   N786    1.046   .     S
H771   N778    1.043   .     S
H772   N778    1.046   .     S
H773   N780    1.046   .     S
H774   N780    1.045   .     S
H775   N785    1.046   .     S
H776   N785    1.044   .     S
H777   N786    1.046   .     S
N780   C610    1.437   1_655 S
N783   C154    1.158   1_556 S
O788   Zn804   1.930   .     S
O788   Zn801   1.958   .     S
O788   Zn802   1.941   .     S
O788   Zn803   1.944   .     S
O789   Zn802   1.917   .     S
O790   Zn804   1.924   .     S
O791   Zn803   1.916   .     S
O792   Zn801   1.910   .     S
O793   Zn801   1.937   .     S
O794   Zn804   1.943   .     S
O795   Zn802   1.938   .     S
O796   Zn803   1.945   .     S
O797   Zn804   1.943   .     S
O798   Zn801   1.938   .     S
O799   Zn802   1.945   .     S
O800   Zn803   1.936   .     S
C805   O862    1.264   .     A
C805   O864    1.262   .     A
C805   C811    1.436   .     S
C806   C820    1.394   .     A
C806   C825    1.452   .     S
C806   C831    1.423   .     A
C807   C819    1.408   .     A
C807   N845    1.447   .     S
C807   C820    1.408   .     A
C808   O863    1.286   .     A
C808   C810    1.461   .     S
C808   O865    1.276   .     A
C809   C818    1.491   .     S
C809   C821    1.418   .     A
C809   C830    1.428   .     A
C810   C878    1.354   .     S
C810   C895    1.454   .     S
C811   C944    1.354   1_455 S
C811   N981    1.437   1_455 S
C812   C815    1.454   .     S
C812   C1014   1.345   .     S
C812   H1036   1.088   .     S
C813   C814    1.426   .     S
C814   O866    1.271   .     A
C814   O860    1.272   .     A
C815   O861    1.265   .     A
C815   O867    1.277   .     A
C816   C821    1.400   .     A
C816   C224    1.393   1_556 S
C816   N250    1.433   1_556 S
C817   O856    1.277   .     A
C817   C820    1.470   .     S
C817   O858    1.286   .     A
C818   O859    1.293   .     A
C818   O857    1.285   .     A
C819   C824    1.451   .     S
C821   N852    1.434   .     S
C822   N848    1.157   .     T
C822   C1014   1.450   .     S
C823   N849    1.157   .     T
C823   C833    1.452   .     S
C825   N851    1.158   .     T
C826   N854    1.157   .     T
C826   C834    1.456   .     S
C827   H837    1.080   .     S
C828   N846    1.157   .     T
C828   C944    1.454   1_455 S
C829   C830    1.411   .     A
C829   C224    1.412   1_556 S
C829   C228    1.427   1_556 S
C830   C834    1.412   .     A
C832   C833    1.430   .     A
C832   C228    1.434   1_556 S
C832   C216    1.435   1_556 S
C833   C834    1.406   .     A
H836   N853    1.046   .     S
H838   N845    1.043   .     S
H839   N845    1.046   .     S
H840   N847    1.046   .     S
H841   N847    1.045   .     S
H842   N852    1.046   .     S
H843   N852    1.044   .     S
H844   N853    1.046   .     S
N847   C878    1.437   .     S
N850   C221    1.158   1_556 S
O855   Zn871   1.930   .     S
O855   Zn868   1.958   .     S
O855   Zn869   1.941   .     S
O855   Zn870   1.944   .     S
O856   Zn869   1.917   .     S
O857   Zn871   1.924   .     S
O858   Zn870   1.916   .     S
O859   Zn868   1.910   .     S
O860   Zn868   1.937   .     S
O861   Zn871   1.943   .     S
O862   Zn869   1.938   .     S
O863   Zn870   1.945   .     S
O864   Zn871   1.943   .     S
O865   Zn868   1.938   .     S
O866   Zn869   1.945   .     S
O867   Zn870   1.936   .     S
C872   O929    1.264   .     A
C872   O931    1.262   .     A
C872   C878    1.436   .     S
C873   C887    1.394   .     A
C873   C892    1.452   .     S
C873   C898    1.423   .     A
C874   C886    1.408   .     A
C874   N912    1.447   .     S
C874   C887    1.408   .     A
C875   O930    1.286   .     A
C875   C877    1.461   .     S
C875   O932    1.276   .     A
C876   C885    1.491   .     S
C876   C888    1.418   .     A
C876   C897    1.428   .     A
C877   C945    1.354   .     S
C877   C962    1.454   .     S
C879   C882    1.454   .     S
C879   C1081   1.345   .     S
C879   H1103   1.088   .     S
C880   C881    1.426   .     S
C881   O933    1.271   .     A
C881   O927    1.272   .     A
C882   O928    1.265   .     A
C882   O934    1.277   .     A
C883   C888    1.400   .     A
C883   C291    1.393   1_556 S
C883   N317    1.433   1_556 S
C884   O923    1.277   .     A
C884   C887    1.470   .     S
C884   O925    1.286   .     A
C885   O926    1.293   .     A
C885   O924    1.285   .     A
C886   C891    1.451   .     S
C888   N919    1.434   .     S
C889   N915    1.157   .     T
C889   C1081   1.450   .     S
C890   N916    1.157   .     T
C890   C900    1.452   .     S
C892   N918    1.158   .     T
C893   N921    1.157   .     T
C893   C901    1.456   .     S
C894   H904    1.080   .     S
C895   N913    1.157   .     T
C896   C897    1.411   .     A
C896   C291    1.412   1_556 S
C896   C295    1.427   1_556 S
C897   C901    1.412   .     A
C899   C900    1.430   .     A
C899   C295    1.434   1_556 S
C899   C283    1.435   1_556 S
C900   C901    1.406   .     A
H903   N920    1.046   .     S
H905   N912    1.043   .     S
H906   N912    1.046   .     S
H907   N914    1.046   .     S
H908   N914    1.045   .     S
H909   N919    1.046   .     S
H910   N919    1.044   .     S
H911   N920    1.046   .     S
N914   C945    1.437   .     S
N917   C288    1.158   1_556 S
O922   Zn938   1.930   .     S
O922   Zn935   1.958   .     S
O922   Zn936   1.941   .     S
O922   Zn937   1.944   .     S
O923   Zn936   1.917   .     S
O924   Zn938   1.924   .     S
O925   Zn937   1.916   .     S
O926   Zn935   1.910   .     S
O927   Zn935   1.937   .     S
O928   Zn938   1.943   .     S
O929   Zn936   1.938   .     S
O930   Zn937   1.945   .     S
O931   Zn938   1.943   .     S
O932   Zn935   1.938   .     S
O933   Zn936   1.945   .     S
O934   Zn937   1.936   .     S
C939   O996    1.264   .     A
C939   O998    1.262   .     A
C939   C945    1.436   .     S
C940   C954    1.394   .     A
C940   C959    1.452   .     S
C940   C965    1.423   .     A
C941   C953    1.408   .     A
C941   N979    1.447   .     S
C941   C954    1.408   .     A
C942   O997    1.286   .     A
C942   C944    1.461   .     S
C942   O999    1.276   .     A
C943   C952    1.491   .     S
C943   C955    1.418   .     A
C943   C964    1.428   .     A
C944   C811    1.354   1_655 S
C944   C828    1.454   1_655 S
C946   C949    1.454   .     S
C946   C1148   1.345   .     S
C946   H1170   1.088   .     S
C947   C948    1.426   .     S
C948   O1000   1.271   .     A
C948   O994    1.272   .     A
C949   O995    1.265   .     A
C949   O1001   1.277   .     A
C950   C955    1.400   .     A
C950   C358    1.393   1_556 S
C950   N384    1.433   1_556 S
C951   O990    1.277   .     A
C951   C954    1.470   .     S
C951   O992    1.286   .     A
C952   O993    1.293   .     A
C952   O991    1.285   .     A
C953   C958    1.451   .     S
C955   N986    1.434   .     S
C956   N982    1.157   .     T
C956   C1148   1.450   .     S
C957   N983    1.157   .     T
C957   C967    1.452   .     S
C959   N985    1.158   .     T
C960   N988    1.157   .     T
C960   C968    1.456   .     S
C961   H971    1.080   .     S
C962   N980    1.157   .     T
C963   C964    1.411   .     A
C963   C358    1.412   1_556 S
C963   C362    1.427   1_556 S
C964   C968    1.412   .     A
C966   C967    1.430   .     A
C966   C362    1.434   1_556 S
C966   C350    1.435   1_556 S
C967   C968    1.406   .     A
H970   N987    1.046   .     S
H972   N979    1.043   .     S
H973   N979    1.046   .     S
H974   N981    1.046   .     S
H975   N981    1.045   .     S
H976   N986    1.046   .     S
H977   N986    1.044   .     S
H978   N987    1.046   .     S
N981   C811    1.437   1_655 S
N984   C355    1.158   1_556 S
O989   Zn1005  1.930   .     S
O989   Zn1002  1.958   .     S
O989   Zn1003  1.941   .     S
O989   Zn1004  1.944   .     S
O990   Zn1003  1.917   .     S
O991   Zn1005  1.924   .     S
O992   Zn1004  1.916   .     S
O993   Zn1002  1.910   .     S
O994   Zn1002  1.937   .     S
O995   Zn1005  1.943   .     S
O996   Zn1003  1.938   .     S
O997   Zn1004  1.945   .     S
O998   Zn1005  1.943   .     S
O999   Zn1002  1.938   .     S
O1000  Zn1003  1.945   .     S
O1001  Zn1004  1.936   .     S
C1006  O1063   1.264   .     A
C1006  O1065   1.262   .     A
C1006  C1012   1.436   .     S
C1007  C1021   1.394   .     A
C1007  C1026   1.452   .     S
C1007  C1032   1.423   .     A
C1008  C1020   1.408   .     A
C1008  N1046   1.447   .     S
C1008  C1021   1.408   .     A
C1009  O1064   1.286   .     A
C1009  C1011   1.461   .     S
C1009  O1066   1.276   .     A
C1010  C1019   1.491   .     S
C1010  C1022   1.418   .     A
C1010  C1031   1.428   .     A
C1011  C1079   1.354   .     S
C1011  C1096   1.454   .     S
C1012  C1145   1.354   1_455 S
C1012  N1182   1.437   1_455 S
C1013  C1016   1.454   .     S
C1013  C612    1.345   1_565 S
C1013  H634    1.088   1_565 S
C1014  C1015   1.426   .     S
C1015  O1067   1.271   .     A
C1015  O1061   1.272   .     A
C1016  O1062   1.265   .     A
C1016  O1068   1.277   .     A
C1017  C1022   1.400   .     A
C1017  C425    1.393   1_556 S
C1017  N451    1.433   1_556 S
C1018  O1057   1.277   .     A
C1018  C1021   1.470   .     S
C1018  O1059   1.286   .     A
C1019  O1060   1.293   .     A
C1019  O1058   1.285   .     A
C1020  C1025   1.451   .     S
C1022  N1053   1.434   .     S
C1023  N1049   1.157   .     T
C1023  C612    1.450   1_565 S
C1024  N1050   1.157   .     T
C1024  C1034   1.452   .     S
C1026  N1052   1.158   .     T
C1027  N1055   1.157   .     T
C1027  C1035   1.456   .     S
C1028  H1038   1.080   .     S
C1029  N1047   1.157   .     T
C1029  C1145   1.454   1_455 S
C1030  C1031   1.411   .     A
C1030  C425    1.412   1_556 S
C1030  C429    1.427   1_556 S
C1031  C1035   1.412   .     A
C1033  C1034   1.430   .     A
C1033  C429    1.434   1_556 S
C1033  C417    1.435   1_556 S
C1034  C1035   1.406   .     A
H1037  N1054   1.046   .     S
H1039  N1046   1.043   .     S
H1040  N1046   1.046   .     S
H1041  N1048   1.046   .     S
H1042  N1048   1.045   .     S
H1043  N1053   1.046   .     S
H1044  N1053   1.044   .     S
H1045  N1054   1.046   .     S
N1048  C1079   1.437   .     S
N1051  C422    1.158   1_556 S
O1056  Zn1072  1.930   .     S
O1056  Zn1069  1.958   .     S
O1056  Zn1070  1.941   .     S
O1056  Zn1071  1.944   .     S
O1057  Zn1070  1.917   .     S
O1058  Zn1072  1.924   .     S
O1059  Zn1071  1.916   .     S
O1060  Zn1069  1.910   .     S
O1061  Zn1069  1.937   .     S
O1062  Zn1072  1.943   .     S
O1063  Zn1070  1.938   .     S
O1064  Zn1071  1.945   .     S
O1065  Zn1072  1.943   .     S
O1066  Zn1069  1.938   .     S
O1067  Zn1070  1.945   .     S
O1068  Zn1071  1.936   .     S
C1073  O1130   1.264   .     A
C1073  O1132   1.262   .     A
C1073  C1079   1.436   .     S
C1074  C1088   1.394   .     A
C1074  C1093   1.452   .     S
C1074  C1099   1.423   .     A
C1075  C1087   1.408   .     A
C1075  N1113   1.447   .     S
C1075  C1088   1.408   .     A
C1076  O1131   1.286   .     A
C1076  C1078   1.461   .     S
C1076  O1133   1.276   .     A
C1077  C1086   1.491   .     S
C1077  C1089   1.418   .     A
C1077  C1098   1.428   .     A
C1078  C1146   1.354   .     S
C1078  C1163   1.454   .     S
C1080  C1083   1.454   .     S
C1080  C679    1.345   1_565 S
C1080  H701    1.088   1_565 S
C1081  C1082   1.426   .     S
C1082  O1134   1.271   .     A
C1082  O1128   1.272   .     A
C1083  O1129   1.265   .     A
C1083  O1135   1.277   .     A
C1084  C1089   1.400   .     A
C1084  C492    1.393   1_556 S
C1084  N518    1.433   1_556 S
C1085  O1124   1.277   .     A
C1085  C1088   1.470   .     S
C1085  O1126   1.286   .     A
C1086  O1127   1.293   .     A
C1086  O1125   1.285   .     A
C1087  C1092   1.451   .     S
C1089  N1120   1.434   .     S
C1090  N1116   1.157   .     T
C1090  C679    1.450   1_565 S
C1091  N1117   1.157   .     T
C1091  C1101   1.452   .     S
C1093  N1119   1.158   .     T
C1094  N1122   1.157   .     T
C1094  C1102   1.456   .     S
C1095  H1105   1.080   .     S
C1096  N1114   1.157   .     T
C1097  C1098   1.411   .     A
C1097  C492    1.412   1_556 S
C1097  C496    1.427   1_556 S
C1098  C1102   1.412   .     A
C1100  C1101   1.430   .     A
C1100  C496    1.434   1_556 S
C1100  C484    1.435   1_556 S
C1101  C1102   1.406   .     A
H1104  N1121   1.046   .     S
H1106  N1113   1.043   .     S
H1107  N1113   1.046   .     S
H1108  N1115   1.046   .     S
H1109  N1115   1.045   .     S
H1110  N1120   1.046   .     S
H1111  N1120   1.044   .     S
H1112  N1121   1.046   .     S
N1115  C1146   1.437   .     S
N1118  C489    1.158   1_556 S
O1123  Zn1139  1.930   .     S
O1123  Zn1136  1.958   .     S
O1123  Zn1137  1.941   .     S
O1123  Zn1138  1.944   .     S
O1124  Zn1137  1.917   .     S
O1125  Zn1139  1.924   .     S
O1126  Zn1138  1.916   .     S
O1127  Zn1136  1.910   .     S
O1128  Zn1136  1.937   .     S
O1129  Zn1139  1.943   .     S
O1130  Zn1137  1.938   .     S
O1131  Zn1138  1.945   .     S
O1132  Zn1139  1.943   .     S
O1133  Zn1136  1.938   .     S
O1134  Zn1137  1.945   .     S
O1135  Zn1138  1.936   .     S
C1140  O1197   1.264   .     A
C1140  O1199   1.262   .     A
C1140  C1146   1.436   .     S
C1141  C1155   1.394   .     A
C1141  C1160   1.452   .     S
C1141  C1166   1.423   .     A
C1142  C1154   1.408   .     A
C1142  N1180   1.447   .     S
C1142  C1155   1.408   .     A
C1143  O1198   1.286   .     A
C1143  C1145   1.461   .     S
C1143  O1200   1.276   .     A
C1144  C1153   1.491   .     S
C1144  C1156   1.418   .     A
C1144  C1165   1.428   .     A
C1145  C1012   1.354   1_655 S
C1145  C1029   1.454   1_655 S
C1147  C1150   1.454   .     S
C1147  C746    1.345   1_565 S
C1147  H768    1.088   1_565 S
C1148  C1149   1.426   .     S
C1149  O1201   1.271   .     A
C1149  O1195   1.272   .     A
C1150  O1196   1.265   .     A
C1150  O1202   1.277   .     A
C1151  C1156   1.400   .     A
C1151  C559    1.393   1_556 S
C1151  N585    1.433   1_556 S
C1152  O1191   1.277   .     A
C1152  C1155   1.470   .     S
C1152  O1193   1.286   .     A
C1153  O1194   1.293   .     A
C1153  O1192   1.285   .     A
C1154  C1159   1.451   .     S
C1156  N1187   1.434   .     S
C1157  N1183   1.157   .     T
C1157  C746    1.450   1_565 S
C1158  N1184   1.157   .     T
C1158  C1168   1.452   .     S
C1160  N1186   1.158   .     T
C1161  N1189   1.157   .     T
C1161  C1169   1.456   .     S
C1162  H1172   1.080   .     S
C1163  N1181   1.157   .     T
C1164  C1165   1.411   .     A
C1164  C559    1.412   1_556 S
C1164  C563    1.427   1_556 S
C1165  C1169   1.412   .     A
C1167  C1168   1.430   .     A
C1167  C563    1.434   1_556 S
C1167  C551    1.435   1_556 S
C1168  C1169   1.406   .     A
H1171  N1188   1.046   .     S
H1173  N1180   1.043   .     S
H1174  N1180   1.046   .     S
H1175  N1182   1.046   .     S
H1176  N1182   1.045   .     S
H1177  N1187   1.046   .     S
H1178  N1187   1.044   .     S
H1179  N1188   1.046   .     S
N1182  C1012   1.437   1_655 S
N1185  C556    1.158   1_556 S
O1190  Zn1206  1.930   .     S
O1190  Zn1203  1.958   .     S
O1190  Zn1204  1.941   .     S
O1190  Zn1205  1.944   .     S
O1191  Zn1204  1.917   .     S
O1192  Zn1206  1.924   .     S
O1193  Zn1205  1.916   .     S
O1194  Zn1203  1.910   .     S
O1195  Zn1203  1.937   .     S
O1196  Zn1206  1.943   .     S
O1197  Zn1204  1.938   .     S
O1198  Zn1205  1.945   .     S
O1199  Zn1206  1.943   .     S
O1200  Zn1203  1.938   .     S
O1201  Zn1204  1.945   .     S
O1202  Zn1205  1.936   .     S
