data_str_m3_o1_o1_pcu_sym.7
_audit_creation_date              2020-01-03
_audit_creation_method            'Materials Studio'
_symmetry_space_group_name_H-M    'P1'
_symmetry_Int_Tables_number       1
_symmetry_cell_setting            triclinic
loop_
_symmetry_equiv_pos_as_xyz
  x,y,z
_cell_length_a                    31.0144
_cell_length_b                    29.9195
_cell_length_c                    29.4606
_cell_angle_alpha                 90.0002
_cell_angle_beta                  90.0001
_cell_angle_gamma                 90.0000
loop_
_atom_site_label
_atom_site_type_symbol
_atom_site_fract_x
_atom_site_fract_y
_atom_site_fract_z
_atom_site_U_iso_or_equiv
_atom_site_adp_type
_atom_site_occupancy
C1     C     0.06279   0.19296   0.16667   0.00000  Uiso   1.00
C2     C     0.00000   0.21059   0.30932   0.00000  Uiso   1.00
C3     C    -0.00000   0.21059   0.02401   0.00000  Uiso   1.00
C4     C    -0.00000   0.28941   0.30932   0.00000  Uiso   1.00
C5     C     0.25000   0.03941   0.02401   0.00000  Uiso   1.00
C6     C     0.25000   0.46059   0.30932   0.00000  Uiso   1.00
C7     C     0.25000   0.46059   0.02401   0.00000  Uiso   1.00
C8     C     0.25000   0.03941   0.30932   0.00000  Uiso   1.00
C9     C     0.38649   0.14472   0.12506   0.00000  Uiso   1.00
C10    C     0.11351   0.35528   0.20827   0.00000  Uiso   1.00
C11    C     0.11351   0.35528   0.12506   0.00000  Uiso   1.00
C12    C     0.43721   0.30704   0.16667   0.00000  Uiso   1.00
C13    C     0.38649   0.14472   0.20827   0.00000  Uiso   1.00
C14    C     0.11351   0.14472   0.20827   0.00000  Uiso   1.00
C15    C     0.38649   0.35528   0.12506   0.00000  Uiso   1.00
C16    C     0.38649   0.35528   0.20827   0.00000  Uiso   1.00
C17    C     0.11351   0.14472   0.12506   0.00000  Uiso   1.00
C18    C     0.13649   0.39472   0.12506   0.00000  Uiso   1.00
C19    C     0.36351   0.10528   0.20827   0.00000  Uiso   1.00
C20    C     0.36351   0.10528   0.12506   0.00000  Uiso   1.00
C21    C     0.13649   0.39472   0.20827   0.00000  Uiso   1.00
C22    C     0.36351   0.39472   0.20827   0.00000  Uiso   1.00
C23    C     0.43721   0.19296   0.16667   0.00000  Uiso   1.00
C24    C     0.13649   0.10528   0.12506   0.00000  Uiso   1.00
C25    C     0.13649   0.10528   0.20827   0.00000  Uiso   1.00
C26    C     0.36351   0.39472   0.12506   0.00000  Uiso   1.00
C27    C     0.09864   0.33781   0.16667   0.00000  Uiso   1.00
C28    C     0.40136   0.16219   0.16667   0.00000  Uiso   1.00
C29    C     0.40136   0.33781   0.16667   0.00000  Uiso   1.00
C30    C     0.09864   0.16219   0.16667   0.00000  Uiso   1.00
C31    C     0.34864   0.08781   0.16667   0.00000  Uiso   1.00
C32    C     0.15136   0.41219   0.16667   0.00000  Uiso   1.00
C33    C     0.15136   0.08781   0.16667   0.00000  Uiso   1.00
C34    C     0.06279   0.30704   0.16667   0.00000  Uiso   1.00
C35    C     0.34864   0.41219   0.16667   0.00000  Uiso   1.00
C36    C     0.31279   0.44296   0.16667   0.00000  Uiso   1.00
C37    C     0.18721   0.05704   0.16667   0.00000  Uiso   1.00
C38    C     0.18721   0.44296   0.16667   0.00000  Uiso   1.00
C39    C     0.31279   0.05704   0.16667   0.00000  Uiso   1.00
C40    C    -0.00000   0.28941   0.02401   0.00000  Uiso   1.00
Cl41   Cl   -0.00000   0.34069   0.05329   0.00000  Uiso   1.00
Cl42   Cl    0.10838   0.32648   0.26079   0.00000  Uiso   1.00
Cl43   Cl    0.10838   0.32648   0.07254   0.00000  Uiso   1.00
Cl44   Cl    0.39162   0.17352   0.26079   0.00000  Uiso   1.00
Cl45   Cl    0.10838   0.17352   0.26079   0.00000  Uiso   1.00
Cl46   Cl    0.39162   0.32648   0.07254   0.00000  Uiso   1.00
Cl47   Cl    0.39162   0.32648   0.26079   0.00000  Uiso   1.00
Cl48   Cl    0.10838   0.17352   0.07254   0.00000  Uiso   1.00
Cl49   Cl    0.14162   0.42352   0.07254   0.00000  Uiso   1.00
Cl50   Cl    0.35838   0.07648   0.26079   0.00000  Uiso   1.00
Cl51   Cl    0.35838   0.07648   0.07254   0.00000  Uiso   1.00
Cl52   Cl    0.00000   0.15931   0.28005   0.00000  Uiso   1.00
Cl53   Cl    0.14162   0.42352   0.26079   0.00000  Uiso   1.00
Cl54   Cl    0.35838   0.42352   0.26079   0.00000  Uiso   1.00
Cl55   Cl    0.14162   0.07648   0.07254   0.00000  Uiso   1.00
Cl56   Cl    0.14162   0.07648   0.26079   0.00000  Uiso   1.00
Cl57   Cl    0.35838   0.42352   0.07254   0.00000  Uiso   1.00
Cl58   Cl    0.00000   0.15931   0.05329   0.00000  Uiso   1.00
Cl59   Cl   -0.00000   0.34069   0.28005   0.00000  Uiso   1.00
Cl60   Cl    0.25000   0.09069   0.05329   0.00000  Uiso   1.00
Cl61   Cl    0.25000   0.40931   0.28005   0.00000  Uiso   1.00
Cl62   Cl    0.25000   0.40931   0.05329   0.00000  Uiso   1.00
Cl63   Cl    0.25000   0.09069   0.28005   0.00000  Uiso   1.00
Cl64   Cl    0.39162   0.17352   0.07254   0.00000  Uiso   1.00
N65    N    -0.00000   0.25000   0.28573   0.00000  Uiso   1.00
N66    N    -0.00000   0.25000   0.04760   0.00000  Uiso   1.00
N67    N     0.25000  -0.00000   0.28573   0.00000  Uiso   1.00
N68    N     0.25000  -0.00000   0.04760   0.00000  Uiso   1.00
O69    O     0.04580   0.20419   0.20487   0.00000  Uiso   1.00
O70    O     0.20419   0.04581   0.12846   0.00000  Uiso   1.00
O71    O     0.20419   0.04581   0.20487   0.00000  Uiso   1.00
O72    O     0.29580   0.45419   0.12846   0.00000  Uiso   1.00
O73    O     0.20419   0.45419   0.12846   0.00000  Uiso   1.00
O74    O     0.29580   0.04581   0.20487   0.00000  Uiso   1.00
O75    O     0.29580   0.04581   0.12846   0.00000  Uiso   1.00
O76    O     0.20419   0.45419   0.20487   0.00000  Uiso   1.00
O77    O     0.45419   0.29581   0.12846   0.00000  Uiso   1.00
O78    O     0.45419   0.29581   0.20487   0.00000  Uiso   1.00
O79    O     0.04580   0.20419   0.12846   0.00000  Uiso   1.00
O80    O     0.45419   0.20419   0.12846   0.00000  Uiso   1.00
O81    O     0.04580   0.29581   0.20487   0.00000  Uiso   1.00
O82    O     0.04580   0.29581   0.12846   0.00000  Uiso   1.00
O83    O     0.45419   0.20419   0.20487   0.00000  Uiso   1.00
O84    O     0.29580   0.45419   0.20487   0.00000  Uiso   1.00
Zn85   Zn   -0.00000   0.25000   0.21771   0.00000  Uiso   1.00
Zn86   Zn    0.00000   0.25000   0.11563   0.00000  Uiso   1.00
Zn87   Zn    0.25000  -0.00000   0.21771   0.00000  Uiso   1.00
Zn88   Zn    0.25000  -0.00000   0.11563   0.00000  Uiso   1.00
C89    C     0.56279   0.19296   0.16667   0.00000  Uiso   1.00
C90    C     0.50000   0.21059   0.30932   0.00000  Uiso   1.00
C91    C     0.50000   0.21059   0.02401   0.00000  Uiso   1.00
C92    C     0.50000   0.28941   0.30932   0.00000  Uiso   1.00
C93    C     0.75000   0.03941   0.02401   0.00000  Uiso   1.00
C94    C     0.75000   0.46059   0.30932   0.00000  Uiso   1.00
C95    C     0.75000   0.46059   0.02401   0.00000  Uiso   1.00
C96    C     0.75000   0.03941   0.30932   0.00000  Uiso   1.00
C97    C     0.88649   0.14472   0.12506   0.00000  Uiso   1.00
C98    C     0.61351   0.35528   0.20827   0.00000  Uiso   1.00
C99    C     0.61351   0.35528   0.12506   0.00000  Uiso   1.00
C100   C     0.93721   0.30704   0.16667   0.00000  Uiso   1.00
C101   C     0.88649   0.14472   0.20827   0.00000  Uiso   1.00
C102   C     0.61351   0.14472   0.20827   0.00000  Uiso   1.00
C103   C     0.88649   0.35528   0.12506   0.00000  Uiso   1.00
C104   C     0.88649   0.35528   0.20827   0.00000  Uiso   1.00
C105   C     0.61351   0.14472   0.12506   0.00000  Uiso   1.00
C106   C     0.63649   0.39472   0.12506   0.00000  Uiso   1.00
C107   C     0.86351   0.10528   0.20827   0.00000  Uiso   1.00
C108   C     0.86351   0.10528   0.12506   0.00000  Uiso   1.00
C109   C     0.63649   0.39472   0.20827   0.00000  Uiso   1.00
C110   C     0.86351   0.39472   0.20827   0.00000  Uiso   1.00
C111   C     0.93721   0.19296   0.16667   0.00000  Uiso   1.00
C112   C     0.63649   0.10528   0.12506   0.00000  Uiso   1.00
C113   C     0.63649   0.10528   0.20827   0.00000  Uiso   1.00
C114   C     0.86351   0.39472   0.12506   0.00000  Uiso   1.00
C115   C     0.59864   0.33781   0.16667   0.00000  Uiso   1.00
C116   C     0.90136   0.16219   0.16667   0.00000  Uiso   1.00
C117   C     0.90136   0.33781   0.16667   0.00000  Uiso   1.00
C118   C     0.59864   0.16219   0.16667   0.00000  Uiso   1.00
C119   C     0.84864   0.08781   0.16667   0.00000  Uiso   1.00
C120   C     0.65136   0.41219   0.16667   0.00000  Uiso   1.00
C121   C     0.65136   0.08781   0.16667   0.00000  Uiso   1.00
C122   C     0.56279   0.30704   0.16667   0.00000  Uiso   1.00
C123   C     0.84864   0.41219   0.16667   0.00000  Uiso   1.00
C124   C     0.81279   0.44296   0.16667   0.00000  Uiso   1.00
C125   C     0.68721   0.05704   0.16667   0.00000  Uiso   1.00
C126   C     0.68721   0.44296   0.16667   0.00000  Uiso   1.00
C127   C     0.81279   0.05704   0.16667   0.00000  Uiso   1.00
C128   C     0.50000   0.28941   0.02401   0.00000  Uiso   1.00
Cl129  Cl    0.50000   0.34069   0.05329   0.00000  Uiso   1.00
Cl130  Cl    0.60838   0.32648   0.26079   0.00000  Uiso   1.00
Cl131  Cl    0.60838   0.32648   0.07254   0.00000  Uiso   1.00
Cl132  Cl    0.89162   0.17352   0.26079   0.00000  Uiso   1.00
Cl133  Cl    0.60838   0.17352   0.26079   0.00000  Uiso   1.00
Cl134  Cl    0.89162   0.32648   0.07254   0.00000  Uiso   1.00
Cl135  Cl    0.89162   0.32648   0.26079   0.00000  Uiso   1.00
Cl136  Cl    0.60838   0.17352   0.07254   0.00000  Uiso   1.00
Cl137  Cl    0.64162   0.42352   0.07254   0.00000  Uiso   1.00
Cl138  Cl    0.85838   0.07648   0.26079   0.00000  Uiso   1.00
Cl139  Cl    0.85838   0.07648   0.07254   0.00000  Uiso   1.00
Cl140  Cl    0.50000   0.15931   0.28005   0.00000  Uiso   1.00
Cl141  Cl    0.64162   0.42352   0.26079   0.00000  Uiso   1.00
Cl142  Cl    0.85838   0.42352   0.26079   0.00000  Uiso   1.00
Cl143  Cl    0.64162   0.07648   0.07254   0.00000  Uiso   1.00
Cl144  Cl    0.64162   0.07648   0.26079   0.00000  Uiso   1.00
Cl145  Cl    0.85838   0.42352   0.07254   0.00000  Uiso   1.00
Cl146  Cl    0.50000   0.15931   0.05329   0.00000  Uiso   1.00
Cl147  Cl    0.50000   0.34069   0.28005   0.00000  Uiso   1.00
Cl148  Cl    0.75000   0.09069   0.05329   0.00000  Uiso   1.00
Cl149  Cl    0.75000   0.40931   0.28005   0.00000  Uiso   1.00
Cl150  Cl    0.75000   0.40931   0.05329   0.00000  Uiso   1.00
Cl151  Cl    0.75000   0.09069   0.28005   0.00000  Uiso   1.00
Cl152  Cl    0.89162   0.17352   0.07254   0.00000  Uiso   1.00
N153   N     0.50000   0.25000   0.28573   0.00000  Uiso   1.00
N154   N     0.50000   0.25000   0.04760   0.00000  Uiso   1.00
N155   N     0.75000  -0.00000   0.28573   0.00000  Uiso   1.00
N156   N     0.75000  -0.00000   0.04760   0.00000  Uiso   1.00
O157   O     0.54580   0.20419   0.20487   0.00000  Uiso   1.00
O158   O     0.70419   0.04581   0.12846   0.00000  Uiso   1.00
O159   O     0.70419   0.04581   0.20487   0.00000  Uiso   1.00
O160   O     0.79580   0.45419   0.12846   0.00000  Uiso   1.00
O161   O     0.70419   0.45419   0.12846   0.00000  Uiso   1.00
O162   O     0.79580   0.04581   0.20487   0.00000  Uiso   1.00
O163   O     0.79580   0.04581   0.12846   0.00000  Uiso   1.00
O164   O     0.70419   0.45419   0.20487   0.00000  Uiso   1.00
O165   O     0.95419   0.29581   0.12846   0.00000  Uiso   1.00
O166   O     0.95419   0.29581   0.20487   0.00000  Uiso   1.00
O167   O     0.54580   0.20419   0.12846   0.00000  Uiso   1.00
O168   O     0.95419   0.20419   0.12846   0.00000  Uiso   1.00
O169   O     0.54580   0.29581   0.20487   0.00000  Uiso   1.00
O170   O     0.54580   0.29581   0.12846   0.00000  Uiso   1.00
O171   O     0.95419   0.20419   0.20487   0.00000  Uiso   1.00
O172   O     0.79580   0.45419   0.20487   0.00000  Uiso   1.00
Zn173  Zn    0.50000   0.25000   0.21771   0.00000  Uiso   1.00
Zn174  Zn    0.50000   0.25000   0.11563   0.00000  Uiso   1.00
Zn175  Zn    0.75000  -0.00000   0.21771   0.00000  Uiso   1.00
Zn176  Zn    0.75000  -0.00000   0.11563   0.00000  Uiso   1.00
C177   C     0.06279   0.69296   0.16667   0.00000  Uiso   1.00
C178   C     0.00000   0.71059   0.30932   0.00000  Uiso   1.00
C179   C    -0.00000   0.71059   0.02401   0.00000  Uiso   1.00
C180   C    -0.00000   0.78941   0.30932   0.00000  Uiso   1.00
C181   C     0.25000   0.53941   0.02401   0.00000  Uiso   1.00
C182   C     0.25000   0.96059   0.30932   0.00000  Uiso   1.00
C183   C     0.25000   0.96059   0.02401   0.00000  Uiso   1.00
C184   C     0.25000   0.53941   0.30932   0.00000  Uiso   1.00
C185   C     0.38649   0.64472   0.12506   0.00000  Uiso   1.00
C186   C     0.11351   0.85528   0.20827   0.00000  Uiso   1.00
C187   C     0.11351   0.85528   0.12506   0.00000  Uiso   1.00
C188   C     0.43721   0.80704   0.16667   0.00000  Uiso   1.00
C189   C     0.38649   0.64472   0.20827   0.00000  Uiso   1.00
C190   C     0.11351   0.64472   0.20827   0.00000  Uiso   1.00
C191   C     0.38649   0.85528   0.12506   0.00000  Uiso   1.00
C192   C     0.38649   0.85528   0.20827   0.00000  Uiso   1.00
C193   C     0.11351   0.64472   0.12506   0.00000  Uiso   1.00
C194   C     0.13649   0.89472   0.12506   0.00000  Uiso   1.00
C195   C     0.36351   0.60528   0.20827   0.00000  Uiso   1.00
C196   C     0.36351   0.60528   0.12506   0.00000  Uiso   1.00
C197   C     0.13649   0.89472   0.20827   0.00000  Uiso   1.00
C198   C     0.36351   0.89472   0.20827   0.00000  Uiso   1.00
C199   C     0.43721   0.69296   0.16667   0.00000  Uiso   1.00
C200   C     0.13649   0.60528   0.12506   0.00000  Uiso   1.00
C201   C     0.13649   0.60528   0.20827   0.00000  Uiso   1.00
C202   C     0.36351   0.89472   0.12506   0.00000  Uiso   1.00
C203   C     0.09864   0.83781   0.16667   0.00000  Uiso   1.00
C204   C     0.40136   0.66219   0.16667   0.00000  Uiso   1.00
C205   C     0.40136   0.83781   0.16667   0.00000  Uiso   1.00
C206   C     0.09864   0.66219   0.16667   0.00000  Uiso   1.00
C207   C     0.34864   0.58781   0.16667   0.00000  Uiso   1.00
C208   C     0.15136   0.91219   0.16667   0.00000  Uiso   1.00
C209   C     0.15136   0.58781   0.16667   0.00000  Uiso   1.00
C210   C     0.06279   0.80704   0.16667   0.00000  Uiso   1.00
C211   C     0.34864   0.91219   0.16667   0.00000  Uiso   1.00
C212   C     0.31279   0.94296   0.16667   0.00000  Uiso   1.00
C213   C     0.18721   0.55704   0.16667   0.00000  Uiso   1.00
C214   C     0.18721   0.94296   0.16667   0.00000  Uiso   1.00
C215   C     0.31279   0.55704   0.16667   0.00000  Uiso   1.00
C216   C    -0.00000   0.78941   0.02401   0.00000  Uiso   1.00
Cl217  Cl   -0.00000   0.84069   0.05329   0.00000  Uiso   1.00
Cl218  Cl    0.10838   0.82648   0.26079   0.00000  Uiso   1.00
Cl219  Cl    0.10838   0.82648   0.07254   0.00000  Uiso   1.00
Cl220  Cl    0.39162   0.67352   0.26079   0.00000  Uiso   1.00
Cl221  Cl    0.10838   0.67352   0.26079   0.00000  Uiso   1.00
Cl222  Cl    0.39162   0.82648   0.07254   0.00000  Uiso   1.00
Cl223  Cl    0.39162   0.82648   0.26079   0.00000  Uiso   1.00
Cl224  Cl    0.10838   0.67352   0.07254   0.00000  Uiso   1.00
Cl225  Cl    0.14162   0.92352   0.07254   0.00000  Uiso   1.00
Cl226  Cl    0.35838   0.57648   0.26079   0.00000  Uiso   1.00
Cl227  Cl    0.35838   0.57648   0.07254   0.00000  Uiso   1.00
Cl228  Cl    0.00000   0.65931   0.28005   0.00000  Uiso   1.00
Cl229  Cl    0.14162   0.92352   0.26079   0.00000  Uiso   1.00
Cl230  Cl    0.35838   0.92352   0.26079   0.00000  Uiso   1.00
Cl231  Cl    0.14162   0.57648   0.07254   0.00000  Uiso   1.00
Cl232  Cl    0.14162   0.57648   0.26079   0.00000  Uiso   1.00
Cl233  Cl    0.35838   0.92352   0.07254   0.00000  Uiso   1.00
Cl234  Cl    0.00000   0.65931   0.05329   0.00000  Uiso   1.00
Cl235  Cl   -0.00000   0.84069   0.28005   0.00000  Uiso   1.00
Cl236  Cl    0.25000   0.59069   0.05329   0.00000  Uiso   1.00
Cl237  Cl    0.25000   0.90931   0.28005   0.00000  Uiso   1.00
Cl238  Cl    0.25000   0.90931   0.05329   0.00000  Uiso   1.00
Cl239  Cl    0.25000   0.59069   0.28005   0.00000  Uiso   1.00
Cl240  Cl    0.39162   0.67352   0.07254   0.00000  Uiso   1.00
N241   N    -0.00000   0.75000   0.28573   0.00000  Uiso   1.00
N242   N    -0.00000   0.75000   0.04760   0.00000  Uiso   1.00
N243   N     0.25000   0.50000   0.28573   0.00000  Uiso   1.00
N244   N     0.25000   0.50000   0.04760   0.00000  Uiso   1.00
O245   O     0.04580   0.70419   0.20487   0.00000  Uiso   1.00
O246   O     0.20419   0.54581   0.12846   0.00000  Uiso   1.00
O247   O     0.20419   0.54581   0.20487   0.00000  Uiso   1.00
O248   O     0.29580   0.95419   0.12846   0.00000  Uiso   1.00
O249   O     0.20419   0.95419   0.12846   0.00000  Uiso   1.00
O250   O     0.29580   0.54581   0.20487   0.00000  Uiso   1.00
O251   O     0.29580   0.54581   0.12846   0.00000  Uiso   1.00
O252   O     0.20419   0.95419   0.20487   0.00000  Uiso   1.00
O253   O     0.45419   0.79581   0.12846   0.00000  Uiso   1.00
O254   O     0.45419   0.79581   0.20487   0.00000  Uiso   1.00
O255   O     0.04580   0.70419   0.12846   0.00000  Uiso   1.00
O256   O     0.45419   0.70419   0.12846   0.00000  Uiso   1.00
O257   O     0.04580   0.79581   0.20487   0.00000  Uiso   1.00
O258   O     0.04580   0.79581   0.12846   0.00000  Uiso   1.00
O259   O     0.45419   0.70419   0.20487   0.00000  Uiso   1.00
O260   O     0.29580   0.95419   0.20487   0.00000  Uiso   1.00
Zn261  Zn   -0.00000   0.75000   0.21771   0.00000  Uiso   1.00
Zn262  Zn    0.00000   0.75000   0.11563   0.00000  Uiso   1.00
Zn263  Zn    0.25000   0.50000   0.21771   0.00000  Uiso   1.00
Zn264  Zn    0.25000   0.50000   0.11563   0.00000  Uiso   1.00
C265   C     0.56279   0.69296   0.16667   0.00000  Uiso   1.00
C266   C     0.50000   0.71059   0.30932   0.00000  Uiso   1.00
C267   C     0.50000   0.71059   0.02401   0.00000  Uiso   1.00
C268   C     0.50000   0.78941   0.30932   0.00000  Uiso   1.00
C269   C     0.75000   0.53941   0.02401   0.00000  Uiso   1.00
C270   C     0.75000   0.96059   0.30932   0.00000  Uiso   1.00
C271   C     0.75000   0.96059   0.02401   0.00000  Uiso   1.00
C272   C     0.75000   0.53941   0.30932   0.00000  Uiso   1.00
C273   C     0.88649   0.64472   0.12506   0.00000  Uiso   1.00
C274   C     0.61351   0.85528   0.20827   0.00000  Uiso   1.00
C275   C     0.61351   0.85528   0.12506   0.00000  Uiso   1.00
C276   C     0.93721   0.80704   0.16667   0.00000  Uiso   1.00
C277   C     0.88649   0.64472   0.20827   0.00000  Uiso   1.00
C278   C     0.61351   0.64472   0.20827   0.00000  Uiso   1.00
C279   C     0.88649   0.85528   0.12506   0.00000  Uiso   1.00
C280   C     0.88649   0.85528   0.20827   0.00000  Uiso   1.00
C281   C     0.61351   0.64472   0.12506   0.00000  Uiso   1.00
C282   C     0.63649   0.89472   0.12506   0.00000  Uiso   1.00
C283   C     0.86351   0.60528   0.20827   0.00000  Uiso   1.00
C284   C     0.86351   0.60528   0.12506   0.00000  Uiso   1.00
C285   C     0.63649   0.89472   0.20827   0.00000  Uiso   1.00
C286   C     0.86351   0.89472   0.20827   0.00000  Uiso   1.00
C287   C     0.93721   0.69296   0.16667   0.00000  Uiso   1.00
C288   C     0.63649   0.60528   0.12506   0.00000  Uiso   1.00
C289   C     0.63649   0.60528   0.20827   0.00000  Uiso   1.00
C290   C     0.86351   0.89472   0.12506   0.00000  Uiso   1.00
C291   C     0.59864   0.83781   0.16667   0.00000  Uiso   1.00
C292   C     0.90136   0.66219   0.16667   0.00000  Uiso   1.00
C293   C     0.90136   0.83781   0.16667   0.00000  Uiso   1.00
C294   C     0.59864   0.66219   0.16667   0.00000  Uiso   1.00
C295   C     0.84864   0.58781   0.16667   0.00000  Uiso   1.00
C296   C     0.65136   0.91219   0.16667   0.00000  Uiso   1.00
C297   C     0.65136   0.58781   0.16667   0.00000  Uiso   1.00
C298   C     0.56279   0.80704   0.16667   0.00000  Uiso   1.00
C299   C     0.84864   0.91219   0.16667   0.00000  Uiso   1.00
C300   C     0.81279   0.94296   0.16667   0.00000  Uiso   1.00
C301   C     0.68721   0.55704   0.16667   0.00000  Uiso   1.00
C302   C     0.68721   0.94296   0.16667   0.00000  Uiso   1.00
C303   C     0.81279   0.55704   0.16667   0.00000  Uiso   1.00
C304   C     0.50000   0.78941   0.02401   0.00000  Uiso   1.00
Cl305  Cl    0.50000   0.84069   0.05329   0.00000  Uiso   1.00
Cl306  Cl    0.60838   0.82648   0.26079   0.00000  Uiso   1.00
Cl307  Cl    0.60838   0.82648   0.07254   0.00000  Uiso   1.00
Cl308  Cl    0.89162   0.67352   0.26079   0.00000  Uiso   1.00
Cl309  Cl    0.60838   0.67352   0.26079   0.00000  Uiso   1.00
Cl310  Cl    0.89162   0.82648   0.07254   0.00000  Uiso   1.00
Cl311  Cl    0.89162   0.82648   0.26079   0.00000  Uiso   1.00
Cl312  Cl    0.60838   0.67352   0.07254   0.00000  Uiso   1.00
Cl313  Cl    0.64162   0.92352   0.07254   0.00000  Uiso   1.00
Cl314  Cl    0.85838   0.57648   0.26079   0.00000  Uiso   1.00
Cl315  Cl    0.85838   0.57648   0.07254   0.00000  Uiso   1.00
Cl316  Cl    0.50000   0.65931   0.28005   0.00000  Uiso   1.00
Cl317  Cl    0.64162   0.92352   0.26079   0.00000  Uiso   1.00
Cl318  Cl    0.85838   0.92352   0.26079   0.00000  Uiso   1.00
Cl319  Cl    0.64162   0.57648   0.07254   0.00000  Uiso   1.00
Cl320  Cl    0.64162   0.57648   0.26079   0.00000  Uiso   1.00
Cl321  Cl    0.85838   0.92352   0.07254   0.00000  Uiso   1.00
Cl322  Cl    0.50000   0.65931   0.05329   0.00000  Uiso   1.00
Cl323  Cl    0.50000   0.84069   0.28005   0.00000  Uiso   1.00
Cl324  Cl    0.75000   0.59069   0.05329   0.00000  Uiso   1.00
Cl325  Cl    0.75000   0.90931   0.28005   0.00000  Uiso   1.00
Cl326  Cl    0.75000   0.90931   0.05329   0.00000  Uiso   1.00
Cl327  Cl    0.75000   0.59069   0.28005   0.00000  Uiso   1.00
Cl328  Cl    0.89162   0.67352   0.07254   0.00000  Uiso   1.00
N329   N     0.50000   0.75000   0.28573   0.00000  Uiso   1.00
N330   N     0.50000   0.75000   0.04760   0.00000  Uiso   1.00
N331   N     0.75000   0.50000   0.28573   0.00000  Uiso   1.00
N332   N     0.75000   0.50000   0.04760   0.00000  Uiso   1.00
O333   O     0.54580   0.70419   0.20487   0.00000  Uiso   1.00
O334   O     0.70419   0.54581   0.12846   0.00000  Uiso   1.00
O335   O     0.70419   0.54581   0.20487   0.00000  Uiso   1.00
O336   O     0.79580   0.95419   0.12846   0.00000  Uiso   1.00
O337   O     0.70419   0.95419   0.12846   0.00000  Uiso   1.00
O338   O     0.79580   0.54581   0.20487   0.00000  Uiso   1.00
O339   O     0.79580   0.54581   0.12846   0.00000  Uiso   1.00
O340   O     0.70419   0.95419   0.20487   0.00000  Uiso   1.00
O341   O     0.95419   0.79581   0.12846   0.00000  Uiso   1.00
O342   O     0.95419   0.79581   0.20487   0.00000  Uiso   1.00
O343   O     0.54580   0.70419   0.12846   0.00000  Uiso   1.00
O344   O     0.95419   0.70419   0.12846   0.00000  Uiso   1.00
O345   O     0.54580   0.79581   0.20487   0.00000  Uiso   1.00
O346   O     0.54580   0.79581   0.12846   0.00000  Uiso   1.00
O347   O     0.95419   0.70419   0.20487   0.00000  Uiso   1.00
O348   O     0.79580   0.95419   0.20487   0.00000  Uiso   1.00
Zn349  Zn    0.50000   0.75000   0.21771   0.00000  Uiso   1.00
Zn350  Zn    0.50000   0.75000   0.11563   0.00000  Uiso   1.00
Zn351  Zn    0.75000   0.50000   0.21771   0.00000  Uiso   1.00
Zn352  Zn    0.75000   0.50000   0.11563   0.00000  Uiso   1.00
C353   C     0.06279   0.19296   0.50000   0.00000  Uiso   1.00
C354   C     0.00000   0.21059   0.64266   0.00000  Uiso   1.00
C355   C    -0.00000   0.21059   0.35734   0.00000  Uiso   1.00
C356   C    -0.00000   0.28941   0.64266   0.00000  Uiso   1.00
C357   C     0.25000   0.03941   0.35734   0.00000  Uiso   1.00
C358   C     0.25000   0.46059   0.64266   0.00000  Uiso   1.00
C359   C     0.25000   0.46059   0.35734   0.00000  Uiso   1.00
C360   C     0.25000   0.03941   0.64266   0.00000  Uiso   1.00
C361   C     0.38649   0.14472   0.45840   0.00000  Uiso   1.00
C362   C     0.11351   0.35528   0.54160   0.00000  Uiso   1.00
C363   C     0.11351   0.35528   0.45839   0.00000  Uiso   1.00
C364   C     0.43721   0.30704   0.50000   0.00000  Uiso   1.00
C365   C     0.38649   0.14472   0.54161   0.00000  Uiso   1.00
C366   C     0.11351   0.14472   0.54161   0.00000  Uiso   1.00
C367   C     0.38649   0.35528   0.45839   0.00000  Uiso   1.00
C368   C     0.38649   0.35528   0.54161   0.00000  Uiso   1.00
C369   C     0.11351   0.14472   0.45840   0.00000  Uiso   1.00
C370   C     0.13649   0.39472   0.45839   0.00000  Uiso   1.00
C371   C     0.36351   0.10528   0.54161   0.00000  Uiso   1.00
C372   C     0.36351   0.10528   0.45840   0.00000  Uiso   1.00
C373   C     0.13649   0.39472   0.54160   0.00000  Uiso   1.00
C374   C     0.36351   0.39472   0.54160   0.00000  Uiso   1.00
C375   C     0.43721   0.19296   0.50000   0.00000  Uiso   1.00
C376   C     0.13649   0.10528   0.45840   0.00000  Uiso   1.00
C377   C     0.13649   0.10528   0.54161   0.00000  Uiso   1.00
C378   C     0.36351   0.39472   0.45839   0.00000  Uiso   1.00
C379   C     0.09864   0.33781   0.50000   0.00000  Uiso   1.00
C380   C     0.40136   0.16219   0.50000   0.00000  Uiso   1.00
C381   C     0.40136   0.33781   0.50000   0.00000  Uiso   1.00
C382   C     0.09864   0.16219   0.50000   0.00000  Uiso   1.00
C383   C     0.34864   0.08781   0.50000   0.00000  Uiso   1.00
C384   C     0.15136   0.41219   0.50000   0.00000  Uiso   1.00
C385   C     0.15136   0.08781   0.50000   0.00000  Uiso   1.00
C386   C     0.06279   0.30704   0.50000   0.00000  Uiso   1.00
C387   C     0.34864   0.41219   0.50000   0.00000  Uiso   1.00
C388   C     0.31279   0.44296   0.50000   0.00000  Uiso   1.00
C389   C     0.18721   0.05704   0.50000   0.00000  Uiso   1.00
C390   C     0.18721   0.44296   0.50000   0.00000  Uiso   1.00
C391   C     0.31279   0.05704   0.50000   0.00000  Uiso   1.00
C392   C    -0.00000   0.28941   0.35734   0.00000  Uiso   1.00
Cl393  Cl   -0.00000   0.34069   0.38662   0.00000  Uiso   1.00
Cl394  Cl    0.10838   0.32648   0.59413   0.00000  Uiso   1.00
Cl395  Cl    0.10838   0.32648   0.40587   0.00000  Uiso   1.00
Cl396  Cl    0.39162   0.17352   0.59413   0.00000  Uiso   1.00
Cl397  Cl    0.10838   0.17352   0.59413   0.00000  Uiso   1.00
Cl398  Cl    0.39162   0.32648   0.40587   0.00000  Uiso   1.00
Cl399  Cl    0.39162   0.32648   0.59413   0.00000  Uiso   1.00
Cl400  Cl    0.10838   0.17352   0.40587   0.00000  Uiso   1.00
Cl401  Cl    0.14162   0.42352   0.40587   0.00000  Uiso   1.00
Cl402  Cl    0.35838   0.07648   0.59413   0.00000  Uiso   1.00
Cl403  Cl    0.35838   0.07648   0.40587   0.00000  Uiso   1.00
Cl404  Cl    0.00000   0.15931   0.61338   0.00000  Uiso   1.00
Cl405  Cl    0.14162   0.42352   0.59413   0.00000  Uiso   1.00
Cl406  Cl    0.35838   0.42352   0.59413   0.00000  Uiso   1.00
Cl407  Cl    0.14162   0.07648   0.40587   0.00000  Uiso   1.00
Cl408  Cl    0.14162   0.07648   0.59413   0.00000  Uiso   1.00
Cl409  Cl    0.35838   0.42352   0.40587   0.00000  Uiso   1.00
Cl410  Cl    0.00000   0.15931   0.38662   0.00000  Uiso   1.00
Cl411  Cl   -0.00000   0.34069   0.61338   0.00000  Uiso   1.00
Cl412  Cl    0.25000   0.09069   0.38662   0.00000  Uiso   1.00
Cl413  Cl    0.25000   0.40931   0.61338   0.00000  Uiso   1.00
Cl414  Cl    0.25000   0.40931   0.38662   0.00000  Uiso   1.00
Cl415  Cl    0.25000   0.09069   0.61338   0.00000  Uiso   1.00
Cl416  Cl    0.39162   0.17352   0.40587   0.00000  Uiso   1.00
N417   N    -0.00000   0.25000   0.61907   0.00000  Uiso   1.00
N418   N    -0.00000   0.25000   0.38093   0.00000  Uiso   1.00
N419   N     0.25000  -0.00000   0.61907   0.00000  Uiso   1.00
N420   N     0.25000  -0.00000   0.38093   0.00000  Uiso   1.00
O421   O     0.04580   0.20419   0.53821   0.00000  Uiso   1.00
O422   O     0.20419   0.04581   0.46179   0.00000  Uiso   1.00
O423   O     0.20419   0.04581   0.53821   0.00000  Uiso   1.00
O424   O     0.29580   0.45419   0.46179   0.00000  Uiso   1.00
O425   O     0.20419   0.45419   0.46179   0.00000  Uiso   1.00
O426   O     0.29580   0.04581   0.53821   0.00000  Uiso   1.00
O427   O     0.29580   0.04581   0.46179   0.00000  Uiso   1.00
O428   O     0.20419   0.45419   0.53821   0.00000  Uiso   1.00
O429   O     0.45419   0.29581   0.46179   0.00000  Uiso   1.00
O430   O     0.45419   0.29581   0.53821   0.00000  Uiso   1.00
O431   O     0.04580   0.20419   0.46179   0.00000  Uiso   1.00
O432   O     0.45419   0.20419   0.46179   0.00000  Uiso   1.00
O433   O     0.04580   0.29581   0.53821   0.00000  Uiso   1.00
O434   O     0.04580   0.29581   0.46179   0.00000  Uiso   1.00
O435   O     0.45419   0.20419   0.53821   0.00000  Uiso   1.00
O436   O     0.29580   0.45419   0.53821   0.00000  Uiso   1.00
Zn437  Zn   -0.00000   0.25000   0.55104   0.00000  Uiso   1.00
Zn438  Zn    0.00000   0.25000   0.44896   0.00000  Uiso   1.00
Zn439  Zn    0.25000  -0.00000   0.55104   0.00000  Uiso   1.00
Zn440  Zn    0.25000  -0.00000   0.44896   0.00000  Uiso   1.00
C441   C     0.56279   0.19296   0.50000   0.00000  Uiso   1.00
C442   C     0.50000   0.21059   0.64266   0.00000  Uiso   1.00
C443   C     0.50000   0.21059   0.35734   0.00000  Uiso   1.00
C444   C     0.50000   0.28941   0.64266   0.00000  Uiso   1.00
C445   C     0.75000   0.03941   0.35734   0.00000  Uiso   1.00
C446   C     0.75000   0.46059   0.64266   0.00000  Uiso   1.00
C447   C     0.75000   0.46059   0.35734   0.00000  Uiso   1.00
C448   C     0.75000   0.03941   0.64266   0.00000  Uiso   1.00
C449   C     0.88649   0.14472   0.45840   0.00000  Uiso   1.00
C450   C     0.61351   0.35528   0.54160   0.00000  Uiso   1.00
C451   C     0.61351   0.35528   0.45839   0.00000  Uiso   1.00
C452   C     0.93721   0.30704   0.50000   0.00000  Uiso   1.00
C453   C     0.88649   0.14472   0.54161   0.00000  Uiso   1.00
C454   C     0.61351   0.14472   0.54161   0.00000  Uiso   1.00
C455   C     0.88649   0.35528   0.45839   0.00000  Uiso   1.00
C456   C     0.88649   0.35528   0.54161   0.00000  Uiso   1.00
C457   C     0.61351   0.14472   0.45840   0.00000  Uiso   1.00
C458   C     0.63649   0.39472   0.45839   0.00000  Uiso   1.00
C459   C     0.86351   0.10528   0.54161   0.00000  Uiso   1.00
C460   C     0.86351   0.10528   0.45840   0.00000  Uiso   1.00
C461   C     0.63649   0.39472   0.54160   0.00000  Uiso   1.00
C462   C     0.86351   0.39472   0.54160   0.00000  Uiso   1.00
C463   C     0.93721   0.19296   0.50000   0.00000  Uiso   1.00
C464   C     0.63649   0.10528   0.45840   0.00000  Uiso   1.00
C465   C     0.63649   0.10528   0.54161   0.00000  Uiso   1.00
C466   C     0.86351   0.39472   0.45839   0.00000  Uiso   1.00
C467   C     0.59864   0.33781   0.50000   0.00000  Uiso   1.00
C468   C     0.90136   0.16219   0.50000   0.00000  Uiso   1.00
C469   C     0.90136   0.33781   0.50000   0.00000  Uiso   1.00
C470   C     0.59864   0.16219   0.50000   0.00000  Uiso   1.00
C471   C     0.84864   0.08781   0.50000   0.00000  Uiso   1.00
C472   C     0.65136   0.41219   0.50000   0.00000  Uiso   1.00
C473   C     0.65136   0.08781   0.50000   0.00000  Uiso   1.00
C474   C     0.56279   0.30704   0.50000   0.00000  Uiso   1.00
C475   C     0.84864   0.41219   0.50000   0.00000  Uiso   1.00
C476   C     0.81279   0.44296   0.50000   0.00000  Uiso   1.00
C477   C     0.68721   0.05704   0.50000   0.00000  Uiso   1.00
C478   C     0.68721   0.44296   0.50000   0.00000  Uiso   1.00
C479   C     0.81279   0.05704   0.50000   0.00000  Uiso   1.00
C480   C     0.50000   0.28941   0.35734   0.00000  Uiso   1.00
Cl481  Cl    0.50000   0.34069   0.38662   0.00000  Uiso   1.00
Cl482  Cl    0.60838   0.32648   0.59413   0.00000  Uiso   1.00
Cl483  Cl    0.60838   0.32648   0.40587   0.00000  Uiso   1.00
Cl484  Cl    0.89162   0.17352   0.59413   0.00000  Uiso   1.00
Cl485  Cl    0.60838   0.17352   0.59413   0.00000  Uiso   1.00
Cl486  Cl    0.89162   0.32648   0.40587   0.00000  Uiso   1.00
Cl487  Cl    0.89162   0.32648   0.59413   0.00000  Uiso   1.00
Cl488  Cl    0.60838   0.17352   0.40587   0.00000  Uiso   1.00
Cl489  Cl    0.64162   0.42352   0.40587   0.00000  Uiso   1.00
Cl490  Cl    0.85838   0.07648   0.59413   0.00000  Uiso   1.00
Cl491  Cl    0.85838   0.07648   0.40587   0.00000  Uiso   1.00
Cl492  Cl    0.50000   0.15931   0.61338   0.00000  Uiso   1.00
Cl493  Cl    0.64162   0.42352   0.59413   0.00000  Uiso   1.00
Cl494  Cl    0.85838   0.42352   0.59413   0.00000  Uiso   1.00
Cl495  Cl    0.64162   0.07648   0.40587   0.00000  Uiso   1.00
Cl496  Cl    0.64162   0.07648   0.59413   0.00000  Uiso   1.00
Cl497  Cl    0.85838   0.42352   0.40587   0.00000  Uiso   1.00
Cl498  Cl    0.50000   0.15931   0.38662   0.00000  Uiso   1.00
Cl499  Cl    0.50000   0.34069   0.61338   0.00000  Uiso   1.00
Cl500  Cl    0.75000   0.09069   0.38662   0.00000  Uiso   1.00
Cl501  Cl    0.75000   0.40931   0.61338   0.00000  Uiso   1.00
Cl502  Cl    0.75000   0.40931   0.38662   0.00000  Uiso   1.00
Cl503  Cl    0.75000   0.09069   0.61338   0.00000  Uiso   1.00
Cl504  Cl    0.89162   0.17352   0.40587   0.00000  Uiso   1.00
N505   N     0.50000   0.25000   0.61907   0.00000  Uiso   1.00
N506   N     0.50000   0.25000   0.38093   0.00000  Uiso   1.00
N507   N     0.75000  -0.00000   0.61907   0.00000  Uiso   1.00
N508   N     0.75000  -0.00000   0.38093   0.00000  Uiso   1.00
O509   O     0.54580   0.20419   0.53821   0.00000  Uiso   1.00
O510   O     0.70419   0.04581   0.46179   0.00000  Uiso   1.00
O511   O     0.70419   0.04581   0.53821   0.00000  Uiso   1.00
O512   O     0.79580   0.45419   0.46179   0.00000  Uiso   1.00
O513   O     0.70419   0.45419   0.46179   0.00000  Uiso   1.00
O514   O     0.79580   0.04581   0.53821   0.00000  Uiso   1.00
O515   O     0.79580   0.04581   0.46179   0.00000  Uiso   1.00
O516   O     0.70419   0.45419   0.53821   0.00000  Uiso   1.00
O517   O     0.95419   0.29581   0.46179   0.00000  Uiso   1.00
O518   O     0.95419   0.29581   0.53821   0.00000  Uiso   1.00
O519   O     0.54580   0.20419   0.46179   0.00000  Uiso   1.00
O520   O     0.95419   0.20419   0.46179   0.00000  Uiso   1.00
O521   O     0.54580   0.29581   0.53821   0.00000  Uiso   1.00
O522   O     0.54580   0.29581   0.46179   0.00000  Uiso   1.00
O523   O     0.95419   0.20419   0.53821   0.00000  Uiso   1.00
O524   O     0.79580   0.45419   0.53821   0.00000  Uiso   1.00
Zn525  Zn    0.50000   0.25000   0.55104   0.00000  Uiso   1.00
Zn526  Zn    0.50000   0.25000   0.44896   0.00000  Uiso   1.00
Zn527  Zn    0.75000  -0.00000   0.55104   0.00000  Uiso   1.00
Zn528  Zn    0.75000  -0.00000   0.44896   0.00000  Uiso   1.00
C529   C     0.06279   0.69296   0.50000   0.00000  Uiso   1.00
C530   C     0.00000   0.71059   0.64266   0.00000  Uiso   1.00
C531   C    -0.00000   0.71059   0.35734   0.00000  Uiso   1.00
C532   C    -0.00000   0.78941   0.64266   0.00000  Uiso   1.00
C533   C     0.25000   0.53941   0.35734   0.00000  Uiso   1.00
C534   C     0.25000   0.96059   0.64266   0.00000  Uiso   1.00
C535   C     0.25000   0.96059   0.35734   0.00000  Uiso   1.00
C536   C     0.25000   0.53941   0.64266   0.00000  Uiso   1.00
C537   C     0.38649   0.64472   0.45840   0.00000  Uiso   1.00
C538   C     0.11351   0.85528   0.54160   0.00000  Uiso   1.00
C539   C     0.11351   0.85528   0.45839   0.00000  Uiso   1.00
C540   C     0.43721   0.80704   0.50000   0.00000  Uiso   1.00
C541   C     0.38649   0.64472   0.54161   0.00000  Uiso   1.00
C542   C     0.11351   0.64472   0.54161   0.00000  Uiso   1.00
C543   C     0.38649   0.85528   0.45839   0.00000  Uiso   1.00
C544   C     0.38649   0.85528   0.54161   0.00000  Uiso   1.00
C545   C     0.11351   0.64472   0.45840   0.00000  Uiso   1.00
C546   C     0.13649   0.89472   0.45839   0.00000  Uiso   1.00
C547   C     0.36351   0.60528   0.54161   0.00000  Uiso   1.00
C548   C     0.36351   0.60528   0.45840   0.00000  Uiso   1.00
C549   C     0.13649   0.89472   0.54160   0.00000  Uiso   1.00
C550   C     0.36351   0.89472   0.54160   0.00000  Uiso   1.00
C551   C     0.43721   0.69296   0.50000   0.00000  Uiso   1.00
C552   C     0.13649   0.60528   0.45840   0.00000  Uiso   1.00
C553   C     0.13649   0.60528   0.54161   0.00000  Uiso   1.00
C554   C     0.36351   0.89472   0.45839   0.00000  Uiso   1.00
C555   C     0.09864   0.83781   0.50000   0.00000  Uiso   1.00
C556   C     0.40136   0.66219   0.50000   0.00000  Uiso   1.00
C557   C     0.40136   0.83781   0.50000   0.00000  Uiso   1.00
C558   C     0.09864   0.66219   0.50000   0.00000  Uiso   1.00
C559   C     0.34864   0.58781   0.50000   0.00000  Uiso   1.00
C560   C     0.15136   0.91219   0.50000   0.00000  Uiso   1.00
C561   C     0.15136   0.58781   0.50000   0.00000  Uiso   1.00
C562   C     0.06279   0.80704   0.50000   0.00000  Uiso   1.00
C563   C     0.34864   0.91219   0.50000   0.00000  Uiso   1.00
C564   C     0.31279   0.94296   0.50000   0.00000  Uiso   1.00
C565   C     0.18721   0.55704   0.50000   0.00000  Uiso   1.00
C566   C     0.18721   0.94296   0.50000   0.00000  Uiso   1.00
C567   C     0.31279   0.55704   0.50000   0.00000  Uiso   1.00
C568   C    -0.00000   0.78941   0.35734   0.00000  Uiso   1.00
Cl569  Cl   -0.00000   0.84069   0.38662   0.00000  Uiso   1.00
Cl570  Cl    0.10838   0.82648   0.59413   0.00000  Uiso   1.00
Cl571  Cl    0.10838   0.82648   0.40587   0.00000  Uiso   1.00
Cl572  Cl    0.39162   0.67352   0.59413   0.00000  Uiso   1.00
Cl573  Cl    0.10838   0.67352   0.59413   0.00000  Uiso   1.00
Cl574  Cl    0.39162   0.82648   0.40587   0.00000  Uiso   1.00
Cl575  Cl    0.39162   0.82648   0.59413   0.00000  Uiso   1.00
Cl576  Cl    0.10838   0.67352   0.40587   0.00000  Uiso   1.00
Cl577  Cl    0.14162   0.92352   0.40587   0.00000  Uiso   1.00
Cl578  Cl    0.35838   0.57648   0.59413   0.00000  Uiso   1.00
Cl579  Cl    0.35838   0.57648   0.40587   0.00000  Uiso   1.00
Cl580  Cl    0.00000   0.65931   0.61338   0.00000  Uiso   1.00
Cl581  Cl    0.14162   0.92352   0.59413   0.00000  Uiso   1.00
Cl582  Cl    0.35838   0.92352   0.59413   0.00000  Uiso   1.00
Cl583  Cl    0.14162   0.57648   0.40587   0.00000  Uiso   1.00
Cl584  Cl    0.14162   0.57648   0.59413   0.00000  Uiso   1.00
Cl585  Cl    0.35838   0.92352   0.40587   0.00000  Uiso   1.00
Cl586  Cl    0.00000   0.65931   0.38662   0.00000  Uiso   1.00
Cl587  Cl   -0.00000   0.84069   0.61338   0.00000  Uiso   1.00
Cl588  Cl    0.25000   0.59069   0.38662   0.00000  Uiso   1.00
Cl589  Cl    0.25000   0.90931   0.61338   0.00000  Uiso   1.00
Cl590  Cl    0.25000   0.90931   0.38662   0.00000  Uiso   1.00
Cl591  Cl    0.25000   0.59069   0.61338   0.00000  Uiso   1.00
Cl592  Cl    0.39162   0.67352   0.40587   0.00000  Uiso   1.00
N593   N    -0.00000   0.75000   0.61907   0.00000  Uiso   1.00
N594   N    -0.00000   0.75000   0.38093   0.00000  Uiso   1.00
N595   N     0.25000   0.50000   0.61907   0.00000  Uiso   1.00
N596   N     0.25000   0.50000   0.38093   0.00000  Uiso   1.00
O597   O     0.04580   0.70419   0.53821   0.00000  Uiso   1.00
O598   O     0.20419   0.54581   0.46179   0.00000  Uiso   1.00
O599   O     0.20419   0.54581   0.53821   0.00000  Uiso   1.00
O600   O     0.29580   0.95419   0.46179   0.00000  Uiso   1.00
O601   O     0.20419   0.95419   0.46179   0.00000  Uiso   1.00
O602   O     0.29580   0.54581   0.53821   0.00000  Uiso   1.00
O603   O     0.29580   0.54581   0.46179   0.00000  Uiso   1.00
O604   O     0.20419   0.95419   0.53821   0.00000  Uiso   1.00
O605   O     0.45419   0.79581   0.46179   0.00000  Uiso   1.00
O606   O     0.45419   0.79581   0.53821   0.00000  Uiso   1.00
O607   O     0.04580   0.70419   0.46179   0.00000  Uiso   1.00
O608   O     0.45419   0.70419   0.46179   0.00000  Uiso   1.00
O609   O     0.04580   0.79581   0.53821   0.00000  Uiso   1.00
O610   O     0.04580   0.79581   0.46179   0.00000  Uiso   1.00
O611   O     0.45419   0.70419   0.53821   0.00000  Uiso   1.00
O612   O     0.29580   0.95419   0.53821   0.00000  Uiso   1.00
Zn613  Zn   -0.00000   0.75000   0.55104   0.00000  Uiso   1.00
Zn614  Zn    0.00000   0.75000   0.44896   0.00000  Uiso   1.00
Zn615  Zn    0.25000   0.50000   0.55104   0.00000  Uiso   1.00
Zn616  Zn    0.25000   0.50000   0.44896   0.00000  Uiso   1.00
C617   C     0.56279   0.69296   0.50000   0.00000  Uiso   1.00
C618   C     0.50000   0.71059   0.64266   0.00000  Uiso   1.00
C619   C     0.50000   0.71059   0.35734   0.00000  Uiso   1.00
C620   C     0.50000   0.78941   0.64266   0.00000  Uiso   1.00
C621   C     0.75000   0.53941   0.35734   0.00000  Uiso   1.00
C622   C     0.75000   0.96059   0.64266   0.00000  Uiso   1.00
C623   C     0.75000   0.96059   0.35734   0.00000  Uiso   1.00
C624   C     0.75000   0.53941   0.64266   0.00000  Uiso   1.00
C625   C     0.88649   0.64472   0.45840   0.00000  Uiso   1.00
C626   C     0.61351   0.85528   0.54160   0.00000  Uiso   1.00
C627   C     0.61351   0.85528   0.45839   0.00000  Uiso   1.00
C628   C     0.93721   0.80704   0.50000   0.00000  Uiso   1.00
C629   C     0.88649   0.64472   0.54161   0.00000  Uiso   1.00
C630   C     0.61351   0.64472   0.54161   0.00000  Uiso   1.00
C631   C     0.88649   0.85528   0.45839   0.00000  Uiso   1.00
C632   C     0.88649   0.85528   0.54161   0.00000  Uiso   1.00
C633   C     0.61351   0.64472   0.45840   0.00000  Uiso   1.00
C634   C     0.63649   0.89472   0.45839   0.00000  Uiso   1.00
C635   C     0.86351   0.60528   0.54161   0.00000  Uiso   1.00
C636   C     0.86351   0.60528   0.45840   0.00000  Uiso   1.00
C637   C     0.63649   0.89472   0.54160   0.00000  Uiso   1.00
C638   C     0.86351   0.89472   0.54160   0.00000  Uiso   1.00
C639   C     0.93721   0.69296   0.50000   0.00000  Uiso   1.00
C640   C     0.63649   0.60528   0.45840   0.00000  Uiso   1.00
C641   C     0.63649   0.60528   0.54161   0.00000  Uiso   1.00
C642   C     0.86351   0.89472   0.45839   0.00000  Uiso   1.00
C643   C     0.59864   0.83781   0.50000   0.00000  Uiso   1.00
C644   C     0.90136   0.66219   0.50000   0.00000  Uiso   1.00
C645   C     0.90136   0.83781   0.50000   0.00000  Uiso   1.00
C646   C     0.59864   0.66219   0.50000   0.00000  Uiso   1.00
C647   C     0.84864   0.58781   0.50000   0.00000  Uiso   1.00
C648   C     0.65136   0.91219   0.50000   0.00000  Uiso   1.00
C649   C     0.65136   0.58781   0.50000   0.00000  Uiso   1.00
C650   C     0.56279   0.80704   0.50000   0.00000  Uiso   1.00
C651   C     0.84864   0.91219   0.50000   0.00000  Uiso   1.00
C652   C     0.81279   0.94296   0.50000   0.00000  Uiso   1.00
C653   C     0.68721   0.55704   0.50000   0.00000  Uiso   1.00
C654   C     0.68721   0.94296   0.50000   0.00000  Uiso   1.00
C655   C     0.81279   0.55704   0.50000   0.00000  Uiso   1.00
C656   C     0.50000   0.78941   0.35734   0.00000  Uiso   1.00
Cl657  Cl    0.50000   0.84069   0.38662   0.00000  Uiso   1.00
Cl658  Cl    0.60838   0.82648   0.59413   0.00000  Uiso   1.00
Cl659  Cl    0.60838   0.82648   0.40587   0.00000  Uiso   1.00
Cl660  Cl    0.89162   0.67352   0.59413   0.00000  Uiso   1.00
Cl661  Cl    0.60838   0.67352   0.59413   0.00000  Uiso   1.00
Cl662  Cl    0.89162   0.82648   0.40587   0.00000  Uiso   1.00
Cl663  Cl    0.89162   0.82648   0.59413   0.00000  Uiso   1.00
Cl664  Cl    0.60838   0.67352   0.40587   0.00000  Uiso   1.00
Cl665  Cl    0.64162   0.92352   0.40587   0.00000  Uiso   1.00
Cl666  Cl    0.85838   0.57648   0.59413   0.00000  Uiso   1.00
Cl667  Cl    0.85838   0.57648   0.40587   0.00000  Uiso   1.00
Cl668  Cl    0.50000   0.65931   0.61338   0.00000  Uiso   1.00
Cl669  Cl    0.64162   0.92352   0.59413   0.00000  Uiso   1.00
Cl670  Cl    0.85838   0.92352   0.59413   0.00000  Uiso   1.00
Cl671  Cl    0.64162   0.57648   0.40587   0.00000  Uiso   1.00
Cl672  Cl    0.64162   0.57648   0.59413   0.00000  Uiso   1.00
Cl673  Cl    0.85838   0.92352   0.40587   0.00000  Uiso   1.00
Cl674  Cl    0.50000   0.65931   0.38662   0.00000  Uiso   1.00
Cl675  Cl    0.50000   0.84069   0.61338   0.00000  Uiso   1.00
Cl676  Cl    0.75000   0.59069   0.38662   0.00000  Uiso   1.00
Cl677  Cl    0.75000   0.90931   0.61338   0.00000  Uiso   1.00
Cl678  Cl    0.75000   0.90931   0.38662   0.00000  Uiso   1.00
Cl679  Cl    0.75000   0.59069   0.61338   0.00000  Uiso   1.00
Cl680  Cl    0.89162   0.67352   0.40587   0.00000  Uiso   1.00
N681   N     0.50000   0.75000   0.61907   0.00000  Uiso   1.00
N682   N     0.50000   0.75000   0.38093   0.00000  Uiso   1.00
N683   N     0.75000   0.50000   0.61907   0.00000  Uiso   1.00
N684   N     0.75000   0.50000   0.38093   0.00000  Uiso   1.00
O685   O     0.54580   0.70419   0.53821   0.00000  Uiso   1.00
O686   O     0.70419   0.54581   0.46179   0.00000  Uiso   1.00
O687   O     0.70419   0.54581   0.53821   0.00000  Uiso   1.00
O688   O     0.79580   0.95419   0.46179   0.00000  Uiso   1.00
O689   O     0.70419   0.95419   0.46179   0.00000  Uiso   1.00
O690   O     0.79580   0.54581   0.53821   0.00000  Uiso   1.00
O691   O     0.79580   0.54581   0.46179   0.00000  Uiso   1.00
O692   O     0.70419   0.95419   0.53821   0.00000  Uiso   1.00
O693   O     0.95419   0.79581   0.46179   0.00000  Uiso   1.00
O694   O     0.95419   0.79581   0.53821   0.00000  Uiso   1.00
O695   O     0.54580   0.70419   0.46179   0.00000  Uiso   1.00
O696   O     0.95419   0.70419   0.46179   0.00000  Uiso   1.00
O697   O     0.54580   0.79581   0.53821   0.00000  Uiso   1.00
O698   O     0.54580   0.79581   0.46179   0.00000  Uiso   1.00
O699   O     0.95419   0.70419   0.53821   0.00000  Uiso   1.00
O700   O     0.79580   0.95419   0.53821   0.00000  Uiso   1.00
Zn701  Zn    0.50000   0.75000   0.55104   0.00000  Uiso   1.00
Zn702  Zn    0.50000   0.75000   0.44896   0.00000  Uiso   1.00
Zn703  Zn    0.75000   0.50000   0.55104   0.00000  Uiso   1.00
Zn704  Zn    0.75000   0.50000   0.44896   0.00000  Uiso   1.00
C705   C     0.06279   0.19296   0.83333   0.00000  Uiso   1.00
C706   C     0.00000   0.21059   0.97599   0.00000  Uiso   1.00
C707   C    -0.00000   0.21059   0.69068   0.00000  Uiso   1.00
C708   C    -0.00000   0.28941   0.97599   0.00000  Uiso   1.00
C709   C     0.25000   0.03941   0.69068   0.00000  Uiso   1.00
C710   C     0.25000   0.46059   0.97599   0.00000  Uiso   1.00
C711   C     0.25000   0.46059   0.69068   0.00000  Uiso   1.00
C712   C     0.25000   0.03941   0.97599   0.00000  Uiso   1.00
C713   C     0.38649   0.14472   0.79173   0.00000  Uiso   1.00
C714   C     0.11351   0.35528   0.87494   0.00000  Uiso   1.00
C715   C     0.11351   0.35528   0.79173   0.00000  Uiso   1.00
C716   C     0.43721   0.30704   0.83333   0.00000  Uiso   1.00
C717   C     0.38649   0.14472   0.87494   0.00000  Uiso   1.00
C718   C     0.11351   0.14472   0.87494   0.00000  Uiso   1.00
C719   C     0.38649   0.35528   0.79173   0.00000  Uiso   1.00
C720   C     0.38649   0.35528   0.87494   0.00000  Uiso   1.00
C721   C     0.11351   0.14472   0.79173   0.00000  Uiso   1.00
C722   C     0.13649   0.39472   0.79173   0.00000  Uiso   1.00
C723   C     0.36351   0.10528   0.87494   0.00000  Uiso   1.00
C724   C     0.36351   0.10528   0.79173   0.00000  Uiso   1.00
C725   C     0.13649   0.39472   0.87494   0.00000  Uiso   1.00
C726   C     0.36351   0.39472   0.87494   0.00000  Uiso   1.00
C727   C     0.43721   0.19296   0.83333   0.00000  Uiso   1.00
C728   C     0.13649   0.10528   0.79173   0.00000  Uiso   1.00
C729   C     0.13649   0.10528   0.87494   0.00000  Uiso   1.00
C730   C     0.36351   0.39472   0.79173   0.00000  Uiso   1.00
C731   C     0.09864   0.33781   0.83333   0.00000  Uiso   1.00
C732   C     0.40136   0.16219   0.83333   0.00000  Uiso   1.00
C733   C     0.40136   0.33781   0.83333   0.00000  Uiso   1.00
C734   C     0.09864   0.16219   0.83333   0.00000  Uiso   1.00
C735   C     0.34864   0.08781   0.83333   0.00000  Uiso   1.00
C736   C     0.15136   0.41219   0.83333   0.00000  Uiso   1.00
C737   C     0.15136   0.08781   0.83333   0.00000  Uiso   1.00
C738   C     0.06279   0.30704   0.83333   0.00000  Uiso   1.00
C739   C     0.34864   0.41219   0.83333   0.00000  Uiso   1.00
C740   C     0.31279   0.44296   0.83333   0.00000  Uiso   1.00
C741   C     0.18721   0.05704   0.83333   0.00000  Uiso   1.00
C742   C     0.18721   0.44296   0.83333   0.00000  Uiso   1.00
C743   C     0.31279   0.05704   0.83333   0.00000  Uiso   1.00
C744   C    -0.00000   0.28941   0.69068   0.00000  Uiso   1.00
Cl745  Cl   -0.00000   0.34069   0.71995   0.00000  Uiso   1.00
Cl746  Cl    0.10838   0.32648   0.92746   0.00000  Uiso   1.00
Cl747  Cl    0.10838   0.32648   0.73921   0.00000  Uiso   1.00
Cl748  Cl    0.39162   0.17352   0.92746   0.00000  Uiso   1.00
Cl749  Cl    0.10838   0.17352   0.92746   0.00000  Uiso   1.00
Cl750  Cl    0.39162   0.32648   0.73921   0.00000  Uiso   1.00
Cl751  Cl    0.39162   0.32648   0.92746   0.00000  Uiso   1.00
Cl752  Cl    0.10838   0.17352   0.73921   0.00000  Uiso   1.00
Cl753  Cl    0.14162   0.42352   0.73921   0.00000  Uiso   1.00
Cl754  Cl    0.35838   0.07648   0.92746   0.00000  Uiso   1.00
Cl755  Cl    0.35838   0.07648   0.73921   0.00000  Uiso   1.00
Cl756  Cl    0.00000   0.15931   0.94671   0.00000  Uiso   1.00
Cl757  Cl    0.14162   0.42352   0.92746   0.00000  Uiso   1.00
Cl758  Cl    0.35838   0.42352   0.92746   0.00000  Uiso   1.00
Cl759  Cl    0.14162   0.07648   0.73921   0.00000  Uiso   1.00
Cl760  Cl    0.14162   0.07648   0.92746   0.00000  Uiso   1.00
Cl761  Cl    0.35838   0.42352   0.73921   0.00000  Uiso   1.00
Cl762  Cl    0.00000   0.15931   0.71995   0.00000  Uiso   1.00
Cl763  Cl   -0.00000   0.34069   0.94671   0.00000  Uiso   1.00
Cl764  Cl    0.25000   0.09069   0.71995   0.00000  Uiso   1.00
Cl765  Cl    0.25000   0.40931   0.94671   0.00000  Uiso   1.00
Cl766  Cl    0.25000   0.40931   0.71995   0.00000  Uiso   1.00
Cl767  Cl    0.25000   0.09069   0.94671   0.00000  Uiso   1.00
Cl768  Cl    0.39162   0.17352   0.73921   0.00000  Uiso   1.00
N769   N    -0.00000   0.25000   0.95240   0.00000  Uiso   1.00
N770   N    -0.00000   0.25000   0.71427   0.00000  Uiso   1.00
N771   N     0.25000  -0.00000   0.95240   0.00000  Uiso   1.00
N772   N     0.25000  -0.00000   0.71427   0.00000  Uiso   1.00
O773   O     0.04580   0.20419   0.87154   0.00000  Uiso   1.00
O774   O     0.20419   0.04581   0.79513   0.00000  Uiso   1.00
O775   O     0.20419   0.04581   0.87154   0.00000  Uiso   1.00
O776   O     0.29580   0.45419   0.79513   0.00000  Uiso   1.00
O777   O     0.20419   0.45419   0.79513   0.00000  Uiso   1.00
O778   O     0.29580   0.04581   0.87154   0.00000  Uiso   1.00
O779   O     0.29580   0.04581   0.79513   0.00000  Uiso   1.00
O780   O     0.20419   0.45419   0.87154   0.00000  Uiso   1.00
O781   O     0.45419   0.29581   0.79513   0.00000  Uiso   1.00
O782   O     0.45419   0.29581   0.87154   0.00000  Uiso   1.00
O783   O     0.04580   0.20419   0.79513   0.00000  Uiso   1.00
O784   O     0.45419   0.20419   0.79513   0.00000  Uiso   1.00
O785   O     0.04580   0.29581   0.87154   0.00000  Uiso   1.00
O786   O     0.04580   0.29581   0.79513   0.00000  Uiso   1.00
O787   O     0.45419   0.20419   0.87154   0.00000  Uiso   1.00
O788   O     0.29580   0.45419   0.87154   0.00000  Uiso   1.00
Zn789  Zn   -0.00000   0.25000   0.88437   0.00000  Uiso   1.00
Zn790  Zn    0.00000   0.25000   0.78229   0.00000  Uiso   1.00
Zn791  Zn    0.25000  -0.00000   0.88437   0.00000  Uiso   1.00
Zn792  Zn    0.25000  -0.00000   0.78229   0.00000  Uiso   1.00
C793   C     0.56279   0.19296   0.83333   0.00000  Uiso   1.00
C794   C     0.50000   0.21059   0.97599   0.00000  Uiso   1.00
C795   C     0.50000   0.21059   0.69068   0.00000  Uiso   1.00
C796   C     0.50000   0.28941   0.97599   0.00000  Uiso   1.00
C797   C     0.75000   0.03941   0.69068   0.00000  Uiso   1.00
C798   C     0.75000   0.46059   0.97599   0.00000  Uiso   1.00
C799   C     0.75000   0.46059   0.69068   0.00000  Uiso   1.00
C800   C     0.75000   0.03941   0.97599   0.00000  Uiso   1.00
C801   C     0.88649   0.14472   0.79173   0.00000  Uiso   1.00
C802   C     0.61351   0.35528   0.87494   0.00000  Uiso   1.00
C803   C     0.61351   0.35528   0.79173   0.00000  Uiso   1.00
C804   C     0.93721   0.30704   0.83333   0.00000  Uiso   1.00
C805   C     0.88649   0.14472   0.87494   0.00000  Uiso   1.00
C806   C     0.61351   0.14472   0.87494   0.00000  Uiso   1.00
C807   C     0.88649   0.35528   0.79173   0.00000  Uiso   1.00
C808   C     0.88649   0.35528   0.87494   0.00000  Uiso   1.00
C809   C     0.61351   0.14472   0.79173   0.00000  Uiso   1.00
C810   C     0.63649   0.39472   0.79173   0.00000  Uiso   1.00
C811   C     0.86351   0.10528   0.87494   0.00000  Uiso   1.00
C812   C     0.86351   0.10528   0.79173   0.00000  Uiso   1.00
C813   C     0.63649   0.39472   0.87494   0.00000  Uiso   1.00
C814   C     0.86351   0.39472   0.87494   0.00000  Uiso   1.00
C815   C     0.93721   0.19296   0.83333   0.00000  Uiso   1.00
C816   C     0.63649   0.10528   0.79173   0.00000  Uiso   1.00
C817   C     0.63649   0.10528   0.87494   0.00000  Uiso   1.00
C818   C     0.86351   0.39472   0.79173   0.00000  Uiso   1.00
C819   C     0.59864   0.33781   0.83333   0.00000  Uiso   1.00
C820   C     0.90136   0.16219   0.83333   0.00000  Uiso   1.00
C821   C     0.90136   0.33781   0.83333   0.00000  Uiso   1.00
C822   C     0.59864   0.16219   0.83333   0.00000  Uiso   1.00
C823   C     0.84864   0.08781   0.83333   0.00000  Uiso   1.00
C824   C     0.65136   0.41219   0.83333   0.00000  Uiso   1.00
C825   C     0.65136   0.08781   0.83333   0.00000  Uiso   1.00
C826   C     0.56279   0.30704   0.83333   0.00000  Uiso   1.00
C827   C     0.84864   0.41219   0.83333   0.00000  Uiso   1.00
C828   C     0.81279   0.44296   0.83333   0.00000  Uiso   1.00
C829   C     0.68721   0.05704   0.83333   0.00000  Uiso   1.00
C830   C     0.68721   0.44296   0.83333   0.00000  Uiso   1.00
C831   C     0.81279   0.05704   0.83333   0.00000  Uiso   1.00
C832   C     0.50000   0.28941   0.69068   0.00000  Uiso   1.00
Cl833  Cl    0.50000   0.34069   0.71995   0.00000  Uiso   1.00
Cl834  Cl    0.60838   0.32648   0.92746   0.00000  Uiso   1.00
Cl835  Cl    0.60838   0.32648   0.73921   0.00000  Uiso   1.00
Cl836  Cl    0.89162   0.17352   0.92746   0.00000  Uiso   1.00
Cl837  Cl    0.60838   0.17352   0.92746   0.00000  Uiso   1.00
Cl838  Cl    0.89162   0.32648   0.73921   0.00000  Uiso   1.00
Cl839  Cl    0.89162   0.32648   0.92746   0.00000  Uiso   1.00
Cl840  Cl    0.60838   0.17352   0.73921   0.00000  Uiso   1.00
Cl841  Cl    0.64162   0.42352   0.73921   0.00000  Uiso   1.00
Cl842  Cl    0.85838   0.07648   0.92746   0.00000  Uiso   1.00
Cl843  Cl    0.85838   0.07648   0.73921   0.00000  Uiso   1.00
Cl844  Cl    0.50000   0.15931   0.94671   0.00000  Uiso   1.00
Cl845  Cl    0.64162   0.42352   0.92746   0.00000  Uiso   1.00
Cl846  Cl    0.85838   0.42352   0.92746   0.00000  Uiso   1.00
Cl847  Cl    0.64162   0.07648   0.73921   0.00000  Uiso   1.00
Cl848  Cl    0.64162   0.07648   0.92746   0.00000  Uiso   1.00
Cl849  Cl    0.85838   0.42352   0.73921   0.00000  Uiso   1.00
Cl850  Cl    0.50000   0.15931   0.71995   0.00000  Uiso   1.00
Cl851  Cl    0.50000   0.34069   0.94671   0.00000  Uiso   1.00
Cl852  Cl    0.75000   0.09069   0.71995   0.00000  Uiso   1.00
Cl853  Cl    0.75000   0.40931   0.94671   0.00000  Uiso   1.00
Cl854  Cl    0.75000   0.40931   0.71995   0.00000  Uiso   1.00
Cl855  Cl    0.75000   0.09069   0.94671   0.00000  Uiso   1.00
Cl856  Cl    0.89162   0.17352   0.73921   0.00000  Uiso   1.00
N857   N     0.50000   0.25000   0.95240   0.00000  Uiso   1.00
N858   N     0.50000   0.25000   0.71427   0.00000  Uiso   1.00
N859   N     0.75000  -0.00000   0.95240   0.00000  Uiso   1.00
N860   N     0.75000  -0.00000   0.71427   0.00000  Uiso   1.00
O861   O     0.54580   0.20419   0.87154   0.00000  Uiso   1.00
O862   O     0.70419   0.04581   0.79513   0.00000  Uiso   1.00
O863   O     0.70419   0.04581   0.87154   0.00000  Uiso   1.00
O864   O     0.79580   0.45419   0.79513   0.00000  Uiso   1.00
O865   O     0.70419   0.45419   0.79513   0.00000  Uiso   1.00
O866   O     0.79580   0.04581   0.87154   0.00000  Uiso   1.00
O867   O     0.79580   0.04581   0.79513   0.00000  Uiso   1.00
O868   O     0.70419   0.45419   0.87154   0.00000  Uiso   1.00
O869   O     0.95419   0.29581   0.79513   0.00000  Uiso   1.00
O870   O     0.95419   0.29581   0.87154   0.00000  Uiso   1.00
O871   O     0.54580   0.20419   0.79513   0.00000  Uiso   1.00
O872   O     0.95419   0.20419   0.79513   0.00000  Uiso   1.00
O873   O     0.54580   0.29581   0.87154   0.00000  Uiso   1.00
O874   O     0.54580   0.29581   0.79513   0.00000  Uiso   1.00
O875   O     0.95419   0.20419   0.87154   0.00000  Uiso   1.00
O876   O     0.79580   0.45419   0.87154   0.00000  Uiso   1.00
Zn877  Zn    0.50000   0.25000   0.88437   0.00000  Uiso   1.00
Zn878  Zn    0.50000   0.25000   0.78229   0.00000  Uiso   1.00
Zn879  Zn    0.75000  -0.00000   0.88437   0.00000  Uiso   1.00
Zn880  Zn    0.75000  -0.00000   0.78229   0.00000  Uiso   1.00
C881   C     0.06279   0.69296   0.83333   0.00000  Uiso   1.00
C882   C     0.00000   0.71059   0.97599   0.00000  Uiso   1.00
C883   C    -0.00000   0.71059   0.69068   0.00000  Uiso   1.00
C884   C    -0.00000   0.78941   0.97599   0.00000  Uiso   1.00
C885   C     0.25000   0.53941   0.69068   0.00000  Uiso   1.00
C886   C     0.25000   0.96059   0.97599   0.00000  Uiso   1.00
C887   C     0.25000   0.96059   0.69068   0.00000  Uiso   1.00
C888   C     0.25000   0.53941   0.97599   0.00000  Uiso   1.00
C889   C     0.38649   0.64472   0.79173   0.00000  Uiso   1.00
C890   C     0.11351   0.85528   0.87494   0.00000  Uiso   1.00
C891   C     0.11351   0.85528   0.79173   0.00000  Uiso   1.00
C892   C     0.43721   0.80704   0.83333   0.00000  Uiso   1.00
C893   C     0.38649   0.64472   0.87494   0.00000  Uiso   1.00
C894   C     0.11351   0.64472   0.87494   0.00000  Uiso   1.00
C895   C     0.38649   0.85528   0.79173   0.00000  Uiso   1.00
C896   C     0.38649   0.85528   0.87494   0.00000  Uiso   1.00
C897   C     0.11351   0.64472   0.79173   0.00000  Uiso   1.00
C898   C     0.13649   0.89472   0.79173   0.00000  Uiso   1.00
C899   C     0.36351   0.60528   0.87494   0.00000  Uiso   1.00
C900   C     0.36351   0.60528   0.79173   0.00000  Uiso   1.00
C901   C     0.13649   0.89472   0.87494   0.00000  Uiso   1.00
C902   C     0.36351   0.89472   0.87494   0.00000  Uiso   1.00
C903   C     0.43721   0.69296   0.83333   0.00000  Uiso   1.00
C904   C     0.13649   0.60528   0.79173   0.00000  Uiso   1.00
C905   C     0.13649   0.60528   0.87494   0.00000  Uiso   1.00
C906   C     0.36351   0.89472   0.79173   0.00000  Uiso   1.00
C907   C     0.09864   0.83781   0.83333   0.00000  Uiso   1.00
C908   C     0.40136   0.66219   0.83333   0.00000  Uiso   1.00
C909   C     0.40136   0.83781   0.83333   0.00000  Uiso   1.00
C910   C     0.09864   0.66219   0.83333   0.00000  Uiso   1.00
C911   C     0.34864   0.58781   0.83333   0.00000  Uiso   1.00
C912   C     0.15136   0.91219   0.83333   0.00000  Uiso   1.00
C913   C     0.15136   0.58781   0.83333   0.00000  Uiso   1.00
C914   C     0.06279   0.80704   0.83333   0.00000  Uiso   1.00
C915   C     0.34864   0.91219   0.83333   0.00000  Uiso   1.00
C916   C     0.31279   0.94296   0.83333   0.00000  Uiso   1.00
C917   C     0.18721   0.55704   0.83333   0.00000  Uiso   1.00
C918   C     0.18721   0.94296   0.83333   0.00000  Uiso   1.00
C919   C     0.31279   0.55704   0.83333   0.00000  Uiso   1.00
C920   C    -0.00000   0.78941   0.69068   0.00000  Uiso   1.00
Cl921  Cl   -0.00000   0.84069   0.71995   0.00000  Uiso   1.00
Cl922  Cl    0.10838   0.82648   0.92746   0.00000  Uiso   1.00
Cl923  Cl    0.10838   0.82648   0.73921   0.00000  Uiso   1.00
Cl924  Cl    0.39162   0.67352   0.92746   0.00000  Uiso   1.00
Cl925  Cl    0.10838   0.67352   0.92746   0.00000  Uiso   1.00
Cl926  Cl    0.39162   0.82648   0.73921   0.00000  Uiso   1.00
Cl927  Cl    0.39162   0.82648   0.92746   0.00000  Uiso   1.00
Cl928  Cl    0.10838   0.67352   0.73921   0.00000  Uiso   1.00
Cl929  Cl    0.14162   0.92352   0.73921   0.00000  Uiso   1.00
Cl930  Cl    0.35838   0.57648   0.92746   0.00000  Uiso   1.00
Cl931  Cl    0.35838   0.57648   0.73921   0.00000  Uiso   1.00
Cl932  Cl    0.00000   0.65931   0.94671   0.00000  Uiso   1.00
Cl933  Cl    0.14162   0.92352   0.92746   0.00000  Uiso   1.00
Cl934  Cl    0.35838   0.92352   0.92746   0.00000  Uiso   1.00
Cl935  Cl    0.14162   0.57648   0.73921   0.00000  Uiso   1.00
Cl936  Cl    0.14162   0.57648   0.92746   0.00000  Uiso   1.00
Cl937  Cl    0.35838   0.92352   0.73921   0.00000  Uiso   1.00
Cl938  Cl    0.00000   0.65931   0.71995   0.00000  Uiso   1.00
Cl939  Cl   -0.00000   0.84069   0.94671   0.00000  Uiso   1.00
Cl940  Cl    0.25000   0.59069   0.71995   0.00000  Uiso   1.00
Cl941  Cl    0.25000   0.90931   0.94671   0.00000  Uiso   1.00
Cl942  Cl    0.25000   0.90931   0.71995   0.00000  Uiso   1.00
Cl943  Cl    0.25000   0.59069   0.94671   0.00000  Uiso   1.00
Cl944  Cl    0.39162   0.67352   0.73921   0.00000  Uiso   1.00
N945   N    -0.00000   0.75000   0.95240   0.00000  Uiso   1.00
N946   N    -0.00000   0.75000   0.71427   0.00000  Uiso   1.00
N947   N     0.25000   0.50000   0.95240   0.00000  Uiso   1.00
N948   N     0.25000   0.50000   0.71427   0.00000  Uiso   1.00
O949   O     0.04580   0.70419   0.87154   0.00000  Uiso   1.00
O950   O     0.20419   0.54581   0.79513   0.00000  Uiso   1.00
O951   O     0.20419   0.54581   0.87154   0.00000  Uiso   1.00
O952   O     0.29580   0.95419   0.79513   0.00000  Uiso   1.00
O953   O     0.20419   0.95419   0.79513   0.00000  Uiso   1.00
O954   O     0.29580   0.54581   0.87154   0.00000  Uiso   1.00
O955   O     0.29580   0.54581   0.79513   0.00000  Uiso   1.00
O956   O     0.20419   0.95419   0.87154   0.00000  Uiso   1.00
O957   O     0.45419   0.79581   0.79513   0.00000  Uiso   1.00
O958   O     0.45419   0.79581   0.87154   0.00000  Uiso   1.00
O959   O     0.04580   0.70419   0.79513   0.00000  Uiso   1.00
O960   O     0.45419   0.70419   0.79513   0.00000  Uiso   1.00
O961   O     0.04580   0.79581   0.87154   0.00000  Uiso   1.00
O962   O     0.04580   0.79581   0.79513   0.00000  Uiso   1.00
O963   O     0.45419   0.70419   0.87154   0.00000  Uiso   1.00
O964   O     0.29580   0.95419   0.87154   0.00000  Uiso   1.00
Zn965  Zn   -0.00000   0.75000   0.88437   0.00000  Uiso   1.00
Zn966  Zn    0.00000   0.75000   0.78229   0.00000  Uiso   1.00
Zn967  Zn    0.25000   0.50000   0.88437   0.00000  Uiso   1.00
Zn968  Zn    0.25000   0.50000   0.78229   0.00000  Uiso   1.00
C969   C     0.56279   0.69296   0.83333   0.00000  Uiso   1.00
C970   C     0.50000   0.71059   0.97599   0.00000  Uiso   1.00
C971   C     0.50000   0.71059   0.69068   0.00000  Uiso   1.00
C972   C     0.50000   0.78941   0.97599   0.00000  Uiso   1.00
C973   C     0.75000   0.53941   0.69068   0.00000  Uiso   1.00
C974   C     0.75000   0.96059   0.97599   0.00000  Uiso   1.00
C975   C     0.75000   0.96059   0.69068   0.00000  Uiso   1.00
C976   C     0.75000   0.53941   0.97599   0.00000  Uiso   1.00
C977   C     0.88649   0.64472   0.79173   0.00000  Uiso   1.00
C978   C     0.61351   0.85528   0.87494   0.00000  Uiso   1.00
C979   C     0.61351   0.85528   0.79173   0.00000  Uiso   1.00
C980   C     0.93721   0.80704   0.83333   0.00000  Uiso   1.00
C981   C     0.88649   0.64472   0.87494   0.00000  Uiso   1.00
C982   C     0.61351   0.64472   0.87494   0.00000  Uiso   1.00
C983   C     0.88649   0.85528   0.79173   0.00000  Uiso   1.00
C984   C     0.88649   0.85528   0.87494   0.00000  Uiso   1.00
C985   C     0.61351   0.64472   0.79173   0.00000  Uiso   1.00
C986   C     0.63649   0.89472   0.79173   0.00000  Uiso   1.00
C987   C     0.86351   0.60528   0.87494   0.00000  Uiso   1.00
C988   C     0.86351   0.60528   0.79173   0.00000  Uiso   1.00
C989   C     0.63649   0.89472   0.87494   0.00000  Uiso   1.00
C990   C     0.86351   0.89472   0.87494   0.00000  Uiso   1.00
C991   C     0.93721   0.69296   0.83333   0.00000  Uiso   1.00
C992   C     0.63649   0.60528   0.79173   0.00000  Uiso   1.00
C993   C     0.63649   0.60528   0.87494   0.00000  Uiso   1.00
C994   C     0.86351   0.89472   0.79173   0.00000  Uiso   1.00
C995   C     0.59864   0.83781   0.83333   0.00000  Uiso   1.00
C996   C     0.90136   0.66219   0.83333   0.00000  Uiso   1.00
C997   C     0.90136   0.83781   0.83333   0.00000  Uiso   1.00
C998   C     0.59864   0.66219   0.83333   0.00000  Uiso   1.00
C999   C     0.84864   0.58781   0.83333   0.00000  Uiso   1.00
C1000  C     0.65136   0.91219   0.83333   0.00000  Uiso   1.00
C1001  C     0.65136   0.58781   0.83333   0.00000  Uiso   1.00
C1002  C     0.56279   0.80704   0.83333   0.00000  Uiso   1.00
C1003  C     0.84864   0.91219   0.83333   0.00000  Uiso   1.00
C1004  C     0.81279   0.94296   0.83333   0.00000  Uiso   1.00
C1005  C     0.68721   0.55704   0.83333   0.00000  Uiso   1.00
C1006  C     0.68721   0.94296   0.83333   0.00000  Uiso   1.00
C1007  C     0.81279   0.55704   0.83333   0.00000  Uiso   1.00
C1008  C     0.50000   0.78941   0.69068   0.00000  Uiso   1.00
Cl1009 Cl    0.50000   0.84069   0.71995   0.00000  Uiso   1.00
Cl1010 Cl    0.60838   0.82648   0.92746   0.00000  Uiso   1.00
Cl1011 Cl    0.60838   0.82648   0.73921   0.00000  Uiso   1.00
Cl1012 Cl    0.89162   0.67352   0.92746   0.00000  Uiso   1.00
Cl1013 Cl    0.60838   0.67352   0.92746   0.00000  Uiso   1.00
Cl1014 Cl    0.89162   0.82648   0.73921   0.00000  Uiso   1.00
Cl1015 Cl    0.89162   0.82648   0.92746   0.00000  Uiso   1.00
Cl1016 Cl    0.60838   0.67352   0.73921   0.00000  Uiso   1.00
Cl1017 Cl    0.64162   0.92352   0.73921   0.00000  Uiso   1.00
Cl1018 Cl    0.85838   0.57648   0.92746   0.00000  Uiso   1.00
Cl1019 Cl    0.85838   0.57648   0.73921   0.00000  Uiso   1.00
Cl1020 Cl    0.50000   0.65931   0.94671   0.00000  Uiso   1.00
Cl1021 Cl    0.64162   0.92352   0.92746   0.00000  Uiso   1.00
Cl1022 Cl    0.85838   0.92352   0.92746   0.00000  Uiso   1.00
Cl1023 Cl    0.64162   0.57648   0.73921   0.00000  Uiso   1.00
Cl1024 Cl    0.64162   0.57648   0.92746   0.00000  Uiso   1.00
Cl1025 Cl    0.85838   0.92352   0.73921   0.00000  Uiso   1.00
Cl1026 Cl    0.50000   0.65931   0.71995   0.00000  Uiso   1.00
Cl1027 Cl    0.50000   0.84069   0.94671   0.00000  Uiso   1.00
Cl1028 Cl    0.75000   0.59069   0.71995   0.00000  Uiso   1.00
Cl1029 Cl    0.75000   0.90931   0.94671   0.00000  Uiso   1.00
Cl1030 Cl    0.75000   0.90931   0.71995   0.00000  Uiso   1.00
Cl1031 Cl    0.75000   0.59069   0.94671   0.00000  Uiso   1.00
Cl1032 Cl    0.89162   0.67352   0.73921   0.00000  Uiso   1.00
N1033  N     0.50000   0.75000   0.95240   0.00000  Uiso   1.00
N1034  N     0.50000   0.75000   0.71427   0.00000  Uiso   1.00
N1035  N     0.75000   0.50000   0.95240   0.00000  Uiso   1.00
N1036  N     0.75000   0.50000   0.71427   0.00000  Uiso   1.00
O1037  O     0.54580   0.70419   0.87154   0.00000  Uiso   1.00
O1038  O     0.70419   0.54581   0.79513   0.00000  Uiso   1.00
O1039  O     0.70419   0.54581   0.87154   0.00000  Uiso   1.00
O1040  O     0.79580   0.95419   0.79513   0.00000  Uiso   1.00
O1041  O     0.70419   0.95419   0.79513   0.00000  Uiso   1.00
O1042  O     0.79580   0.54581   0.87154   0.00000  Uiso   1.00
O1043  O     0.79580   0.54581   0.79513   0.00000  Uiso   1.00
O1044  O     0.70419   0.95419   0.87154   0.00000  Uiso   1.00
O1045  O     0.95419   0.79581   0.79513   0.00000  Uiso   1.00
O1046  O     0.95419   0.79581   0.87154   0.00000  Uiso   1.00
O1047  O     0.54580   0.70419   0.79513   0.00000  Uiso   1.00
O1048  O     0.95419   0.70419   0.79513   0.00000  Uiso   1.00
O1049  O     0.54580   0.79581   0.87154   0.00000  Uiso   1.00
O1050  O     0.54580   0.79581   0.79513   0.00000  Uiso   1.00
O1051  O     0.95419   0.70419   0.87154   0.00000  Uiso   1.00
O1052  O     0.79580   0.95419   0.87154   0.00000  Uiso   1.00
Zn1053 Zn    0.50000   0.75000   0.88437   0.00000  Uiso   1.00
Zn1054 Zn    0.50000   0.75000   0.78229   0.00000  Uiso   1.00
Zn1055 Zn    0.75000   0.50000   0.88437   0.00000  Uiso   1.00
Zn1056 Zn    0.75000   0.50000   0.78229   0.00000  Uiso   1.00
loop_
_geom_bond_atom_site_label_1
_geom_bond_atom_site_label_2
_geom_bond_distance
_geom_bond_site_symmetry_2
_ccdc_geom_bond_type
C1     O69     1.287   .     A
C1     O79     1.287   .     A
C1     C30     1.444   .     S
C2     Cl52    1.760   .     S
C2     C355    1.415   .     S
C2     N65     1.369   .     S
C3     N66     1.369   .     A
C3     C706    1.415   1_554 S
C3     Cl58    1.760   .     S
C4     N65     1.369   .     A
C4     Cl59    1.760   .     S
C4     C392    1.415   .     S
C5     N68     1.369   .     A
C5     Cl60    1.760   .     S
C5     C712    1.415   1_554 S
C6     Cl61    1.760   .     S
C6     N243    1.369   .     A
C6     C359    1.415   .     S
C7     Cl62    1.760   .     S
C7     C710    1.415   1_554 S
C7     N244    1.369   .     S
C8     Cl63    1.760   .     S
C8     C357    1.415   .     S
C8     N67     1.369   .     S
C9     Cl64    1.778   .     S
C9     C20     1.378   .     A
C9     C28     1.410   .     A
C10    C27     1.410   .     A
C10    Cl42    1.778   .     S
C10    C21     1.378   .     A
C11    C18     1.378   .     A
C11    Cl43    1.778   .     S
C11    C27     1.410   .     A
C12    C29     1.444   .     S
C12    O78     1.287   .     A
C12    O77     1.287   .     A
C13    C28     1.410   .     A
C13    C19     1.378   .     A
C13    Cl44    1.778   .     S
C14    C30     1.410   .     A
C14    Cl45    1.778   .     S
C14    C25     1.378   .     A
C15    C29     1.410   .     A
C15    C26     1.378   .     A
C15    Cl46    1.778   .     S
C16    Cl47    1.778   .     S
C16    C29     1.410   .     A
C16    C22     1.378   .     A
C17    Cl48    1.778   .     S
C17    C30     1.410   .     A
C17    C24     1.378   .     A
C18    C32     1.410   .     A
C18    Cl49    1.778   .     S
C19    C31     1.410   .     A
C19    Cl50    1.778   .     S
C20    Cl51    1.778   .     S
C20    C31     1.410   .     A
C21    C32     1.410   .     A
C21    Cl53    1.778   .     S
C22    C35     1.410   .     A
C22    Cl54    1.778   .     S
C23    O83     1.287   .     A
C23    C28     1.444   .     S
C23    O80     1.287   .     A
C24    Cl55    1.778   .     S
C24    C33     1.410   .     A
C25    Cl56    1.778   .     S
C25    C33     1.410   .     A
C26    C35     1.410   .     A
C26    Cl57    1.778   .     S
C27    C34     1.444   .     S
C31    C39     1.444   .     S
C32    C38     1.444   .     S
C33    C37     1.444   .     S
C34    O81     1.287   .     A
C34    O82     1.287   .     A
C35    C36     1.444   .     S
C36    O84     1.287   .     A
C36    O72     1.287   .     A
C37    O70     1.287   .     A
C37    O71     1.287   .     A
C38    O76     1.287   .     A
C38    O73     1.287   .     A
C39    O74     1.287   .     A
C39    O75     1.287   .     A
C40    N66     1.369   .     A
C40    Cl41    1.760   .     S
C40    C708    1.415   1_554 S
N65    Zn85    2.004   .     S
N66    Zn86    2.004   .     S
N67    C182    1.369   1_545 A
N67    Zn87    2.004   .     S
N68    Zn88    2.004   .     S
N68    C183    1.369   1_545 S
O69    Zn85    2.010   .     S
O70    Zn88    2.010   .     S
O71    Zn87    2.010   .     S
O72    Zn264   2.010   .     S
O73    Zn264   2.010   .     S
O74    Zn87    2.010   .     S
O75    Zn88    2.010   .     S
O76    Zn263   2.010   .     S
O77    Zn174   2.010   .     S
O78    Zn173   2.010   .     S
O79    Zn86    2.010   .     S
O80    Zn174   2.010   .     S
O81    Zn85    2.010   .     S
O82    Zn86    2.010   .     S
O83    Zn173   2.010   .     S
O84    Zn263   2.010   .     S
Zn85   O166    2.010   1_455 S
Zn85   O171    2.010   1_455 S
Zn86   O168    2.010   1_455 S
Zn86   O165    2.010   1_455 S
Zn87   O260    2.010   1_545 S
Zn87   O252    2.010   1_545 S
Zn88   O249    2.010   1_545 S
Zn88   O248    2.010   1_545 S
C89    O157    1.287   .     A
C89    O167    1.287   .     A
C89    C118    1.444   .     S
C90    Cl140   1.760   .     S
C90    C443    1.415   .     S
C90    N153    1.369   .     S
C91    N154    1.369   .     A
C91    C794    1.415   1_554 S
C91    Cl146   1.760   .     S
C92    N153    1.369   .     A
C92    Cl147   1.760   .     S
C92    C480    1.415   .     S
C93    N156    1.369   .     A
C93    Cl148   1.760   .     S
C93    C800    1.415   1_554 S
C94    Cl149   1.760   .     S
C94    N331    1.369   .     A
C94    C447    1.415   .     S
C95    Cl150   1.760   .     S
C95    C798    1.415   1_554 S
C95    N332    1.369   .     S
C96    Cl151   1.760   .     S
C96    C445    1.415   .     S
C96    N155    1.369   .     S
C97    Cl152   1.778   .     S
C97    C108    1.378   .     A
C97    C116    1.410   .     A
C98    C115    1.410   .     A
C98    Cl130   1.778   .     S
C98    C109    1.378   .     A
C99    C106    1.378   .     A
C99    Cl131   1.778   .     S
C99    C115    1.410   .     A
C100   C117    1.444   .     S
C100   O166    1.287   .     A
C100   O165    1.287   .     A
C101   C116    1.410   .     A
C101   C107    1.378   .     A
C101   Cl132   1.778   .     S
C102   C118    1.410   .     A
C102   Cl133   1.778   .     S
C102   C113    1.378   .     A
C103   C117    1.410   .     A
C103   C114    1.378   .     A
C103   Cl134   1.778   .     S
C104   Cl135   1.778   .     S
C104   C117    1.410   .     A
C104   C110    1.378   .     A
C105   Cl136   1.778   .     S
C105   C118    1.410   .     A
C105   C112    1.378   .     A
C106   C120    1.410   .     A
C106   Cl137   1.778   .     S
C107   C119    1.410   .     A
C107   Cl138   1.778   .     S
C108   Cl139   1.778   .     S
C108   C119    1.410   .     A
C109   C120    1.410   .     A
C109   Cl141   1.778   .     S
C110   C123    1.410   .     A
C110   Cl142   1.778   .     S
C111   O171    1.287   .     A
C111   C116    1.444   .     S
C111   O168    1.287   .     A
C112   Cl143   1.778   .     S
C112   C121    1.410   .     A
C113   Cl144   1.778   .     S
C113   C121    1.410   .     A
C114   C123    1.410   .     A
C114   Cl145   1.778   .     S
C115   C122    1.444   .     S
C119   C127    1.444   .     S
C120   C126    1.444   .     S
C121   C125    1.444   .     S
C122   O169    1.287   .     A
C122   O170    1.287   .     A
C123   C124    1.444   .     S
C124   O172    1.287   .     A
C124   O160    1.287   .     A
C125   O158    1.287   .     A
C125   O159    1.287   .     A
C126   O164    1.287   .     A
C126   O161    1.287   .     A
C127   O162    1.287   .     A
C127   O163    1.287   .     A
C128   N154    1.369   .     A
C128   Cl129   1.760   .     S
C128   C796    1.415   1_554 S
N153   Zn173   2.004   .     S
N154   Zn174   2.004   .     S
N155   C270    1.369   1_545 A
N155   Zn175   2.004   .     S
N156   Zn176   2.004   .     S
N156   C271    1.369   1_545 S
O157   Zn173   2.010   .     S
O158   Zn176   2.010   .     S
O159   Zn175   2.010   .     S
O160   Zn352   2.010   .     S
O161   Zn352   2.010   .     S
O162   Zn175   2.010   .     S
O163   Zn176   2.010   .     S
O164   Zn351   2.010   .     S
O165   Zn86    2.010   1_655 S
O166   Zn85    2.010   1_655 S
O167   Zn174   2.010   .     S
O168   Zn86    2.010   1_655 S
O169   Zn173   2.010   .     S
O170   Zn174   2.010   .     S
O171   Zn85    2.010   1_655 S
O172   Zn351   2.010   .     S
Zn175  O348    2.010   1_545 S
Zn175  O340    2.010   1_545 S
Zn176  O337    2.010   1_545 S
Zn176  O336    2.010   1_545 S
C177   O245    1.287   .     A
C177   O255    1.287   .     A
C177   C206    1.444   .     S
C178   Cl228   1.760   .     S
C178   C531    1.415   .     S
C178   N241    1.369   .     S
C179   N242    1.369   .     A
C179   C882    1.415   1_554 S
C179   Cl234   1.760   .     S
C180   N241    1.369   .     A
C180   Cl235   1.760   .     S
C180   C568    1.415   .     S
C181   N244    1.369   .     A
C181   Cl236   1.760   .     S
C181   C888    1.415   1_554 S
C182   Cl237   1.760   .     S
C182   N67     1.369   1_565 A
C182   C535    1.415   .     S
C183   Cl238   1.760   .     S
C183   C886    1.415   1_554 S
C183   N68     1.369   1_565 S
C184   Cl239   1.760   .     S
C184   C533    1.415   .     S
C184   N243    1.369   .     S
C185   Cl240   1.778   .     S
C185   C196    1.378   .     A
C185   C204    1.410   .     A
C186   C203    1.410   .     A
C186   Cl218   1.778   .     S
C186   C197    1.378   .     A
C187   C194    1.378   .     A
C187   Cl219   1.778   .     S
C187   C203    1.410   .     A
C188   C205    1.444   .     S
C188   O254    1.287   .     A
C188   O253    1.287   .     A
C189   C204    1.410   .     A
C189   C195    1.378   .     A
C189   Cl220   1.778   .     S
C190   C206    1.410   .     A
C190   Cl221   1.778   .     S
C190   C201    1.378   .     A
C191   C205    1.410   .     A
C191   C202    1.378   .     A
C191   Cl222   1.778   .     S
C192   Cl223   1.778   .     S
C192   C205    1.410   .     A
C192   C198    1.378   .     A
C193   Cl224   1.778   .     S
C193   C206    1.410   .     A
C193   C200    1.378   .     A
C194   C208    1.410   .     A
C194   Cl225   1.778   .     S
C195   C207    1.410   .     A
C195   Cl226   1.778   .     S
C196   Cl227   1.778   .     S
C196   C207    1.410   .     A
C197   C208    1.410   .     A
C197   Cl229   1.778   .     S
C198   C211    1.410   .     A
C198   Cl230   1.778   .     S
C199   O259    1.287   .     A
C199   C204    1.444   .     S
C199   O256    1.287   .     A
C200   Cl231   1.778   .     S
C200   C209    1.410   .     A
C201   Cl232   1.778   .     S
C201   C209    1.410   .     A
C202   C211    1.410   .     A
C202   Cl233   1.778   .     S
C203   C210    1.444   .     S
C207   C215    1.444   .     S
C208   C214    1.444   .     S
C209   C213    1.444   .     S
C210   O257    1.287   .     A
C210   O258    1.287   .     A
C211   C212    1.444   .     S
C212   O260    1.287   .     A
C212   O248    1.287   .     A
C213   O246    1.287   .     A
C213   O247    1.287   .     A
C214   O252    1.287   .     A
C214   O249    1.287   .     A
C215   O250    1.287   .     A
C215   O251    1.287   .     A
C216   N242    1.369   .     A
C216   Cl217   1.760   .     S
C216   C884    1.415   1_554 S
N241   Zn261   2.004   .     S
N242   Zn262   2.004   .     S
N243   Zn263   2.004   .     S
N244   Zn264   2.004   .     S
O245   Zn261   2.010   .     S
O246   Zn264   2.010   .     S
O247   Zn263   2.010   .     S
O248   Zn88    2.010   1_565 S
O249   Zn88    2.010   1_565 S
O250   Zn263   2.010   .     S
O251   Zn264   2.010   .     S
O252   Zn87    2.010   1_565 S
O253   Zn350   2.010   .     S
O254   Zn349   2.010   .     S
O255   Zn262   2.010   .     S
O256   Zn350   2.010   .     S
O257   Zn261   2.010   .     S
O258   Zn262   2.010   .     S
O259   Zn349   2.010   .     S
O260   Zn87    2.010   1_565 S
Zn261  O342    2.010   1_455 S
Zn261  O347    2.010   1_455 S
Zn262  O344    2.010   1_455 S
Zn262  O341    2.010   1_455 S
C265   O333    1.287   .     A
C265   O343    1.287   .     A
C265   C294    1.444   .     S
C266   Cl316   1.760   .     S
C266   C619    1.415   .     S
C266   N329    1.369   .     S
C267   N330    1.369   .     A
C267   C970    1.415   1_554 S
C267   Cl322   1.760   .     S
C268   N329    1.369   .     A
C268   Cl323   1.760   .     S
C268   C656    1.415   .     S
C269   N332    1.369   .     A
C269   Cl324   1.760   .     S
C269   C976    1.415   1_554 S
C270   Cl325   1.760   .     S
C270   N155    1.369   1_565 A
C270   C623    1.415   .     S
C271   Cl326   1.760   .     S
C271   C974    1.415   1_554 S
C271   N156    1.369   1_565 S
C272   Cl327   1.760   .     S
C272   C621    1.415   .     S
C272   N331    1.369   .     S
C273   Cl328   1.778   .     S
C273   C284    1.378   .     A
C273   C292    1.410   .     A
C274   C291    1.410   .     A
C274   Cl306   1.778   .     S
C274   C285    1.378   .     A
C275   C282    1.378   .     A
C275   Cl307   1.778   .     S
C275   C291    1.410   .     A
C276   C293    1.444   .     S
C276   O342    1.287   .     A
C276   O341    1.287   .     A
C277   C292    1.410   .     A
C277   C283    1.378   .     A
C277   Cl308   1.778   .     S
C278   C294    1.410   .     A
C278   Cl309   1.778   .     S
C278   C289    1.378   .     A
C279   C293    1.410   .     A
C279   C290    1.378   .     A
C279   Cl310   1.778   .     S
C280   Cl311   1.778   .     S
C280   C293    1.410   .     A
C280   C286    1.378   .     A
C281   Cl312   1.778   .     S
C281   C294    1.410   .     A
C281   C288    1.378   .     A
C282   C296    1.410   .     A
C282   Cl313   1.778   .     S
C283   C295    1.410   .     A
C283   Cl314   1.778   .     S
C284   Cl315   1.778   .     S
C284   C295    1.410   .     A
C285   C296    1.410   .     A
C285   Cl317   1.778   .     S
C286   C299    1.410   .     A
C286   Cl318   1.778   .     S
C287   O347    1.287   .     A
C287   C292    1.444   .     S
C287   O344    1.287   .     A
C288   Cl319   1.778   .     S
C288   C297    1.410   .     A
C289   Cl320   1.778   .     S
C289   C297    1.410   .     A
C290   C299    1.410   .     A
C290   Cl321   1.778   .     S
C291   C298    1.444   .     S
C295   C303    1.444   .     S
C296   C302    1.444   .     S
C297   C301    1.444   .     S
C298   O345    1.287   .     A
C298   O346    1.287   .     A
C299   C300    1.444   .     S
C300   O348    1.287   .     A
C300   O336    1.287   .     A
C301   O334    1.287   .     A
C301   O335    1.287   .     A
C302   O340    1.287   .     A
C302   O337    1.287   .     A
C303   O338    1.287   .     A
C303   O339    1.287   .     A
C304   N330    1.369   .     A
C304   Cl305   1.760   .     S
C304   C972    1.415   1_554 S
N329   Zn349   2.004   .     S
N330   Zn350   2.004   .     S
N331   Zn351   2.004   .     S
N332   Zn352   2.004   .     S
O333   Zn349   2.010   .     S
O334   Zn352   2.010   .     S
O335   Zn351   2.010   .     S
O336   Zn176   2.010   1_565 S
O337   Zn176   2.010   1_565 S
O338   Zn351   2.010   .     S
O339   Zn352   2.010   .     S
O340   Zn175   2.010   1_565 S
O341   Zn262   2.010   1_655 S
O342   Zn261   2.010   1_655 S
O343   Zn350   2.010   .     S
O344   Zn262   2.010   1_655 S
O345   Zn349   2.010   .     S
O346   Zn350   2.010   .     S
O347   Zn261   2.010   1_655 S
O348   Zn175   2.010   1_565 S
C353   O421    1.287   .     A
C353   O431    1.287   .     A
C353   C382    1.444   .     S
C354   Cl404   1.760   .     S
C354   C707    1.415   .     S
C354   N417    1.369   .     S
C355   N418    1.369   .     A
C355   Cl410   1.760   .     S
C356   N417    1.369   .     A
C356   Cl411   1.760   .     S
C356   C744    1.415   .     S
C357   N420    1.369   .     A
C357   Cl412   1.760   .     S
C358   Cl413   1.760   .     S
C358   N595    1.369   .     A
C358   C711    1.415   .     S
C359   Cl414   1.760   .     S
C359   N596    1.369   .     S
C360   Cl415   1.760   .     S
C360   C709    1.415   .     S
C360   N419    1.369   .     S
C361   Cl416   1.778   .     S
C361   C372    1.378   .     A
C361   C380    1.410   .     A
C362   C379    1.410   .     A
C362   Cl394   1.778   .     S
C362   C373    1.378   .     A
C363   C370    1.378   .     A
C363   Cl395   1.778   .     S
C363   C379    1.410   .     A
C364   C381    1.444   .     S
C364   O430    1.287   .     A
C364   O429    1.287   .     A
C365   C380    1.410   .     A
C365   C371    1.378   .     A
C365   Cl396   1.778   .     S
C366   C382    1.410   .     A
C366   Cl397   1.778   .     S
C366   C377    1.378   .     A
C367   C381    1.410   .     A
C367   C378    1.378   .     A
C367   Cl398   1.778   .     S
C368   Cl399   1.778   .     S
C368   C381    1.410   .     A
C368   C374    1.378   .     A
C369   Cl400   1.778   .     S
C369   C382    1.410   .     A
C369   C376    1.378   .     A
C370   C384    1.410   .     A
C370   Cl401   1.778   .     S
C371   C383    1.410   .     A
C371   Cl402   1.778   .     S
C372   Cl403   1.778   .     S
C372   C383    1.410   .     A
C373   C384    1.410   .     A
C373   Cl405   1.778   .     S
C374   C387    1.410   .     A
C374   Cl406   1.778   .     S
C375   O435    1.287   .     A
C375   C380    1.444   .     S
C375   O432    1.287   .     A
C376   Cl407   1.778   .     S
C376   C385    1.410   .     A
C377   Cl408   1.778   .     S
C377   C385    1.410   .     A
C378   C387    1.410   .     A
C378   Cl409   1.778   .     S
C379   C386    1.444   .     S
C383   C391    1.444   .     S
C384   C390    1.444   .     S
C385   C389    1.444   .     S
C386   O433    1.287   .     A
C386   O434    1.287   .     A
C387   C388    1.444   .     S
C388   O436    1.287   .     A
C388   O424    1.287   .     A
C389   O422    1.287   .     A
C389   O423    1.287   .     A
C390   O428    1.287   .     A
C390   O425    1.287   .     A
C391   O426    1.287   .     A
C391   O427    1.287   .     A
C392   N418    1.369   .     A
C392   Cl393   1.760   .     S
N417   Zn437   2.004   .     S
N418   Zn438   2.004   .     S
N419   C534    1.369   1_545 A
N419   Zn439   2.004   .     S
N420   Zn440   2.004   .     S
N420   C535    1.369   1_545 S
O421   Zn437   2.010   .     S
O422   Zn440   2.010   .     S
O423   Zn439   2.010   .     S
O424   Zn616   2.010   .     S
O425   Zn616   2.010   .     S
O426   Zn439   2.010   .     S
O427   Zn440   2.010   .     S
O428   Zn615   2.010   .     S
O429   Zn526   2.010   .     S
O430   Zn525   2.010   .     S
O431   Zn438   2.010   .     S
O432   Zn526   2.010   .     S
O433   Zn437   2.010   .     S
O434   Zn438   2.010   .     S
O435   Zn525   2.010   .     S
O436   Zn615   2.010   .     S
Zn437  O518    2.010   1_455 S
Zn437  O523    2.010   1_455 S
Zn438  O520    2.010   1_455 S
Zn438  O517    2.010   1_455 S
Zn439  O612    2.010   1_545 S
Zn439  O604    2.010   1_545 S
Zn440  O601    2.010   1_545 S
Zn440  O600    2.010   1_545 S
C441   O509    1.287   .     A
C441   O519    1.287   .     A
C441   C470    1.444   .     S
C442   Cl492   1.760   .     S
C442   C795    1.415   .     S
C442   N505    1.369   .     S
C443   N506    1.369   .     A
C443   Cl498   1.760   .     S
C444   N505    1.369   .     A
C444   Cl499   1.760   .     S
C444   C832    1.415   .     S
C445   N508    1.369   .     A
C445   Cl500   1.760   .     S
C446   Cl501   1.760   .     S
C446   N683    1.369   .     A
C446   C799    1.415   .     S
C447   Cl502   1.760   .     S
C447   N684    1.369   .     S
C448   Cl503   1.760   .     S
C448   C797    1.415   .     S
C448   N507    1.369   .     S
C449   Cl504   1.778   .     S
C449   C460    1.378   .     A
C449   C468    1.410   .     A
C450   C467    1.410   .     A
C450   Cl482   1.778   .     S
C450   C461    1.378   .     A
C451   C458    1.378   .     A
C451   Cl483   1.778   .     S
C451   C467    1.410   .     A
C452   C469    1.444   .     S
C452   O518    1.287   .     A
C452   O517    1.287   .     A
C453   C468    1.410   .     A
C453   C459    1.378   .     A
C453   Cl484   1.778   .     S
C454   C470    1.410   .     A
C454   Cl485   1.778   .     S
C454   C465    1.378   .     A
C455   C469    1.410   .     A
C455   C466    1.378   .     A
C455   Cl486   1.778   .     S
C456   Cl487   1.778   .     S
C456   C469    1.410   .     A
C456   C462    1.378   .     A
C457   Cl488   1.778   .     S
C457   C470    1.410   .     A
C457   C464    1.378   .     A
C458   C472    1.410   .     A
C458   Cl489   1.778   .     S
C459   C471    1.410   .     A
C459   Cl490   1.778   .     S
C460   Cl491   1.778   .     S
C460   C471    1.410   .     A
C461   C472    1.410   .     A
C461   Cl493   1.778   .     S
C462   C475    1.410   .     A
C462   Cl494   1.778   .     S
C463   O523    1.287   .     A
C463   C468    1.444   .     S
C463   O520    1.287   .     A
C464   Cl495   1.778   .     S
C464   C473    1.410   .     A
C465   Cl496   1.778   .     S
C465   C473    1.410   .     A
C466   C475    1.410   .     A
C466   Cl497   1.778   .     S
C467   C474    1.444   .     S
C471   C479    1.444   .     S
C472   C478    1.444   .     S
C473   C477    1.444   .     S
C474   O521    1.287   .     A
C474   O522    1.287   .     A
C475   C476    1.444   .     S
C476   O524    1.287   .     A
C476   O512    1.287   .     A
C477   O510    1.287   .     A
C477   O511    1.287   .     A
C478   O516    1.287   .     A
C478   O513    1.287   .     A
C479   O514    1.287   .     A
C479   O515    1.287   .     A
C480   N506    1.369   .     A
C480   Cl481   1.760   .     S
N505   Zn525   2.004   .     S
N506   Zn526   2.004   .     S
N507   C622    1.369   1_545 A
N507   Zn527   2.004   .     S
N508   Zn528   2.004   .     S
N508   C623    1.369   1_545 S
O509   Zn525   2.010   .     S
O510   Zn528   2.010   .     S
O511   Zn527   2.010   .     S
O512   Zn704   2.010   .     S
O513   Zn704   2.010   .     S
O514   Zn527   2.010   .     S
O515   Zn528   2.010   .     S
O516   Zn703   2.010   .     S
O517   Zn438   2.010   1_655 S
O518   Zn437   2.010   1_655 S
O519   Zn526   2.010   .     S
O520   Zn438   2.010   1_655 S
O521   Zn525   2.010   .     S
O522   Zn526   2.010   .     S
O523   Zn437   2.010   1_655 S
O524   Zn703   2.010   .     S
Zn527  O700    2.010   1_545 S
Zn527  O692    2.010   1_545 S
Zn528  O689    2.010   1_545 S
Zn528  O688    2.010   1_545 S
C529   O597    1.287   .     A
C529   O607    1.287   .     A
C529   C558    1.444   .     S
C530   Cl580   1.760   .     S
C530   C883    1.415   .     S
C530   N593    1.369   .     S
C531   N594    1.369   .     A
C531   Cl586   1.760   .     S
C532   N593    1.369   .     A
C532   Cl587   1.760   .     S
C532   C920    1.415   .     S
C533   N596    1.369   .     A
C533   Cl588   1.760   .     S
C534   Cl589   1.760   .     S
C534   N419    1.369   1_565 A
C534   C887    1.415   .     S
C535   Cl590   1.760   .     S
C535   N420    1.369   1_565 S
C536   Cl591   1.760   .     S
C536   C885    1.415   .     S
C536   N595    1.369   .     S
C537   Cl592   1.778   .     S
C537   C548    1.378   .     A
C537   C556    1.410   .     A
C538   C555    1.410   .     A
C538   Cl570   1.778   .     S
C538   C549    1.378   .     A
C539   C546    1.378   .     A
C539   Cl571   1.778   .     S
C539   C555    1.410   .     A
C540   C557    1.444   .     S
C540   O606    1.287   .     A
C540   O605    1.287   .     A
C541   C556    1.410   .     A
C541   C547    1.378   .     A
C541   Cl572   1.778   .     S
C542   C558    1.410   .     A
C542   Cl573   1.778   .     S
C542   C553    1.378   .     A
C543   C557    1.410   .     A
C543   C554    1.378   .     A
C543   Cl574   1.778   .     S
C544   Cl575   1.778   .     S
C544   C557    1.410   .     A
C544   C550    1.378   .     A
C545   Cl576   1.778   .     S
C545   C558    1.410   .     A
C545   C552    1.378   .     A
C546   C560    1.410   .     A
C546   Cl577   1.778   .     S
C547   C559    1.410   .     A
C547   Cl578   1.778   .     S
C548   Cl579   1.778   .     S
C548   C559    1.410   .     A
C549   C560    1.410   .     A
C549   Cl581   1.778   .     S
C550   C563    1.410   .     A
C550   Cl582   1.778   .     S
C551   O611    1.287   .     A
C551   C556    1.444   .     S
C551   O608    1.287   .     A
C552   Cl583   1.778   .     S
C552   C561    1.410   .     A
C553   Cl584   1.778   .     S
C553   C561    1.410   .     A
C554   C563    1.410   .     A
C554   Cl585   1.778   .     S
C555   C562    1.444   .     S
C559   C567    1.444   .     S
C560   C566    1.444   .     S
C561   C565    1.444   .     S
C562   O609    1.287   .     A
C562   O610    1.287   .     A
C563   C564    1.444   .     S
C564   O612    1.287   .     A
C564   O600    1.287   .     A
C565   O598    1.287   .     A
C565   O599    1.287   .     A
C566   O604    1.287   .     A
C566   O601    1.287   .     A
C567   O602    1.287   .     A
C567   O603    1.287   .     A
C568   N594    1.369   .     A
C568   Cl569   1.760   .     S
N593   Zn613   2.004   .     S
N594   Zn614   2.004   .     S
N595   Zn615   2.004   .     S
N596   Zn616   2.004   .     S
O597   Zn613   2.010   .     S
O598   Zn616   2.010   .     S
O599   Zn615   2.010   .     S
O600   Zn440   2.010   1_565 S
O601   Zn440   2.010   1_565 S
O602   Zn615   2.010   .     S
O603   Zn616   2.010   .     S
O604   Zn439   2.010   1_565 S
O605   Zn702   2.010   .     S
O606   Zn701   2.010   .     S
O607   Zn614   2.010   .     S
O608   Zn702   2.010   .     S
O609   Zn613   2.010   .     S
O610   Zn614   2.010   .     S
O611   Zn701   2.010   .     S
O612   Zn439   2.010   1_565 S
Zn613  O694    2.010   1_455 S
Zn613  O699    2.010   1_455 S
Zn614  O696    2.010   1_455 S
Zn614  O693    2.010   1_455 S
C617   O685    1.287   .     A
C617   O695    1.287   .     A
C617   C646    1.444   .     S
C618   Cl668   1.760   .     S
C618   C971    1.415   .     S
C618   N681    1.369   .     S
C619   N682    1.369   .     A
C619   Cl674   1.760   .     S
C620   N681    1.369   .     A
C620   Cl675   1.760   .     S
C620   C1008   1.415   .     S
C621   N684    1.369   .     A
C621   Cl676   1.760   .     S
C622   Cl677   1.760   .     S
C622   N507    1.369   1_565 A
C622   C975    1.415   .     S
C623   Cl678   1.760   .     S
C623   N508    1.369   1_565 S
C624   Cl679   1.760   .     S
C624   C973    1.415   .     S
C624   N683    1.369   .     S
C625   Cl680   1.778   .     S
C625   C636    1.378   .     A
C625   C644    1.410   .     A
C626   C643    1.410   .     A
C626   Cl658   1.778   .     S
C626   C637    1.378   .     A
C627   C634    1.378   .     A
C627   Cl659   1.778   .     S
C627   C643    1.410   .     A
C628   C645    1.444   .     S
C628   O694    1.287   .     A
C628   O693    1.287   .     A
C629   C644    1.410   .     A
C629   C635    1.378   .     A
C629   Cl660   1.778   .     S
C630   C646    1.410   .     A
C630   Cl661   1.778   .     S
C630   C641    1.378   .     A
C631   C645    1.410   .     A
C631   C642    1.378   .     A
C631   Cl662   1.778   .     S
C632   Cl663   1.778   .     S
C632   C645    1.410   .     A
C632   C638    1.378   .     A
C633   Cl664   1.778   .     S
C633   C646    1.410   .     A
C633   C640    1.378   .     A
C634   C648    1.410   .     A
C634   Cl665   1.778   .     S
C635   C647    1.410   .     A
C635   Cl666   1.778   .     S
C636   Cl667   1.778   .     S
C636   C647    1.410   .     A
C637   C648    1.410   .     A
C637   Cl669   1.778   .     S
C638   C651    1.410   .     A
C638   Cl670   1.778   .     S
C639   O699    1.287   .     A
C639   C644    1.444   .     S
C639   O696    1.287   .     A
C640   Cl671   1.778   .     S
C640   C649    1.410   .     A
C641   Cl672   1.778   .     S
C641   C649    1.410   .     A
C642   C651    1.410   .     A
C642   Cl673   1.778   .     S
C643   C650    1.444   .     S
C647   C655    1.444   .     S
C648   C654    1.444   .     S
C649   C653    1.444   .     S
C650   O697    1.287   .     A
C650   O698    1.287   .     A
C651   C652    1.444   .     S
C652   O700    1.287   .     A
C652   O688    1.287   .     A
C653   O686    1.287   .     A
C653   O687    1.287   .     A
C654   O692    1.287   .     A
C654   O689    1.287   .     A
C655   O690    1.287   .     A
C655   O691    1.287   .     A
C656   N682    1.369   .     A
C656   Cl657   1.760   .     S
N681   Zn701   2.004   .     S
N682   Zn702   2.004   .     S
N683   Zn703   2.004   .     S
N684   Zn704   2.004   .     S
O685   Zn701   2.010   .     S
O686   Zn704   2.010   .     S
O687   Zn703   2.010   .     S
O688   Zn528   2.010   1_565 S
O689   Zn528   2.010   1_565 S
O690   Zn703   2.010   .     S
O691   Zn704   2.010   .     S
O692   Zn527   2.010   1_565 S
O693   Zn614   2.010   1_655 S
O694   Zn613   2.010   1_655 S
O695   Zn702   2.010   .     S
O696   Zn614   2.010   1_655 S
O697   Zn701   2.010   .     S
O698   Zn702   2.010   .     S
O699   Zn613   2.010   1_655 S
O700   Zn527   2.010   1_565 S
C705   O773    1.287   .     A
C705   O783    1.287   .     A
C705   C734    1.444   .     S
C706   Cl756   1.760   .     S
C706   C3      1.415   1_556 S
C706   N769    1.369   .     S
C707   N770    1.369   .     A
C707   Cl762   1.760   .     S
C708   N769    1.369   .     A
C708   Cl763   1.760   .     S
C708   C40     1.415   1_556 S
C709   N772    1.369   .     A
C709   Cl764   1.760   .     S
C710   Cl765   1.760   .     S
C710   N947    1.369   .     A
C710   C7      1.415   1_556 S
C711   Cl766   1.760   .     S
C711   N948    1.369   .     S
C712   Cl767   1.760   .     S
C712   C5      1.415   1_556 S
C712   N771    1.369   .     S
C713   Cl768   1.778   .     S
C713   C724    1.378   .     A
C713   C732    1.410   .     A
C714   C731    1.410   .     A
C714   Cl746   1.778   .     S
C714   C725    1.378   .     A
C715   C722    1.378   .     A
C715   Cl747   1.778   .     S
C715   C731    1.410   .     A
C716   C733    1.444   .     S
C716   O782    1.287   .     A
C716   O781    1.287   .     A
C717   C732    1.410   .     A
C717   C723    1.378   .     A
C717   Cl748   1.778   .     S
C718   C734    1.410   .     A
C718   Cl749   1.778   .     S
C718   C729    1.378   .     A
C719   C733    1.410   .     A
C719   C730    1.378   .     A
C719   Cl750   1.778   .     S
C720   Cl751   1.778   .     S
C720   C733    1.410   .     A
C720   C726    1.378   .     A
C721   Cl752   1.778   .     S
C721   C734    1.410   .     A
C721   C728    1.378   .     A
C722   C736    1.410   .     A
C722   Cl753   1.778   .     S
C723   C735    1.410   .     A
C723   Cl754   1.778   .     S
C724   Cl755   1.778   .     S
C724   C735    1.410   .     A
C725   C736    1.410   .     A
C725   Cl757   1.778   .     S
C726   C739    1.410   .     A
C726   Cl758   1.778   .     S
C727   O787    1.287   .     A
C727   C732    1.444   .     S
C727   O784    1.287   .     A
C728   Cl759   1.778   .     S
C728   C737    1.410   .     A
C729   Cl760   1.778   .     S
C729   C737    1.410   .     A
C730   C739    1.410   .     A
C730   Cl761   1.778   .     S
C731   C738    1.444   .     S
C735   C743    1.444   .     S
C736   C742    1.444   .     S
C737   C741    1.444   .     S
C738   O785    1.287   .     A
C738   O786    1.287   .     A
C739   C740    1.444   .     S
C740   O788    1.287   .     A
C740   O776    1.287   .     A
C741   O774    1.287   .     A
C741   O775    1.287   .     A
C742   O780    1.287   .     A
C742   O777    1.287   .     A
C743   O778    1.287   .     A
C743   O779    1.287   .     A
C744   N770    1.369   .     A
C744   Cl745   1.760   .     S
N769   Zn789   2.004   .     S
N770   Zn790   2.004   .     S
N771   C886    1.369   1_545 A
N771   Zn791   2.004   .     S
N772   Zn792   2.004   .     S
N772   C887    1.369   1_545 S
O773   Zn789   2.010   .     S
O774   Zn792   2.010   .     S
O775   Zn791   2.010   .     S
O776   Zn968   2.010   .     S
O777   Zn968   2.010   .     S
O778   Zn791   2.010   .     S
O779   Zn792   2.010   .     S
O780   Zn967   2.010   .     S
O781   Zn878   2.010   .     S
O782   Zn877   2.010   .     S
O783   Zn790   2.010   .     S
O784   Zn878   2.010   .     S
O785   Zn789   2.010   .     S
O786   Zn790   2.010   .     S
O787   Zn877   2.010   .     S
O788   Zn967   2.010   .     S
Zn789  O870    2.010   1_455 S
Zn789  O875    2.010   1_455 S
Zn790  O872    2.010   1_455 S
Zn790  O869    2.010   1_455 S
Zn791  O964    2.010   1_545 S
Zn791  O956    2.010   1_545 S
Zn792  O953    2.010   1_545 S
Zn792  O952    2.010   1_545 S
C793   O861    1.287   .     A
C793   O871    1.287   .     A
C793   C822    1.444   .     S
C794   Cl844   1.760   .     S
C794   C91     1.415   1_556 S
C794   N857    1.369   .     S
C795   N858    1.369   .     A
C795   Cl850   1.760   .     S
C796   N857    1.369   .     A
C796   Cl851   1.760   .     S
C796   C128    1.415   1_556 S
C797   N860    1.369   .     A
C797   Cl852   1.760   .     S
C798   Cl853   1.760   .     S
C798   N1035   1.369   .     A
C798   C95     1.415   1_556 S
C799   Cl854   1.760   .     S
C799   N1036   1.369   .     S
C800   Cl855   1.760   .     S
C800   C93     1.415   1_556 S
C800   N859    1.369   .     S
C801   Cl856   1.778   .     S
C801   C812    1.378   .     A
C801   C820    1.410   .     A
C802   C819    1.410   .     A
C802   Cl834   1.778   .     S
C802   C813    1.378   .     A
C803   C810    1.378   .     A
C803   Cl835   1.778   .     S
C803   C819    1.410   .     A
C804   C821    1.444   .     S
C804   O870    1.287   .     A
C804   O869    1.287   .     A
C805   C820    1.410   .     A
C805   C811    1.378   .     A
C805   Cl836   1.778   .     S
C806   C822    1.410   .     A
C806   Cl837   1.778   .     S
C806   C817    1.378   .     A
C807   C821    1.410   .     A
C807   C818    1.378   .     A
C807   Cl838   1.778   .     S
C808   Cl839   1.778   .     S
C808   C821    1.410   .     A
C808   C814    1.378   .     A
C809   Cl840   1.778   .     S
C809   C822    1.410   .     A
C809   C816    1.378   .     A
C810   C824    1.410   .     A
C810   Cl841   1.778   .     S
C811   C823    1.410   .     A
C811   Cl842   1.778   .     S
C812   Cl843   1.778   .     S
C812   C823    1.410   .     A
C813   C824    1.410   .     A
C813   Cl845   1.778   .     S
C814   C827    1.410   .     A
C814   Cl846   1.778   .     S
C815   O875    1.287   .     A
C815   C820    1.444   .     S
C815   O872    1.287   .     A
C816   Cl847   1.778   .     S
C816   C825    1.410   .     A
C817   Cl848   1.778   .     S
C817   C825    1.410   .     A
C818   C827    1.410   .     A
C818   Cl849   1.778   .     S
C819   C826    1.444   .     S
C823   C831    1.444   .     S
C824   C830    1.444   .     S
C825   C829    1.444   .     S
C826   O873    1.287   .     A
C826   O874    1.287   .     A
C827   C828    1.444   .     S
C828   O876    1.287   .     A
C828   O864    1.287   .     A
C829   O862    1.287   .     A
C829   O863    1.287   .     A
C830   O868    1.287   .     A
C830   O865    1.287   .     A
C831   O866    1.287   .     A
C831   O867    1.287   .     A
C832   N858    1.369   .     A
C832   Cl833   1.760   .     S
N857   Zn877   2.004   .     S
N858   Zn878   2.004   .     S
N859   C974    1.369   1_545 A
N859   Zn879   2.004   .     S
N860   Zn880   2.004   .     S
N860   C975    1.369   1_545 S
O861   Zn877   2.010   .     S
O862   Zn880   2.010   .     S
O863   Zn879   2.010   .     S
O864   Zn1056  2.010   .     S
O865   Zn1056  2.010   .     S
O866   Zn879   2.010   .     S
O867   Zn880   2.010   .     S
O868   Zn1055  2.010   .     S
O869   Zn790   2.010   1_655 S
O870   Zn789   2.010   1_655 S
O871   Zn878   2.010   .     S
O872   Zn790   2.010   1_655 S
O873   Zn877   2.010   .     S
O874   Zn878   2.010   .     S
O875   Zn789   2.010   1_655 S
O876   Zn1055  2.010   .     S
Zn879  O1052   2.010   1_545 S
Zn879  O1044   2.010   1_545 S
Zn880  O1041   2.010   1_545 S
Zn880  O1040   2.010   1_545 S
C881   O949    1.287   .     A
C881   O959    1.287   .     A
C881   C910    1.444   .     S
C882   Cl932   1.760   .     S
C882   C179    1.415   1_556 S
C882   N945    1.369   .     S
C883   N946    1.369   .     A
C883   Cl938   1.760   .     S
C884   N945    1.369   .     A
C884   Cl939   1.760   .     S
C884   C216    1.415   1_556 S
C885   N948    1.369   .     A
C885   Cl940   1.760   .     S
C886   Cl941   1.760   .     S
C886   N771    1.369   1_565 A
C886   C183    1.415   1_556 S
C887   Cl942   1.760   .     S
C887   N772    1.369   1_565 S
C888   Cl943   1.760   .     S
C888   C181    1.415   1_556 S
C888   N947    1.369   .     S
C889   Cl944   1.778   .     S
C889   C900    1.378   .     A
C889   C908    1.410   .     A
C890   C907    1.410   .     A
C890   Cl922   1.778   .     S
C890   C901    1.378   .     A
C891   C898    1.378   .     A
C891   Cl923   1.778   .     S
C891   C907    1.410   .     A
C892   C909    1.444   .     S
C892   O958    1.287   .     A
C892   O957    1.287   .     A
C893   C908    1.410   .     A
C893   C899    1.378   .     A
C893   Cl924   1.778   .     S
C894   C910    1.410   .     A
C894   Cl925   1.778   .     S
C894   C905    1.378   .     A
C895   C909    1.410   .     A
C895   C906    1.378   .     A
C895   Cl926   1.778   .     S
C896   Cl927   1.778   .     S
C896   C909    1.410   .     A
C896   C902    1.378   .     A
C897   Cl928   1.778   .     S
C897   C910    1.410   .     A
C897   C904    1.378   .     A
C898   C912    1.410   .     A
C898   Cl929   1.778   .     S
C899   C911    1.410   .     A
C899   Cl930   1.778   .     S
C900   Cl931   1.778   .     S
C900   C911    1.410   .     A
C901   C912    1.410   .     A
C901   Cl933   1.778   .     S
C902   C915    1.410   .     A
C902   Cl934   1.778   .     S
C903   O963    1.287   .     A
C903   C908    1.444   .     S
C903   O960    1.287   .     A
C904   Cl935   1.778   .     S
C904   C913    1.410   .     A
C905   Cl936   1.778   .     S
C905   C913    1.410   .     A
C906   C915    1.410   .     A
C906   Cl937   1.778   .     S
C907   C914    1.444   .     S
C911   C919    1.444   .     S
C912   C918    1.444   .     S
C913   C917    1.444   .     S
C914   O961    1.287   .     A
C914   O962    1.287   .     A
C915   C916    1.444   .     S
C916   O964    1.287   .     A
C916   O952    1.287   .     A
C917   O950    1.287   .     A
C917   O951    1.287   .     A
C918   O956    1.287   .     A
C918   O953    1.287   .     A
C919   O954    1.287   .     A
C919   O955    1.287   .     A
C920   N946    1.369   .     A
C920   Cl921   1.760   .     S
N945   Zn965   2.004   .     S
N946   Zn966   2.004   .     S
N947   Zn967   2.004   .     S
N948   Zn968   2.004   .     S
O949   Zn965   2.010   .     S
O950   Zn968   2.010   .     S
O951   Zn967   2.010   .     S
O952   Zn792   2.010   1_565 S
O953   Zn792   2.010   1_565 S
O954   Zn967   2.010   .     S
O955   Zn968   2.010   .     S
O956   Zn791   2.010   1_565 S
O957   Zn1054  2.010   .     S
O958   Zn1053  2.010   .     S
O959   Zn966   2.010   .     S
O960   Zn1054  2.010   .     S
O961   Zn965   2.010   .     S
O962   Zn966   2.010   .     S
O963   Zn1053  2.010   .     S
O964   Zn791   2.010   1_565 S
Zn965  O1046   2.010   1_455 S
Zn965  O1051   2.010   1_455 S
Zn966  O1048   2.010   1_455 S
Zn966  O1045   2.010   1_455 S
C969   O1037   1.287   .     A
C969   O1047   1.287   .     A
C969   C998    1.444   .     S
C970   Cl1020  1.760   .     S
C970   C267    1.415   1_556 S
C970   N1033   1.369   .     S
C971   N1034   1.369   .     A
C971   Cl1026  1.760   .     S
C972   N1033   1.369   .     A
C972   Cl1027  1.760   .     S
C972   C304    1.415   1_556 S
C973   N1036   1.369   .     A
C973   Cl1028  1.760   .     S
C974   Cl1029  1.760   .     S
C974   N859    1.369   1_565 A
C974   C271    1.415   1_556 S
C975   Cl1030  1.760   .     S
C975   N860    1.369   1_565 S
C976   Cl1031  1.760   .     S
C976   C269    1.415   1_556 S
C976   N1035   1.369   .     S
C977   Cl1032  1.778   .     S
C977   C988    1.378   .     A
C977   C996    1.410   .     A
C978   C995    1.410   .     A
C978   Cl1010  1.778   .     S
C978   C989    1.378   .     A
C979   C986    1.378   .     A
C979   Cl1011  1.778   .     S
C979   C995    1.410   .     A
C980   C997    1.444   .     S
C980   O1046   1.287   .     A
C980   O1045   1.287   .     A
C981   C996    1.410   .     A
C981   C987    1.378   .     A
C981   Cl1012  1.778   .     S
C982   C998    1.410   .     A
C982   Cl1013  1.778   .     S
C982   C993    1.378   .     A
C983   C997    1.410   .     A
C983   C994    1.378   .     A
C983   Cl1014  1.778   .     S
C984   Cl1015  1.778   .     S
C984   C997    1.410   .     A
C984   C990    1.378   .     A
C985   Cl1016  1.778   .     S
C985   C998    1.410   .     A
C985   C992    1.378   .     A
C986   C1000   1.410   .     A
C986   Cl1017  1.778   .     S
C987   C999    1.410   .     A
C987   Cl1018  1.778   .     S
C988   Cl1019  1.778   .     S
C988   C999    1.410   .     A
C989   C1000   1.410   .     A
C989   Cl1021  1.778   .     S
C990   C1003   1.410   .     A
C990   Cl1022  1.778   .     S
C991   O1051   1.287   .     A
C991   C996    1.444   .     S
C991   O1048   1.287   .     A
C992   Cl1023  1.778   .     S
C992   C1001   1.410   .     A
C993   Cl1024  1.778   .     S
C993   C1001   1.410   .     A
C994   C1003   1.410   .     A
C994   Cl1025  1.778   .     S
C995   C1002   1.444   .     S
C999   C1007   1.444   .     S
C1000  C1006   1.444   .     S
C1001  C1005   1.444   .     S
C1002  O1049   1.287   .     A
C1002  O1050   1.287   .     A
C1003  C1004   1.444   .     S
C1004  O1052   1.287   .     A
C1004  O1040   1.287   .     A
C1005  O1038   1.287   .     A
C1005  O1039   1.287   .     A
C1006  O1044   1.287   .     A
C1006  O1041   1.287   .     A
C1007  O1042   1.287   .     A
C1007  O1043   1.287   .     A
C1008  N1034   1.369   .     A
C1008  Cl1009  1.760   .     S
N1033  Zn1053  2.004   .     S
N1034  Zn1054  2.004   .     S
N1035  Zn1055  2.004   .     S
N1036  Zn1056  2.004   .     S
O1037  Zn1053  2.010   .     S
O1038  Zn1056  2.010   .     S
O1039  Zn1055  2.010   .     S
O1040  Zn880   2.010   1_565 S
O1041  Zn880   2.010   1_565 S
O1042  Zn1055  2.010   .     S
O1043  Zn1056  2.010   .     S
O1044  Zn879   2.010   1_565 S
O1045  Zn966   2.010   1_655 S
O1046  Zn965   2.010   1_655 S
O1047  Zn1054  2.010   .     S
O1048  Zn966   2.010   1_655 S
O1049  Zn1053  2.010   .     S
O1050  Zn1054  2.010   .     S
O1051  Zn965   2.010   1_655 S
O1052  Zn879   2.010   1_565 S
