data_str_m2_o1_o18_pcu_sym.6
_audit_creation_date              2020-01-03
_audit_creation_method            'Materials Studio'
_symmetry_space_group_name_H-M    'P1'
_symmetry_Int_Tables_number       1
_symmetry_cell_setting            triclinic
loop_
_symmetry_equiv_pos_as_xyz
  x,y,z
_cell_length_a                    28.4906
_cell_length_b                    32.5601
_cell_length_c                    31.0076
_cell_angle_alpha                 91.0558
_cell_angle_beta                  74.3105
_cell_angle_gamma                 90.9912
loop_
_atom_site_label
_atom_site_type_symbol
_atom_site_fract_x
_atom_site_fract_y
_atom_site_fract_z
_atom_site_U_iso_or_equiv
_atom_site_adp_type
_atom_site_occupancy
C1     C     0.33333   0.08741   0.24831   0.00000  Uiso   1.00
C2     C     0.03231   0.02369   0.26684   0.00000  Uiso   1.00
C3     C     0.00135   0.29074   0.25116   0.00000  Uiso   1.00
C4     C     0.33289   0.04284   0.24756   0.00000  Uiso   1.00
C5     C     0.18207   0.14404   0.28033   0.00000  Uiso   1.00
C6     C     0.15119   0.18954   0.21990   0.00000  Uiso   1.00
C7     C     0.13245   0.14396   0.28022   0.00000  Uiso   1.00
C8     C     0.20086   0.18945   0.21984   0.00000  Uiso   1.00
C9     C     0.30598   0.16708   0.33600   0.00000  Uiso   1.00
C10    C     0.02741   0.16415   0.16391   0.00000  Uiso   1.00
C11    C     0.29022   0.17246   0.38467   0.00000  Uiso   1.00
C12    C     0.00023   0.24603   0.25126   0.00000  Uiso   1.00
C13    C     0.04278   0.15772   0.11492   0.00000  Uiso   1.00
C14    C     0.29663   0.21019   0.45030   0.00000  Uiso   1.00
C15    C     0.02397   0.13777   0.04571   0.00000  Uiso   1.00
C16    C     0.31642   0.19830   0.40610   0.00000  Uiso   1.00
C17    C     0.00859   0.14734   0.09138   0.00000  Uiso   1.00
C18    C     0.24514   0.15585   0.40856   0.00000  Uiso   1.00
C19    C     0.09257   0.15882   0.09165   0.00000  Uiso   1.00
C20    C     0.22132   0.17171   0.45182   0.00000  Uiso   1.00
C21    C     0.10650   0.15918   0.04436   0.00000  Uiso   1.00
C22    C     0.24897   0.19801   0.47361   0.00000  Uiso   1.00
C23    C     0.18136   0.19915   0.04020   0.00000  Uiso   1.00
C24    C     0.07315   0.14355   0.02144   0.00000  Uiso   1.00
C25    C     0.17153   0.16224   0.47424   0.00000  Uiso   1.00
C26    C     0.15364   0.17264   0.02007   0.00000  Uiso   1.00
C27    C     0.14565   0.11560   0.11050   0.00000  Uiso   1.00
C28    C     0.18017   0.11068   0.13979   0.00000  Uiso   1.00
C29    C     0.24577   0.08665   0.39712   0.00000  Uiso   1.00
C30    C     0.22723   0.05201   0.37224   0.00000  Uiso   1.00
C31    C     0.13822   0.14465   0.45228   0.00000  Uiso   1.00
C32    C     0.22819   0.21203   0.01786   0.00000  Uiso   1.00
C33    C     0.09014   0.13435   0.47525   0.00000  Uiso   1.00
C34    C     0.30146   0.01910   0.22844   0.00000  Uiso   1.00
C35    C     0.03439   0.31464   0.26846   0.00000  Uiso   1.00
C36    C     0.30200   0.31000   0.23167   0.00000  Uiso   1.00
Cu37   Cu    0.04689   0.16667   0.25000   0.00000  Uiso   1.00
Cu38   Cu    0.28645   0.16666   0.25000   0.00000  Uiso   1.00
H39    H     0.30354   0.14449   0.10866   0.00000  Uiso   1.00
H40    H     0.13998   0.20779   0.19573   0.00000  Uiso   1.00
H41    H     0.10623   0.12562   0.30421   0.00000  Uiso   1.00
H42    H     0.22710   0.20766   0.19566   0.00000  Uiso   1.00
H43    H     0.29260   0.30638   0.03386   0.00000  Uiso   1.00
H44    H     0.06302   0.08225   0.37863   0.00000  Uiso   1.00
H45    H     0.16637   0.10891   0.07521   0.00000  Uiso   1.00
H46    H     0.11543   0.09260   0.12116   0.00000  Uiso   1.00
H47    H     0.15961   0.11259   0.17566   0.00000  Uiso   1.00
H48    H     0.19780   0.08021   0.13320   0.00000  Uiso   1.00
H49    H     0.20888   0.13504   0.13235   0.00000  Uiso   1.00
H50    H     0.01888   0.20957   0.38867   0.00000  Uiso   1.00
H51    H     0.23466   0.07993   0.43360   0.00000  Uiso   1.00
H52    H     0.28635   0.08750   0.38488   0.00000  Uiso   1.00
H53    H     0.23833   0.05783   0.33565   0.00000  Uiso   1.00
H54    H     0.24284   0.02240   0.37849   0.00000  Uiso   1.00
H55    H     0.18683   0.04986   0.38397   0.00000  Uiso   1.00
H56    H     0.19839   0.03720   0.25364   0.00000  Uiso   1.00
H57    H     0.08505   0.24008   0.32879   0.00000  Uiso   1.00
H58    H     0.31888   0.22997   0.46523   0.00000  Uiso   1.00
H59    H     0.32990   0.12723   0.02980   0.00000  Uiso   1.00
H60    H     0.16543   0.21212   0.07308   0.00000  Uiso   1.00
H61    H     0.14758   0.14079   0.41655   0.00000  Uiso   1.00
H62    H     0.27765   0.29162   0.21748   0.00000  Uiso   1.00
H63    H     0.05667   0.04218   0.28089   0.00000  Uiso   1.00
H64    H     0.19329   0.12572   0.30446   0.00000  Uiso   1.00
N65    N     0.11736   0.16668   0.24999   0.00000  Uiso   1.00
N66    N     0.21597   0.16666   0.25001   0.00000  Uiso   1.00
O67    O     0.03958   0.10655   0.25000   0.00000  Uiso   1.00
O68    O     0.30540   0.22656   0.05014   0.00000  Uiso   1.00
O69    O     0.27314   0.28984   0.01762   0.00000  Uiso   1.00
O70    O     0.04438   0.06348   0.46790   0.00000  Uiso   1.00
O71    O     0.00778   0.12551   0.44892   0.00000  Uiso   1.00
O72    O     0.08568   0.09806   0.39207   0.00000  Uiso   1.00
O73    O     0.12758   0.15612   0.11508   0.00000  Uiso   1.00
O74    O     0.22537   0.12392   0.38888   0.00000  Uiso   1.00
O75    O     0.29010   0.07343   0.16780   0.00000  Uiso   1.00
O76    O     0.24712   0.00766   0.16983   0.00000  Uiso   1.00
O77    O     0.21350   0.06023   0.23403   0.00000  Uiso   1.00
O78    O     0.29375   0.22678   0.25000   0.00000  Uiso   1.00
O79    O     0.12088   0.27881   0.25392   0.00000  Uiso   1.00
O80    O     0.09894   0.32684   0.31748   0.00000  Uiso   1.00
O81    O     0.05634   0.25558   0.32618   0.00000  Uiso   1.00
O82    O     0.29372   0.10654   0.25000   0.00000  Uiso   1.00
O83    O     0.03961   0.22679   0.25000   0.00000  Uiso   1.00
O84    O     0.01852   0.16668   0.31492   0.00000  Uiso   1.00
O85    O     0.31481   0.16666   0.18508   0.00000  Uiso   1.00
O86    O     0.27267   0.16667   0.31492   0.00000  Uiso   1.00
O87    O     0.06067   0.16667   0.18508   0.00000  Uiso   1.00
O88    O     0.22802   0.25610   0.09300   0.00000  Uiso   1.00
S89    S     0.25920   0.24613   0.04666   0.00000  Uiso   1.00
S90    S     0.05508   0.10476   0.44624   0.00000  Uiso   1.00
S91    S     0.26315   0.04020   0.19803   0.00000  Uiso   1.00
S92    S     0.07956   0.29427   0.29159   0.00000  Uiso   1.00
C93    C     0.66666   0.08741   0.24831   0.00000  Uiso   1.00
C94    C     0.36564   0.02369   0.26684   0.00000  Uiso   1.00
C95    C     0.33469   0.29074   0.25116   0.00000  Uiso   1.00
C96    C     0.66622   0.04284   0.24756   0.00000  Uiso   1.00
C97    C     0.51540   0.14404   0.28033   0.00000  Uiso   1.00
C98    C     0.48453   0.18954   0.21990   0.00000  Uiso   1.00
C99    C     0.46579   0.14396   0.28022   0.00000  Uiso   1.00
C100   C     0.53419   0.18945   0.21984   0.00000  Uiso   1.00
C101   C     0.63931   0.16708   0.33600   0.00000  Uiso   1.00
C102   C     0.36075   0.16415   0.16391   0.00000  Uiso   1.00
C103   C     0.62356   0.17246   0.38467   0.00000  Uiso   1.00
C104   C     0.33356   0.24603   0.25126   0.00000  Uiso   1.00
C105   C     0.37611   0.15772   0.11492   0.00000  Uiso   1.00
C106   C     0.62996   0.21019   0.45030   0.00000  Uiso   1.00
C107   C     0.35730   0.13777   0.04571   0.00000  Uiso   1.00
C108   C     0.64976   0.19830   0.40610   0.00000  Uiso   1.00
C109   C     0.34192   0.14734   0.09138   0.00000  Uiso   1.00
C110   C     0.57847   0.15585   0.40856   0.00000  Uiso   1.00
C111   C     0.42590   0.15882   0.09165   0.00000  Uiso   1.00
C112   C     0.55466   0.17171   0.45182   0.00000  Uiso   1.00
C113   C     0.43984   0.15918   0.04436   0.00000  Uiso   1.00
C114   C     0.58230   0.19801   0.47361   0.00000  Uiso   1.00
C115   C     0.51469   0.19915   0.04020   0.00000  Uiso   1.00
C116   C     0.40649   0.14355   0.02144   0.00000  Uiso   1.00
C117   C     0.50486   0.16224   0.47424   0.00000  Uiso   1.00
C118   C     0.48698   0.17264   0.02007   0.00000  Uiso   1.00
C119   C     0.47898   0.11560   0.11050   0.00000  Uiso   1.00
C120   C     0.51351   0.11068   0.13979   0.00000  Uiso   1.00
C121   C     0.57910   0.08665   0.39712   0.00000  Uiso   1.00
C122   C     0.56057   0.05201   0.37224   0.00000  Uiso   1.00
C123   C     0.47155   0.14465   0.45228   0.00000  Uiso   1.00
C124   C     0.56153   0.21203   0.01786   0.00000  Uiso   1.00
C125   C     0.42348   0.13435   0.47525   0.00000  Uiso   1.00
C126   C     0.63480   0.01910   0.22844   0.00000  Uiso   1.00
C127   C     0.36772   0.31464   0.26846   0.00000  Uiso   1.00
C128   C     0.63533   0.31000   0.23167   0.00000  Uiso   1.00
Cu129  Cu    0.38022   0.16667   0.25000   0.00000  Uiso   1.00
Cu130  Cu    0.61978   0.16666   0.25000   0.00000  Uiso   1.00
H131   H     0.63688   0.14449   0.10866   0.00000  Uiso   1.00
H132   H     0.47331   0.20779   0.19573   0.00000  Uiso   1.00
H133   H     0.43956   0.12562   0.30421   0.00000  Uiso   1.00
H134   H     0.56043   0.20766   0.19566   0.00000  Uiso   1.00
H135   H     0.62594   0.30638   0.03386   0.00000  Uiso   1.00
H136   H     0.39635   0.08225   0.37863   0.00000  Uiso   1.00
H137   H     0.49970   0.10891   0.07521   0.00000  Uiso   1.00
H138   H     0.44876   0.09260   0.12116   0.00000  Uiso   1.00
H139   H     0.49295   0.11259   0.17566   0.00000  Uiso   1.00
H140   H     0.53113   0.08021   0.13320   0.00000  Uiso   1.00
H141   H     0.54222   0.13504   0.13235   0.00000  Uiso   1.00
H142   H     0.35221   0.20957   0.38867   0.00000  Uiso   1.00
H143   H     0.56799   0.07993   0.43360   0.00000  Uiso   1.00
H144   H     0.61968   0.08750   0.38488   0.00000  Uiso   1.00
H145   H     0.57167   0.05783   0.33565   0.00000  Uiso   1.00
H146   H     0.57617   0.02240   0.37849   0.00000  Uiso   1.00
H147   H     0.52016   0.04986   0.38397   0.00000  Uiso   1.00
H148   H     0.53172   0.03720   0.25364   0.00000  Uiso   1.00
H149   H     0.41838   0.24008   0.32879   0.00000  Uiso   1.00
H150   H     0.65221   0.22997   0.46523   0.00000  Uiso   1.00
H151   H     0.66323   0.12723   0.02980   0.00000  Uiso   1.00
H152   H     0.49877   0.21212   0.07308   0.00000  Uiso   1.00
H153   H     0.48092   0.14079   0.41655   0.00000  Uiso   1.00
H154   H     0.61099   0.29162   0.21748   0.00000  Uiso   1.00
H155   H     0.39000   0.04218   0.28089   0.00000  Uiso   1.00
H156   H     0.52662   0.12572   0.30446   0.00000  Uiso   1.00
N157   N     0.45069   0.16668   0.24999   0.00000  Uiso   1.00
N158   N     0.54931   0.16666   0.25001   0.00000  Uiso   1.00
O159   O     0.37291   0.10655   0.25000   0.00000  Uiso   1.00
O160   O     0.63873   0.22656   0.05014   0.00000  Uiso   1.00
O161   O     0.60647   0.28984   0.01762   0.00000  Uiso   1.00
O162   O     0.37771   0.06348   0.46790   0.00000  Uiso   1.00
O163   O     0.34111   0.12551   0.44892   0.00000  Uiso   1.00
O164   O     0.41902   0.09806   0.39207   0.00000  Uiso   1.00
O165   O     0.46091   0.15612   0.11508   0.00000  Uiso   1.00
O166   O     0.55870   0.12392   0.38888   0.00000  Uiso   1.00
O167   O     0.62343   0.07343   0.16780   0.00000  Uiso   1.00
O168   O     0.58045   0.00766   0.16983   0.00000  Uiso   1.00
O169   O     0.54683   0.06023   0.23403   0.00000  Uiso   1.00
O170   O     0.62709   0.22678   0.25000   0.00000  Uiso   1.00
O171   O     0.45421   0.27881   0.25392   0.00000  Uiso   1.00
O172   O     0.43227   0.32684   0.31748   0.00000  Uiso   1.00
O173   O     0.38967   0.25558   0.32618   0.00000  Uiso   1.00
O174   O     0.62706   0.10654   0.25000   0.00000  Uiso   1.00
O175   O     0.37294   0.22679   0.25000   0.00000  Uiso   1.00
O176   O     0.35186   0.16668   0.31492   0.00000  Uiso   1.00
O177   O     0.64814   0.16666   0.18508   0.00000  Uiso   1.00
O178   O     0.60600   0.16667   0.31492   0.00000  Uiso   1.00
O179   O     0.39400   0.16667   0.18508   0.00000  Uiso   1.00
O180   O     0.56136   0.25610   0.09300   0.00000  Uiso   1.00
S181   S     0.59253   0.24613   0.04666   0.00000  Uiso   1.00
S182   S     0.38841   0.10476   0.44624   0.00000  Uiso   1.00
S183   S     0.59649   0.04020   0.19803   0.00000  Uiso   1.00
S184   S     0.41290   0.29427   0.29159   0.00000  Uiso   1.00
C185   C     1.00000   0.08741   0.24831   0.00000  Uiso   1.00
C186   C     0.69897   0.02369   0.26684   0.00000  Uiso   1.00
C187   C     0.66802   0.29074   0.25116   0.00000  Uiso   1.00
C188   C     0.99956   0.04284   0.24756   0.00000  Uiso   1.00
C189   C     0.84874   0.14404   0.28033   0.00000  Uiso   1.00
C190   C     0.81786   0.18954   0.21990   0.00000  Uiso   1.00
C191   C     0.79912   0.14396   0.28022   0.00000  Uiso   1.00
C192   C     0.86753   0.18945   0.21984   0.00000  Uiso   1.00
C193   C     0.97264   0.16708   0.33600   0.00000  Uiso   1.00
C194   C     0.69408   0.16415   0.16391   0.00000  Uiso   1.00
C195   C     0.95689   0.17246   0.38467   0.00000  Uiso   1.00
C196   C     0.66690   0.24603   0.25126   0.00000  Uiso   1.00
C197   C     0.70944   0.15772   0.11492   0.00000  Uiso   1.00
C198   C     0.96329   0.21019   0.45030   0.00000  Uiso   1.00
C199   C     0.69063   0.13777   0.04571   0.00000  Uiso   1.00
C200   C     0.98309   0.19830   0.40610   0.00000  Uiso   1.00
C201   C     0.67526   0.14734   0.09138   0.00000  Uiso   1.00
C202   C     0.91180   0.15585   0.40856   0.00000  Uiso   1.00
C203   C     0.75924   0.15882   0.09165   0.00000  Uiso   1.00
C204   C     0.88799   0.17171   0.45182   0.00000  Uiso   1.00
C205   C     0.77317   0.15918   0.04436   0.00000  Uiso   1.00
C206   C     0.91563   0.19801   0.47361   0.00000  Uiso   1.00
C207   C     0.84803   0.19915   0.04020   0.00000  Uiso   1.00
C208   C     0.73982   0.14355   0.02144   0.00000  Uiso   1.00
C209   C     0.83820   0.16224   0.47424   0.00000  Uiso   1.00
C210   C     0.82031   0.17264   0.02007   0.00000  Uiso   1.00
C211   C     0.81231   0.11560   0.11050   0.00000  Uiso   1.00
C212   C     0.84684   0.11068   0.13979   0.00000  Uiso   1.00
C213   C     0.91243   0.08665   0.39712   0.00000  Uiso   1.00
C214   C     0.89390   0.05201   0.37224   0.00000  Uiso   1.00
C215   C     0.80488   0.14465   0.45228   0.00000  Uiso   1.00
C216   C     0.89486   0.21203   0.01786   0.00000  Uiso   1.00
C217   C     0.75681   0.13435   0.47525   0.00000  Uiso   1.00
C218   C     0.96813   0.01910   0.22844   0.00000  Uiso   1.00
C219   C     0.70106   0.31464   0.26846   0.00000  Uiso   1.00
C220   C     0.96867   0.31000   0.23167   0.00000  Uiso   1.00
Cu221  Cu    0.71355   0.16667   0.25000   0.00000  Uiso   1.00
Cu222  Cu    0.95311   0.16666   0.25000   0.00000  Uiso   1.00
H223   H     0.97021   0.14449   0.10866   0.00000  Uiso   1.00
H224   H     0.80664   0.20779   0.19573   0.00000  Uiso   1.00
H225   H     0.77289   0.12562   0.30421   0.00000  Uiso   1.00
H226   H     0.89377   0.20766   0.19566   0.00000  Uiso   1.00
H227   H     0.95927   0.30638   0.03386   0.00000  Uiso   1.00
H228   H     0.72969   0.08225   0.37863   0.00000  Uiso   1.00
H229   H     0.83303   0.10891   0.07521   0.00000  Uiso   1.00
H230   H     0.78210   0.09260   0.12116   0.00000  Uiso   1.00
H231   H     0.82628   0.11259   0.17566   0.00000  Uiso   1.00
H232   H     0.86447   0.08021   0.13320   0.00000  Uiso   1.00
H233   H     0.87555   0.13504   0.13235   0.00000  Uiso   1.00
H234   H     0.68554   0.20957   0.38867   0.00000  Uiso   1.00
H235   H     0.90133   0.07993   0.43360   0.00000  Uiso   1.00
H236   H     0.95301   0.08750   0.38488   0.00000  Uiso   1.00
H237   H     0.90500   0.05783   0.33565   0.00000  Uiso   1.00
H238   H     0.90951   0.02240   0.37849   0.00000  Uiso   1.00
H239   H     0.85349   0.04986   0.38397   0.00000  Uiso   1.00
H240   H     0.86505   0.03720   0.25364   0.00000  Uiso   1.00
H241   H     0.75172   0.24008   0.32879   0.00000  Uiso   1.00
H242   H     0.98554   0.22997   0.46523   0.00000  Uiso   1.00
H243   H     0.99656   0.12723   0.02980   0.00000  Uiso   1.00
H244   H     0.83210   0.21212   0.07308   0.00000  Uiso   1.00
H245   H     0.81425   0.14079   0.41655   0.00000  Uiso   1.00
H246   H     0.94432   0.29162   0.21748   0.00000  Uiso   1.00
H247   H     0.72334   0.04218   0.28089   0.00000  Uiso   1.00
H248   H     0.85995   0.12572   0.30446   0.00000  Uiso   1.00
N249   N     0.78403   0.16668   0.24999   0.00000  Uiso   1.00
N250   N     0.88264   0.16666   0.25001   0.00000  Uiso   1.00
O251   O     0.70625   0.10655   0.25000   0.00000  Uiso   1.00
O252   O     0.97206   0.22656   0.05014   0.00000  Uiso   1.00
O253   O     0.93981   0.28984   0.01762   0.00000  Uiso   1.00
O254   O     0.71105   0.06348   0.46790   0.00000  Uiso   1.00
O255   O     0.67445   0.12551   0.44892   0.00000  Uiso   1.00
O256   O     0.75235   0.09806   0.39207   0.00000  Uiso   1.00
O257   O     0.79425   0.15612   0.11508   0.00000  Uiso   1.00
O258   O     0.89203   0.12392   0.38888   0.00000  Uiso   1.00
O259   O     0.95676   0.07343   0.16780   0.00000  Uiso   1.00
O260   O     0.91379   0.00766   0.16983   0.00000  Uiso   1.00
O261   O     0.88017   0.06023   0.23403   0.00000  Uiso   1.00
O262   O     0.96042   0.22678   0.25000   0.00000  Uiso   1.00
O263   O     0.78754   0.27881   0.25392   0.00000  Uiso   1.00
O264   O     0.76560   0.32684   0.31748   0.00000  Uiso   1.00
O265   O     0.72301   0.25558   0.32618   0.00000  Uiso   1.00
O266   O     0.96039   0.10654   0.25000   0.00000  Uiso   1.00
O267   O     0.70628   0.22679   0.25000   0.00000  Uiso   1.00
O268   O     0.68519   0.16668   0.31492   0.00000  Uiso   1.00
O269   O     0.98148   0.16666   0.18508   0.00000  Uiso   1.00
O270   O     0.93933   0.16667   0.31492   0.00000  Uiso   1.00
O271   O     0.72733   0.16667   0.18508   0.00000  Uiso   1.00
O272   O     0.89469   0.25610   0.09300   0.00000  Uiso   1.00
S273   S     0.92586   0.24613   0.04666   0.00000  Uiso   1.00
S274   S     0.72175   0.10476   0.44624   0.00000  Uiso   1.00
S275   S     0.92982   0.04020   0.19803   0.00000  Uiso   1.00
S276   S     0.74623   0.29427   0.29159   0.00000  Uiso   1.00
C277   C     0.33333   0.42074   0.24831   0.00000  Uiso   1.00
C278   C     0.03231   0.35703   0.26684   0.00000  Uiso   1.00
C279   C     0.00135   0.62407   0.25116   0.00000  Uiso   1.00
C280   C     0.33289   0.37617   0.24756   0.00000  Uiso   1.00
C281   C     0.18207   0.47738   0.28033   0.00000  Uiso   1.00
C282   C     0.15119   0.52287   0.21990   0.00000  Uiso   1.00
C283   C     0.13245   0.47729   0.28022   0.00000  Uiso   1.00
C284   C     0.20086   0.52279   0.21984   0.00000  Uiso   1.00
C285   C     0.30598   0.50042   0.33600   0.00000  Uiso   1.00
C286   C     0.02741   0.49749   0.16391   0.00000  Uiso   1.00
C287   C     0.29022   0.50580   0.38467   0.00000  Uiso   1.00
C288   C     0.00023   0.57936   0.25126   0.00000  Uiso   1.00
C289   C     0.04278   0.49106   0.11492   0.00000  Uiso   1.00
C290   C     0.29663   0.54352   0.45030   0.00000  Uiso   1.00
C291   C     0.02397   0.47110   0.04571   0.00000  Uiso   1.00
C292   C     0.31642   0.53164   0.40610   0.00000  Uiso   1.00
C293   C     0.00859   0.48067   0.09138   0.00000  Uiso   1.00
C294   C     0.24514   0.48918   0.40856   0.00000  Uiso   1.00
C295   C     0.09257   0.49215   0.09165   0.00000  Uiso   1.00
C296   C     0.22132   0.50505   0.45182   0.00000  Uiso   1.00
C297   C     0.10650   0.49251   0.04436   0.00000  Uiso   1.00
C298   C     0.24897   0.53134   0.47361   0.00000  Uiso   1.00
C299   C     0.18136   0.53248   0.04020   0.00000  Uiso   1.00
C300   C     0.07315   0.47689   0.02144   0.00000  Uiso   1.00
C301   C     0.17153   0.49557   0.47424   0.00000  Uiso   1.00
C302   C     0.15364   0.50598   0.02007   0.00000  Uiso   1.00
C303   C     0.14565   0.44893   0.11050   0.00000  Uiso   1.00
C304   C     0.18017   0.44402   0.13979   0.00000  Uiso   1.00
C305   C     0.24577   0.41998   0.39712   0.00000  Uiso   1.00
C306   C     0.22723   0.38534   0.37224   0.00000  Uiso   1.00
C307   C     0.13822   0.47798   0.45228   0.00000  Uiso   1.00
C308   C     0.22819   0.54536   0.01786   0.00000  Uiso   1.00
C309   C     0.09014   0.46768   0.47525   0.00000  Uiso   1.00
C310   C     0.30146   0.35243   0.22844   0.00000  Uiso   1.00
C311   C     0.03439   0.64797   0.26846   0.00000  Uiso   1.00
C312   C     0.30200   0.64333   0.23167   0.00000  Uiso   1.00
Cu313  Cu    0.04689   0.50001   0.25000   0.00000  Uiso   1.00
Cu314  Cu    0.28645   0.49999   0.25000   0.00000  Uiso   1.00
H315   H     0.30354   0.47782   0.10866   0.00000  Uiso   1.00
H316   H     0.13998   0.54112   0.19573   0.00000  Uiso   1.00
H317   H     0.10623   0.45896   0.30421   0.00000  Uiso   1.00
H318   H     0.22710   0.54099   0.19566   0.00000  Uiso   1.00
H319   H     0.29260   0.63971   0.03386   0.00000  Uiso   1.00
H320   H     0.06302   0.41559   0.37863   0.00000  Uiso   1.00
H321   H     0.16637   0.44225   0.07521   0.00000  Uiso   1.00
H322   H     0.11543   0.42593   0.12116   0.00000  Uiso   1.00
H323   H     0.15961   0.44593   0.17566   0.00000  Uiso   1.00
H324   H     0.19780   0.41354   0.13320   0.00000  Uiso   1.00
H325   H     0.20888   0.46838   0.13235   0.00000  Uiso   1.00
H326   H     0.01888   0.54290   0.38867   0.00000  Uiso   1.00
H327   H     0.23466   0.41326   0.43360   0.00000  Uiso   1.00
H328   H     0.28635   0.42083   0.38488   0.00000  Uiso   1.00
H329   H     0.23833   0.39116   0.33565   0.00000  Uiso   1.00
H330   H     0.24284   0.35573   0.37849   0.00000  Uiso   1.00
H331   H     0.18683   0.38320   0.38397   0.00000  Uiso   1.00
H332   H     0.19839   0.37054   0.25364   0.00000  Uiso   1.00
H333   H     0.08505   0.57342   0.32879   0.00000  Uiso   1.00
H334   H     0.31888   0.56330   0.46523   0.00000  Uiso   1.00
H335   H     0.32990   0.46056   0.02980   0.00000  Uiso   1.00
H336   H     0.16543   0.54546   0.07308   0.00000  Uiso   1.00
H337   H     0.14758   0.47412   0.41655   0.00000  Uiso   1.00
H338   H     0.27765   0.62495   0.21748   0.00000  Uiso   1.00
H339   H     0.05667   0.37552   0.28089   0.00000  Uiso   1.00
H340   H     0.19329   0.45905   0.30446   0.00000  Uiso   1.00
N341   N     0.11736   0.50001   0.24999   0.00000  Uiso   1.00
N342   N     0.21597   0.49999   0.25001   0.00000  Uiso   1.00
O343   O     0.03958   0.43989   0.25000   0.00000  Uiso   1.00
O344   O     0.30540   0.55989   0.05014   0.00000  Uiso   1.00
O345   O     0.27314   0.62318   0.01762   0.00000  Uiso   1.00
O346   O     0.04438   0.39681   0.46790   0.00000  Uiso   1.00
O347   O     0.00778   0.45884   0.44892   0.00000  Uiso   1.00
O348   O     0.08568   0.43140   0.39207   0.00000  Uiso   1.00
O349   O     0.12758   0.48946   0.11508   0.00000  Uiso   1.00
O350   O     0.22537   0.45725   0.38888   0.00000  Uiso   1.00
O351   O     0.29010   0.40676   0.16780   0.00000  Uiso   1.00
O352   O     0.24712   0.34099   0.16983   0.00000  Uiso   1.00
O353   O     0.21350   0.39356   0.23403   0.00000  Uiso   1.00
O354   O     0.29375   0.56011   0.25000   0.00000  Uiso   1.00
O355   O     0.12088   0.61215   0.25392   0.00000  Uiso   1.00
O356   O     0.09894   0.66017   0.31748   0.00000  Uiso   1.00
O357   O     0.05634   0.58891   0.32618   0.00000  Uiso   1.00
O358   O     0.29372   0.43988   0.25000   0.00000  Uiso   1.00
O359   O     0.03961   0.56012   0.25000   0.00000  Uiso   1.00
O360   O     0.01852   0.50001   0.31492   0.00000  Uiso   1.00
O361   O     0.31481   0.49999   0.18508   0.00000  Uiso   1.00
O362   O     0.27267   0.50000   0.31492   0.00000  Uiso   1.00
O363   O     0.06067   0.50000   0.18508   0.00000  Uiso   1.00
O364   O     0.22802   0.58943   0.09300   0.00000  Uiso   1.00
S365   S     0.25920   0.57946   0.04666   0.00000  Uiso   1.00
S366   S     0.05508   0.43809   0.44624   0.00000  Uiso   1.00
S367   S     0.26315   0.37353   0.19803   0.00000  Uiso   1.00
S368   S     0.07956   0.62760   0.29159   0.00000  Uiso   1.00
C369   C     0.66666   0.42074   0.24831   0.00000  Uiso   1.00
C370   C     0.36564   0.35703   0.26684   0.00000  Uiso   1.00
C371   C     0.33469   0.62407   0.25116   0.00000  Uiso   1.00
C372   C     0.66622   0.37617   0.24756   0.00000  Uiso   1.00
C373   C     0.51540   0.47738   0.28033   0.00000  Uiso   1.00
C374   C     0.48453   0.52287   0.21990   0.00000  Uiso   1.00
C375   C     0.46579   0.47729   0.28022   0.00000  Uiso   1.00
C376   C     0.53419   0.52279   0.21984   0.00000  Uiso   1.00
C377   C     0.63931   0.50042   0.33600   0.00000  Uiso   1.00
C378   C     0.36075   0.49749   0.16391   0.00000  Uiso   1.00
C379   C     0.62356   0.50580   0.38467   0.00000  Uiso   1.00
C380   C     0.33356   0.57936   0.25126   0.00000  Uiso   1.00
C381   C     0.37611   0.49106   0.11492   0.00000  Uiso   1.00
C382   C     0.62996   0.54352   0.45030   0.00000  Uiso   1.00
C383   C     0.35730   0.47110   0.04571   0.00000  Uiso   1.00
C384   C     0.64976   0.53164   0.40610   0.00000  Uiso   1.00
C385   C     0.34192   0.48067   0.09138   0.00000  Uiso   1.00
C386   C     0.57847   0.48918   0.40856   0.00000  Uiso   1.00
C387   C     0.42590   0.49215   0.09165   0.00000  Uiso   1.00
C388   C     0.55466   0.50505   0.45182   0.00000  Uiso   1.00
C389   C     0.43984   0.49251   0.04436   0.00000  Uiso   1.00
C390   C     0.58230   0.53134   0.47361   0.00000  Uiso   1.00
C391   C     0.51469   0.53248   0.04020   0.00000  Uiso   1.00
C392   C     0.40649   0.47689   0.02144   0.00000  Uiso   1.00
C393   C     0.50486   0.49557   0.47424   0.00000  Uiso   1.00
C394   C     0.48698   0.50598   0.02007   0.00000  Uiso   1.00
C395   C     0.47898   0.44893   0.11050   0.00000  Uiso   1.00
C396   C     0.51351   0.44402   0.13979   0.00000  Uiso   1.00
C397   C     0.57910   0.41998   0.39712   0.00000  Uiso   1.00
C398   C     0.56057   0.38534   0.37224   0.00000  Uiso   1.00
C399   C     0.47155   0.47798   0.45228   0.00000  Uiso   1.00
C400   C     0.56153   0.54536   0.01786   0.00000  Uiso   1.00
C401   C     0.42348   0.46768   0.47525   0.00000  Uiso   1.00
C402   C     0.63480   0.35243   0.22844   0.00000  Uiso   1.00
C403   C     0.36772   0.64797   0.26846   0.00000  Uiso   1.00
C404   C     0.63533   0.64333   0.23167   0.00000  Uiso   1.00
Cu405  Cu    0.38022   0.50001   0.25000   0.00000  Uiso   1.00
Cu406  Cu    0.61978   0.49999   0.25000   0.00000  Uiso   1.00
H407   H     0.63688   0.47782   0.10866   0.00000  Uiso   1.00
H408   H     0.47331   0.54112   0.19573   0.00000  Uiso   1.00
H409   H     0.43956   0.45896   0.30421   0.00000  Uiso   1.00
H410   H     0.56043   0.54099   0.19566   0.00000  Uiso   1.00
H411   H     0.62594   0.63971   0.03386   0.00000  Uiso   1.00
H412   H     0.39635   0.41559   0.37863   0.00000  Uiso   1.00
H413   H     0.49970   0.44225   0.07521   0.00000  Uiso   1.00
H414   H     0.44876   0.42593   0.12116   0.00000  Uiso   1.00
H415   H     0.49295   0.44593   0.17566   0.00000  Uiso   1.00
H416   H     0.53113   0.41354   0.13320   0.00000  Uiso   1.00
H417   H     0.54222   0.46838   0.13235   0.00000  Uiso   1.00
H418   H     0.35221   0.54290   0.38867   0.00000  Uiso   1.00
H419   H     0.56799   0.41326   0.43360   0.00000  Uiso   1.00
H420   H     0.61968   0.42083   0.38488   0.00000  Uiso   1.00
H421   H     0.57167   0.39116   0.33565   0.00000  Uiso   1.00
H422   H     0.57617   0.35573   0.37849   0.00000  Uiso   1.00
H423   H     0.52016   0.38320   0.38397   0.00000  Uiso   1.00
H424   H     0.53172   0.37054   0.25364   0.00000  Uiso   1.00
H425   H     0.41838   0.57342   0.32879   0.00000  Uiso   1.00
H426   H     0.65221   0.56330   0.46523   0.00000  Uiso   1.00
H427   H     0.66323   0.46056   0.02980   0.00000  Uiso   1.00
H428   H     0.49877   0.54546   0.07308   0.00000  Uiso   1.00
H429   H     0.48092   0.47412   0.41655   0.00000  Uiso   1.00
H430   H     0.61099   0.62495   0.21748   0.00000  Uiso   1.00
H431   H     0.39000   0.37552   0.28089   0.00000  Uiso   1.00
H432   H     0.52662   0.45905   0.30446   0.00000  Uiso   1.00
N433   N     0.45069   0.50001   0.24999   0.00000  Uiso   1.00
N434   N     0.54931   0.49999   0.25001   0.00000  Uiso   1.00
O435   O     0.37291   0.43989   0.25000   0.00000  Uiso   1.00
O436   O     0.63873   0.55989   0.05014   0.00000  Uiso   1.00
O437   O     0.60647   0.62318   0.01762   0.00000  Uiso   1.00
O438   O     0.37771   0.39681   0.46790   0.00000  Uiso   1.00
O439   O     0.34111   0.45884   0.44892   0.00000  Uiso   1.00
O440   O     0.41902   0.43140   0.39207   0.00000  Uiso   1.00
O441   O     0.46091   0.48946   0.11508   0.00000  Uiso   1.00
O442   O     0.55870   0.45725   0.38888   0.00000  Uiso   1.00
O443   O     0.62343   0.40676   0.16780   0.00000  Uiso   1.00
O444   O     0.58045   0.34099   0.16983   0.00000  Uiso   1.00
O445   O     0.54683   0.39356   0.23403   0.00000  Uiso   1.00
O446   O     0.62709   0.56011   0.25000   0.00000  Uiso   1.00
O447   O     0.45421   0.61215   0.25392   0.00000  Uiso   1.00
O448   O     0.43227   0.66017   0.31748   0.00000  Uiso   1.00
O449   O     0.38967   0.58891   0.32618   0.00000  Uiso   1.00
O450   O     0.62706   0.43988   0.25000   0.00000  Uiso   1.00
O451   O     0.37294   0.56012   0.25000   0.00000  Uiso   1.00
O452   O     0.35186   0.50001   0.31492   0.00000  Uiso   1.00
O453   O     0.64814   0.49999   0.18508   0.00000  Uiso   1.00
O454   O     0.60600   0.50000   0.31492   0.00000  Uiso   1.00
O455   O     0.39400   0.50000   0.18508   0.00000  Uiso   1.00
O456   O     0.56136   0.58943   0.09300   0.00000  Uiso   1.00
S457   S     0.59253   0.57946   0.04666   0.00000  Uiso   1.00
S458   S     0.38841   0.43809   0.44624   0.00000  Uiso   1.00
S459   S     0.59649   0.37353   0.19803   0.00000  Uiso   1.00
S460   S     0.41290   0.62760   0.29159   0.00000  Uiso   1.00
C461   C     1.00000   0.42074   0.24831   0.00000  Uiso   1.00
C462   C     0.69897   0.35703   0.26684   0.00000  Uiso   1.00
C463   C     0.66802   0.62407   0.25116   0.00000  Uiso   1.00
C464   C     0.99956   0.37617   0.24756   0.00000  Uiso   1.00
C465   C     0.84874   0.47738   0.28033   0.00000  Uiso   1.00
C466   C     0.81786   0.52287   0.21990   0.00000  Uiso   1.00
C467   C     0.79912   0.47729   0.28022   0.00000  Uiso   1.00
C468   C     0.86753   0.52279   0.21984   0.00000  Uiso   1.00
C469   C     0.97264   0.50042   0.33600   0.00000  Uiso   1.00
C470   C     0.69408   0.49749   0.16391   0.00000  Uiso   1.00
C471   C     0.95689   0.50580   0.38467   0.00000  Uiso   1.00
C472   C     0.66690   0.57936   0.25126   0.00000  Uiso   1.00
C473   C     0.70944   0.49106   0.11492   0.00000  Uiso   1.00
C474   C     0.96329   0.54352   0.45030   0.00000  Uiso   1.00
C475   C     0.69063   0.47110   0.04571   0.00000  Uiso   1.00
C476   C     0.98309   0.53164   0.40610   0.00000  Uiso   1.00
C477   C     0.67526   0.48067   0.09138   0.00000  Uiso   1.00
C478   C     0.91180   0.48918   0.40856   0.00000  Uiso   1.00
C479   C     0.75924   0.49215   0.09165   0.00000  Uiso   1.00
C480   C     0.88799   0.50505   0.45182   0.00000  Uiso   1.00
C481   C     0.77317   0.49251   0.04436   0.00000  Uiso   1.00
C482   C     0.91563   0.53134   0.47361   0.00000  Uiso   1.00
C483   C     0.84803   0.53248   0.04020   0.00000  Uiso   1.00
C484   C     0.73982   0.47689   0.02144   0.00000  Uiso   1.00
C485   C     0.83820   0.49557   0.47424   0.00000  Uiso   1.00
C486   C     0.82031   0.50598   0.02007   0.00000  Uiso   1.00
C487   C     0.81231   0.44893   0.11050   0.00000  Uiso   1.00
C488   C     0.84684   0.44402   0.13979   0.00000  Uiso   1.00
C489   C     0.91243   0.41998   0.39712   0.00000  Uiso   1.00
C490   C     0.89390   0.38534   0.37224   0.00000  Uiso   1.00
C491   C     0.80488   0.47798   0.45228   0.00000  Uiso   1.00
C492   C     0.89486   0.54536   0.01786   0.00000  Uiso   1.00
C493   C     0.75681   0.46768   0.47525   0.00000  Uiso   1.00
C494   C     0.96813   0.35243   0.22844   0.00000  Uiso   1.00
C495   C     0.70106   0.64797   0.26846   0.00000  Uiso   1.00
C496   C     0.96867   0.64333   0.23167   0.00000  Uiso   1.00
Cu497  Cu    0.71355   0.50001   0.25000   0.00000  Uiso   1.00
Cu498  Cu    0.95311   0.49999   0.25000   0.00000  Uiso   1.00
H499   H     0.97021   0.47782   0.10866   0.00000  Uiso   1.00
H500   H     0.80664   0.54112   0.19573   0.00000  Uiso   1.00
H501   H     0.77289   0.45896   0.30421   0.00000  Uiso   1.00
H502   H     0.89377   0.54099   0.19566   0.00000  Uiso   1.00
H503   H     0.95927   0.63971   0.03386   0.00000  Uiso   1.00
H504   H     0.72969   0.41559   0.37863   0.00000  Uiso   1.00
H505   H     0.83303   0.44225   0.07521   0.00000  Uiso   1.00
H506   H     0.78210   0.42593   0.12116   0.00000  Uiso   1.00
H507   H     0.82628   0.44593   0.17566   0.00000  Uiso   1.00
H508   H     0.86447   0.41354   0.13320   0.00000  Uiso   1.00
H509   H     0.87555   0.46838   0.13235   0.00000  Uiso   1.00
H510   H     0.68554   0.54290   0.38867   0.00000  Uiso   1.00
H511   H     0.90133   0.41326   0.43360   0.00000  Uiso   1.00
H512   H     0.95301   0.42083   0.38488   0.00000  Uiso   1.00
H513   H     0.90500   0.39116   0.33565   0.00000  Uiso   1.00
H514   H     0.90951   0.35573   0.37849   0.00000  Uiso   1.00
H515   H     0.85349   0.38320   0.38397   0.00000  Uiso   1.00
H516   H     0.86505   0.37054   0.25364   0.00000  Uiso   1.00
H517   H     0.75172   0.57342   0.32879   0.00000  Uiso   1.00
H518   H     0.98554   0.56330   0.46523   0.00000  Uiso   1.00
H519   H     0.99656   0.46056   0.02980   0.00000  Uiso   1.00
H520   H     0.83210   0.54546   0.07308   0.00000  Uiso   1.00
H521   H     0.81425   0.47412   0.41655   0.00000  Uiso   1.00
H522   H     0.94432   0.62495   0.21748   0.00000  Uiso   1.00
H523   H     0.72334   0.37552   0.28089   0.00000  Uiso   1.00
H524   H     0.85995   0.45905   0.30446   0.00000  Uiso   1.00
N525   N     0.78403   0.50001   0.24999   0.00000  Uiso   1.00
N526   N     0.88264   0.49999   0.25001   0.00000  Uiso   1.00
O527   O     0.70625   0.43989   0.25000   0.00000  Uiso   1.00
O528   O     0.97206   0.55989   0.05014   0.00000  Uiso   1.00
O529   O     0.93981   0.62318   0.01762   0.00000  Uiso   1.00
O530   O     0.71105   0.39681   0.46790   0.00000  Uiso   1.00
O531   O     0.67445   0.45884   0.44892   0.00000  Uiso   1.00
O532   O     0.75235   0.43140   0.39207   0.00000  Uiso   1.00
O533   O     0.79425   0.48946   0.11508   0.00000  Uiso   1.00
O534   O     0.89203   0.45725   0.38888   0.00000  Uiso   1.00
O535   O     0.95676   0.40676   0.16780   0.00000  Uiso   1.00
O536   O     0.91379   0.34099   0.16983   0.00000  Uiso   1.00
O537   O     0.88017   0.39356   0.23403   0.00000  Uiso   1.00
O538   O     0.96042   0.56011   0.25000   0.00000  Uiso   1.00
O539   O     0.78754   0.61215   0.25392   0.00000  Uiso   1.00
O540   O     0.76560   0.66017   0.31748   0.00000  Uiso   1.00
O541   O     0.72301   0.58891   0.32618   0.00000  Uiso   1.00
O542   O     0.96039   0.43988   0.25000   0.00000  Uiso   1.00
O543   O     0.70628   0.56012   0.25000   0.00000  Uiso   1.00
O544   O     0.68519   0.50001   0.31492   0.00000  Uiso   1.00
O545   O     0.98148   0.49999   0.18508   0.00000  Uiso   1.00
O546   O     0.93933   0.50000   0.31492   0.00000  Uiso   1.00
O547   O     0.72733   0.50000   0.18508   0.00000  Uiso   1.00
O548   O     0.89469   0.58943   0.09300   0.00000  Uiso   1.00
S549   S     0.92586   0.57946   0.04666   0.00000  Uiso   1.00
S550   S     0.72175   0.43809   0.44624   0.00000  Uiso   1.00
S551   S     0.92982   0.37353   0.19803   0.00000  Uiso   1.00
S552   S     0.74623   0.62760   0.29159   0.00000  Uiso   1.00
C553   C     0.33333   0.75407   0.24831   0.00000  Uiso   1.00
C554   C     0.03231   0.69036   0.26684   0.00000  Uiso   1.00
C555   C     0.00135   0.95741   0.25116   0.00000  Uiso   1.00
C556   C     0.33289   0.70950   0.24756   0.00000  Uiso   1.00
C557   C     0.18207   0.81071   0.28033   0.00000  Uiso   1.00
C558   C     0.15119   0.85621   0.21990   0.00000  Uiso   1.00
C559   C     0.13245   0.81063   0.28022   0.00000  Uiso   1.00
C560   C     0.20086   0.85612   0.21984   0.00000  Uiso   1.00
C561   C     0.30598   0.83375   0.33600   0.00000  Uiso   1.00
C562   C     0.02741   0.83082   0.16391   0.00000  Uiso   1.00
C563   C     0.29022   0.83913   0.38467   0.00000  Uiso   1.00
C564   C     0.00023   0.91269   0.25126   0.00000  Uiso   1.00
C565   C     0.04278   0.82439   0.11492   0.00000  Uiso   1.00
C566   C     0.29663   0.87685   0.45030   0.00000  Uiso   1.00
C567   C     0.02397   0.80443   0.04571   0.00000  Uiso   1.00
C568   C     0.31642   0.86497   0.40610   0.00000  Uiso   1.00
C569   C     0.00859   0.81401   0.09138   0.00000  Uiso   1.00
C570   C     0.24514   0.82251   0.40856   0.00000  Uiso   1.00
C571   C     0.09257   0.82549   0.09165   0.00000  Uiso   1.00
C572   C     0.22132   0.83838   0.45182   0.00000  Uiso   1.00
C573   C     0.10650   0.82585   0.04436   0.00000  Uiso   1.00
C574   C     0.24897   0.86467   0.47361   0.00000  Uiso   1.00
C575   C     0.18136   0.86581   0.04020   0.00000  Uiso   1.00
C576   C     0.07315   0.81022   0.02144   0.00000  Uiso   1.00
C577   C     0.17153   0.82891   0.47424   0.00000  Uiso   1.00
C578   C     0.15364   0.83931   0.02007   0.00000  Uiso   1.00
C579   C     0.14565   0.78226   0.11050   0.00000  Uiso   1.00
C580   C     0.18017   0.77735   0.13979   0.00000  Uiso   1.00
C581   C     0.24577   0.75332   0.39712   0.00000  Uiso   1.00
C582   C     0.22723   0.71867   0.37224   0.00000  Uiso   1.00
C583   C     0.13822   0.81132   0.45228   0.00000  Uiso   1.00
C584   C     0.22819   0.87870   0.01786   0.00000  Uiso   1.00
C585   C     0.09014   0.80102   0.47525   0.00000  Uiso   1.00
C586   C     0.30146   0.68576   0.22844   0.00000  Uiso   1.00
C587   C     0.03439   0.98131   0.26846   0.00000  Uiso   1.00
C588   C     0.30200   0.97666   0.23167   0.00000  Uiso   1.00
Cu589  Cu    0.04689   0.83334   0.25000   0.00000  Uiso   1.00
Cu590  Cu    0.28645   0.83333   0.25000   0.00000  Uiso   1.00
H591   H     0.30354   0.81115   0.10866   0.00000  Uiso   1.00
H592   H     0.13998   0.87446   0.19573   0.00000  Uiso   1.00
H593   H     0.10623   0.79229   0.30421   0.00000  Uiso   1.00
H594   H     0.22710   0.87433   0.19566   0.00000  Uiso   1.00
H595   H     0.29260   0.97305   0.03386   0.00000  Uiso   1.00
H596   H     0.06302   0.74892   0.37863   0.00000  Uiso   1.00
H597   H     0.16637   0.77558   0.07521   0.00000  Uiso   1.00
H598   H     0.11543   0.75926   0.12116   0.00000  Uiso   1.00
H599   H     0.15961   0.77926   0.17566   0.00000  Uiso   1.00
H600   H     0.19780   0.74687   0.13320   0.00000  Uiso   1.00
H601   H     0.20888   0.80171   0.13235   0.00000  Uiso   1.00
H602   H     0.01888   0.87624   0.38867   0.00000  Uiso   1.00
H603   H     0.23466   0.74660   0.43360   0.00000  Uiso   1.00
H604   H     0.28635   0.75417   0.38488   0.00000  Uiso   1.00
H605   H     0.23833   0.72450   0.33565   0.00000  Uiso   1.00
H606   H     0.24284   0.68906   0.37849   0.00000  Uiso   1.00
H607   H     0.18683   0.71653   0.38397   0.00000  Uiso   1.00
H608   H     0.19839   0.70387   0.25364   0.00000  Uiso   1.00
H609   H     0.08505   0.90675   0.32879   0.00000  Uiso   1.00
H610   H     0.31888   0.89663   0.46523   0.00000  Uiso   1.00
H611   H     0.32990   0.79390   0.02980   0.00000  Uiso   1.00
H612   H     0.16543   0.87879   0.07308   0.00000  Uiso   1.00
H613   H     0.14758   0.80745   0.41655   0.00000  Uiso   1.00
H614   H     0.27765   0.95829   0.21748   0.00000  Uiso   1.00
H615   H     0.05667   0.70885   0.28089   0.00000  Uiso   1.00
H616   H     0.19329   0.79239   0.30446   0.00000  Uiso   1.00
N617   N     0.11736   0.83334   0.24999   0.00000  Uiso   1.00
N618   N     0.21597   0.83332   0.25001   0.00000  Uiso   1.00
O619   O     0.03958   0.77322   0.25000   0.00000  Uiso   1.00
O620   O     0.30540   0.89323   0.05014   0.00000  Uiso   1.00
O621   O     0.27314   0.95651   0.01762   0.00000  Uiso   1.00
O622   O     0.04438   0.73015   0.46790   0.00000  Uiso   1.00
O623   O     0.00778   0.79217   0.44892   0.00000  Uiso   1.00
O624   O     0.08568   0.76473   0.39207   0.00000  Uiso   1.00
O625   O     0.12758   0.82279   0.11508   0.00000  Uiso   1.00
O626   O     0.22537   0.79058   0.38888   0.00000  Uiso   1.00
O627   O     0.29010   0.74010   0.16780   0.00000  Uiso   1.00
O628   O     0.24712   0.67433   0.16983   0.00000  Uiso   1.00
O629   O     0.21350   0.72690   0.23403   0.00000  Uiso   1.00
O630   O     0.29375   0.89345   0.25000   0.00000  Uiso   1.00
O631   O     0.12088   0.94548   0.25392   0.00000  Uiso   1.00
O632   O     0.09894   0.99351   0.31748   0.00000  Uiso   1.00
O633   O     0.05634   0.92224   0.32618   0.00000  Uiso   1.00
O634   O     0.29372   0.77321   0.25000   0.00000  Uiso   1.00
O635   O     0.03961   0.89346   0.25000   0.00000  Uiso   1.00
O636   O     0.01852   0.83334   0.31492   0.00000  Uiso   1.00
O637   O     0.31481   0.83332   0.18508   0.00000  Uiso   1.00
O638   O     0.27267   0.83333   0.31492   0.00000  Uiso   1.00
O639   O     0.06067   0.83333   0.18508   0.00000  Uiso   1.00
O640   O     0.22802   0.92276   0.09300   0.00000  Uiso   1.00
S641   S     0.25920   0.91279   0.04666   0.00000  Uiso   1.00
S642   S     0.05508   0.77143   0.44624   0.00000  Uiso   1.00
S643   S     0.26315   0.70687   0.19803   0.00000  Uiso   1.00
S644   S     0.07956   0.96094   0.29159   0.00000  Uiso   1.00
C645   C     0.66666   0.75407   0.24831   0.00000  Uiso   1.00
C646   C     0.36564   0.69036   0.26684   0.00000  Uiso   1.00
C647   C     0.33469   0.95741   0.25116   0.00000  Uiso   1.00
C648   C     0.66622   0.70950   0.24756   0.00000  Uiso   1.00
C649   C     0.51540   0.81071   0.28033   0.00000  Uiso   1.00
C650   C     0.48453   0.85621   0.21990   0.00000  Uiso   1.00
C651   C     0.46579   0.81063   0.28022   0.00000  Uiso   1.00
C652   C     0.53419   0.85612   0.21984   0.00000  Uiso   1.00
C653   C     0.63931   0.83375   0.33600   0.00000  Uiso   1.00
C654   C     0.36075   0.83082   0.16391   0.00000  Uiso   1.00
C655   C     0.62356   0.83913   0.38467   0.00000  Uiso   1.00
C656   C     0.33356   0.91269   0.25126   0.00000  Uiso   1.00
C657   C     0.37611   0.82439   0.11492   0.00000  Uiso   1.00
C658   C     0.62996   0.87685   0.45030   0.00000  Uiso   1.00
C659   C     0.35730   0.80443   0.04571   0.00000  Uiso   1.00
C660   C     0.64976   0.86497   0.40610   0.00000  Uiso   1.00
C661   C     0.34192   0.81401   0.09138   0.00000  Uiso   1.00
C662   C     0.57847   0.82251   0.40856   0.00000  Uiso   1.00
C663   C     0.42590   0.82549   0.09165   0.00000  Uiso   1.00
C664   C     0.55466   0.83838   0.45182   0.00000  Uiso   1.00
C665   C     0.43984   0.82585   0.04436   0.00000  Uiso   1.00
C666   C     0.58230   0.86467   0.47361   0.00000  Uiso   1.00
C667   C     0.51469   0.86581   0.04020   0.00000  Uiso   1.00
C668   C     0.40649   0.81022   0.02144   0.00000  Uiso   1.00
C669   C     0.50486   0.82891   0.47424   0.00000  Uiso   1.00
C670   C     0.48698   0.83931   0.02007   0.00000  Uiso   1.00
C671   C     0.47898   0.78226   0.11050   0.00000  Uiso   1.00
C672   C     0.51351   0.77735   0.13979   0.00000  Uiso   1.00
C673   C     0.57910   0.75332   0.39712   0.00000  Uiso   1.00
C674   C     0.56057   0.71867   0.37224   0.00000  Uiso   1.00
C675   C     0.47155   0.81132   0.45228   0.00000  Uiso   1.00
C676   C     0.56153   0.87870   0.01786   0.00000  Uiso   1.00
C677   C     0.42348   0.80102   0.47525   0.00000  Uiso   1.00
C678   C     0.63480   0.68576   0.22844   0.00000  Uiso   1.00
C679   C     0.36772   0.98131   0.26846   0.00000  Uiso   1.00
C680   C     0.63533   0.97666   0.23167   0.00000  Uiso   1.00
Cu681  Cu    0.38022   0.83334   0.25000   0.00000  Uiso   1.00
Cu682  Cu    0.61978   0.83333   0.25000   0.00000  Uiso   1.00
H683   H     0.63688   0.81115   0.10866   0.00000  Uiso   1.00
H684   H     0.47331   0.87446   0.19573   0.00000  Uiso   1.00
H685   H     0.43956   0.79229   0.30421   0.00000  Uiso   1.00
H686   H     0.56043   0.87433   0.19566   0.00000  Uiso   1.00
H687   H     0.62594   0.97305   0.03386   0.00000  Uiso   1.00
H688   H     0.39635   0.74892   0.37863   0.00000  Uiso   1.00
H689   H     0.49970   0.77558   0.07521   0.00000  Uiso   1.00
H690   H     0.44876   0.75926   0.12116   0.00000  Uiso   1.00
H691   H     0.49295   0.77926   0.17566   0.00000  Uiso   1.00
H692   H     0.53113   0.74687   0.13320   0.00000  Uiso   1.00
H693   H     0.54222   0.80171   0.13235   0.00000  Uiso   1.00
H694   H     0.35221   0.87624   0.38867   0.00000  Uiso   1.00
H695   H     0.56799   0.74660   0.43360   0.00000  Uiso   1.00
H696   H     0.61968   0.75417   0.38488   0.00000  Uiso   1.00
H697   H     0.57167   0.72450   0.33565   0.00000  Uiso   1.00
H698   H     0.57617   0.68906   0.37849   0.00000  Uiso   1.00
H699   H     0.52016   0.71653   0.38397   0.00000  Uiso   1.00
H700   H     0.53172   0.70387   0.25364   0.00000  Uiso   1.00
H701   H     0.41838   0.90675   0.32879   0.00000  Uiso   1.00
H702   H     0.65221   0.89663   0.46523   0.00000  Uiso   1.00
H703   H     0.66323   0.79390   0.02980   0.00000  Uiso   1.00
H704   H     0.49877   0.87879   0.07308   0.00000  Uiso   1.00
H705   H     0.48092   0.80745   0.41655   0.00000  Uiso   1.00
H706   H     0.61099   0.95829   0.21748   0.00000  Uiso   1.00
H707   H     0.39000   0.70885   0.28089   0.00000  Uiso   1.00
H708   H     0.52662   0.79239   0.30446   0.00000  Uiso   1.00
N709   N     0.45069   0.83334   0.24999   0.00000  Uiso   1.00
N710   N     0.54931   0.83332   0.25001   0.00000  Uiso   1.00
O711   O     0.37291   0.77322   0.25000   0.00000  Uiso   1.00
O712   O     0.63873   0.89323   0.05014   0.00000  Uiso   1.00
O713   O     0.60647   0.95651   0.01762   0.00000  Uiso   1.00
O714   O     0.37771   0.73015   0.46790   0.00000  Uiso   1.00
O715   O     0.34111   0.79217   0.44892   0.00000  Uiso   1.00
O716   O     0.41902   0.76473   0.39207   0.00000  Uiso   1.00
O717   O     0.46091   0.82279   0.11508   0.00000  Uiso   1.00
O718   O     0.55870   0.79058   0.38888   0.00000  Uiso   1.00
O719   O     0.62343   0.74010   0.16780   0.00000  Uiso   1.00
O720   O     0.58045   0.67433   0.16983   0.00000  Uiso   1.00
O721   O     0.54683   0.72690   0.23403   0.00000  Uiso   1.00
O722   O     0.62709   0.89345   0.25000   0.00000  Uiso   1.00
O723   O     0.45421   0.94548   0.25392   0.00000  Uiso   1.00
O724   O     0.43227   0.99351   0.31748   0.00000  Uiso   1.00
O725   O     0.38967   0.92224   0.32618   0.00000  Uiso   1.00
O726   O     0.62706   0.77321   0.25000   0.00000  Uiso   1.00
O727   O     0.37294   0.89346   0.25000   0.00000  Uiso   1.00
O728   O     0.35186   0.83334   0.31492   0.00000  Uiso   1.00
O729   O     0.64814   0.83332   0.18508   0.00000  Uiso   1.00
O730   O     0.60600   0.83333   0.31492   0.00000  Uiso   1.00
O731   O     0.39400   0.83333   0.18508   0.00000  Uiso   1.00
O732   O     0.56136   0.92276   0.09300   0.00000  Uiso   1.00
S733   S     0.59253   0.91279   0.04666   0.00000  Uiso   1.00
S734   S     0.38841   0.77143   0.44624   0.00000  Uiso   1.00
S735   S     0.59649   0.70687   0.19803   0.00000  Uiso   1.00
S736   S     0.41290   0.96094   0.29159   0.00000  Uiso   1.00
C737   C     1.00000   0.75407   0.24831   0.00000  Uiso   1.00
C738   C     0.69897   0.69036   0.26684   0.00000  Uiso   1.00
C739   C     0.66802   0.95741   0.25116   0.00000  Uiso   1.00
C740   C     0.99956   0.70950   0.24756   0.00000  Uiso   1.00
C741   C     0.84874   0.81071   0.28033   0.00000  Uiso   1.00
C742   C     0.81786   0.85621   0.21990   0.00000  Uiso   1.00
C743   C     0.79912   0.81063   0.28022   0.00000  Uiso   1.00
C744   C     0.86753   0.85612   0.21984   0.00000  Uiso   1.00
C745   C     0.97264   0.83375   0.33600   0.00000  Uiso   1.00
C746   C     0.69408   0.83082   0.16391   0.00000  Uiso   1.00
C747   C     0.95689   0.83913   0.38467   0.00000  Uiso   1.00
C748   C     0.66690   0.91269   0.25126   0.00000  Uiso   1.00
C749   C     0.70944   0.82439   0.11492   0.00000  Uiso   1.00
C750   C     0.96329   0.87685   0.45030   0.00000  Uiso   1.00
C751   C     0.69063   0.80443   0.04571   0.00000  Uiso   1.00
C752   C     0.98309   0.86497   0.40610   0.00000  Uiso   1.00
C753   C     0.67526   0.81401   0.09138   0.00000  Uiso   1.00
C754   C     0.91180   0.82251   0.40856   0.00000  Uiso   1.00
C755   C     0.75924   0.82549   0.09165   0.00000  Uiso   1.00
C756   C     0.88799   0.83838   0.45182   0.00000  Uiso   1.00
C757   C     0.77317   0.82585   0.04436   0.00000  Uiso   1.00
C758   C     0.91563   0.86467   0.47361   0.00000  Uiso   1.00
C759   C     0.84803   0.86581   0.04020   0.00000  Uiso   1.00
C760   C     0.73982   0.81022   0.02144   0.00000  Uiso   1.00
C761   C     0.83820   0.82891   0.47424   0.00000  Uiso   1.00
C762   C     0.82031   0.83931   0.02007   0.00000  Uiso   1.00
C763   C     0.81231   0.78226   0.11050   0.00000  Uiso   1.00
C764   C     0.84684   0.77735   0.13979   0.00000  Uiso   1.00
C765   C     0.91243   0.75332   0.39712   0.00000  Uiso   1.00
C766   C     0.89390   0.71867   0.37224   0.00000  Uiso   1.00
C767   C     0.80488   0.81132   0.45228   0.00000  Uiso   1.00
C768   C     0.89486   0.87870   0.01786   0.00000  Uiso   1.00
C769   C     0.75681   0.80102   0.47525   0.00000  Uiso   1.00
C770   C     0.96813   0.68576   0.22844   0.00000  Uiso   1.00
C771   C     0.70106   0.98131   0.26846   0.00000  Uiso   1.00
C772   C     0.96867   0.97666   0.23167   0.00000  Uiso   1.00
Cu773  Cu    0.71355   0.83334   0.25000   0.00000  Uiso   1.00
Cu774  Cu    0.95311   0.83333   0.25000   0.00000  Uiso   1.00
H775   H     0.97021   0.81115   0.10866   0.00000  Uiso   1.00
H776   H     0.80664   0.87446   0.19573   0.00000  Uiso   1.00
H777   H     0.77289   0.79229   0.30421   0.00000  Uiso   1.00
H778   H     0.89377   0.87433   0.19566   0.00000  Uiso   1.00
H779   H     0.95927   0.97305   0.03386   0.00000  Uiso   1.00
H780   H     0.72969   0.74892   0.37863   0.00000  Uiso   1.00
H781   H     0.83303   0.77558   0.07521   0.00000  Uiso   1.00
H782   H     0.78210   0.75926   0.12116   0.00000  Uiso   1.00
H783   H     0.82628   0.77926   0.17566   0.00000  Uiso   1.00
H784   H     0.86447   0.74687   0.13320   0.00000  Uiso   1.00
H785   H     0.87555   0.80171   0.13235   0.00000  Uiso   1.00
H786   H     0.68554   0.87624   0.38867   0.00000  Uiso   1.00
H787   H     0.90133   0.74660   0.43360   0.00000  Uiso   1.00
H788   H     0.95301   0.75417   0.38488   0.00000  Uiso   1.00
H789   H     0.90500   0.72450   0.33565   0.00000  Uiso   1.00
H790   H     0.90951   0.68906   0.37849   0.00000  Uiso   1.00
H791   H     0.85349   0.71653   0.38397   0.00000  Uiso   1.00
H792   H     0.86505   0.70387   0.25364   0.00000  Uiso   1.00
H793   H     0.75172   0.90675   0.32879   0.00000  Uiso   1.00
H794   H     0.98554   0.89663   0.46523   0.00000  Uiso   1.00
H795   H     0.99656   0.79390   0.02980   0.00000  Uiso   1.00
H796   H     0.83210   0.87879   0.07308   0.00000  Uiso   1.00
H797   H     0.81425   0.80745   0.41655   0.00000  Uiso   1.00
H798   H     0.94432   0.95829   0.21748   0.00000  Uiso   1.00
H799   H     0.72334   0.70885   0.28089   0.00000  Uiso   1.00
H800   H     0.85995   0.79239   0.30446   0.00000  Uiso   1.00
N801   N     0.78403   0.83334   0.24999   0.00000  Uiso   1.00
N802   N     0.88264   0.83332   0.25001   0.00000  Uiso   1.00
O803   O     0.70625   0.77322   0.25000   0.00000  Uiso   1.00
O804   O     0.97206   0.89323   0.05014   0.00000  Uiso   1.00
O805   O     0.93981   0.95651   0.01762   0.00000  Uiso   1.00
O806   O     0.71105   0.73015   0.46790   0.00000  Uiso   1.00
O807   O     0.67445   0.79217   0.44892   0.00000  Uiso   1.00
O808   O     0.75235   0.76473   0.39207   0.00000  Uiso   1.00
O809   O     0.79425   0.82279   0.11508   0.00000  Uiso   1.00
O810   O     0.89203   0.79058   0.38888   0.00000  Uiso   1.00
O811   O     0.95676   0.74010   0.16780   0.00000  Uiso   1.00
O812   O     0.91379   0.67433   0.16983   0.00000  Uiso   1.00
O813   O     0.88017   0.72690   0.23403   0.00000  Uiso   1.00
O814   O     0.96042   0.89345   0.25000   0.00000  Uiso   1.00
O815   O     0.78754   0.94548   0.25392   0.00000  Uiso   1.00
O816   O     0.76560   0.99351   0.31748   0.00000  Uiso   1.00
O817   O     0.72301   0.92224   0.32618   0.00000  Uiso   1.00
O818   O     0.96039   0.77321   0.25000   0.00000  Uiso   1.00
O819   O     0.70628   0.89346   0.25000   0.00000  Uiso   1.00
O820   O     0.68519   0.83334   0.31492   0.00000  Uiso   1.00
O821   O     0.98148   0.83332   0.18508   0.00000  Uiso   1.00
O822   O     0.93933   0.83333   0.31492   0.00000  Uiso   1.00
O823   O     0.72733   0.83333   0.18508   0.00000  Uiso   1.00
O824   O     0.89469   0.92276   0.09300   0.00000  Uiso   1.00
S825   S     0.92586   0.91279   0.04666   0.00000  Uiso   1.00
S826   S     0.72175   0.77143   0.44624   0.00000  Uiso   1.00
S827   S     0.92982   0.70687   0.19803   0.00000  Uiso   1.00
S828   S     0.74623   0.96094   0.29159   0.00000  Uiso   1.00
C829   C     0.33333   0.08741   0.74831   0.00000  Uiso   1.00
C830   C     0.03231   0.02369   0.76684   0.00000  Uiso   1.00
C831   C     0.00135   0.29074   0.75116   0.00000  Uiso   1.00
C832   C     0.33289   0.04284   0.74756   0.00000  Uiso   1.00
C833   C     0.18207   0.14404   0.78033   0.00000  Uiso   1.00
C834   C     0.15119   0.18954   0.71990   0.00000  Uiso   1.00
C835   C     0.13245   0.14396   0.78022   0.00000  Uiso   1.00
C836   C     0.20086   0.18945   0.71984   0.00000  Uiso   1.00
C837   C     0.30598   0.16708   0.83600   0.00000  Uiso   1.00
C838   C     0.02741   0.16415   0.66391   0.00000  Uiso   1.00
C839   C     0.29022   0.17246   0.88467   0.00000  Uiso   1.00
C840   C     0.00023   0.24603   0.75126   0.00000  Uiso   1.00
C841   C     0.04278   0.15772   0.61492   0.00000  Uiso   1.00
C842   C     0.29663   0.21019   0.95030   0.00000  Uiso   1.00
C843   C     0.02397   0.13777   0.54571   0.00000  Uiso   1.00
C844   C     0.31642   0.19830   0.90610   0.00000  Uiso   1.00
C845   C     0.00859   0.14734   0.59138   0.00000  Uiso   1.00
C846   C     0.24514   0.15585   0.90856   0.00000  Uiso   1.00
C847   C     0.09257   0.15882   0.59165   0.00000  Uiso   1.00
C848   C     0.22132   0.17171   0.95182   0.00000  Uiso   1.00
C849   C     0.10650   0.15918   0.54436   0.00000  Uiso   1.00
C850   C     0.24897   0.19801   0.97361   0.00000  Uiso   1.00
C851   C     0.18136   0.19915   0.54020   0.00000  Uiso   1.00
C852   C     0.07315   0.14355   0.52144   0.00000  Uiso   1.00
C853   C     0.17153   0.16224   0.97424   0.00000  Uiso   1.00
C854   C     0.15364   0.17264   0.52007   0.00000  Uiso   1.00
C855   C     0.14565   0.11560   0.61050   0.00000  Uiso   1.00
C856   C     0.18017   0.11068   0.63979   0.00000  Uiso   1.00
C857   C     0.24577   0.08665   0.89712   0.00000  Uiso   1.00
C858   C     0.22723   0.05201   0.87224   0.00000  Uiso   1.00
C859   C     0.13822   0.14465   0.95228   0.00000  Uiso   1.00
C860   C     0.22819   0.21203   0.51786   0.00000  Uiso   1.00
C861   C     0.09014   0.13435   0.97525   0.00000  Uiso   1.00
C862   C     0.30146   0.01910   0.72844   0.00000  Uiso   1.00
C863   C     0.03439   0.31464   0.76846   0.00000  Uiso   1.00
C864   C     0.30200   0.31000   0.73167   0.00000  Uiso   1.00
Cu865  Cu    0.04689   0.16667   0.75000   0.00000  Uiso   1.00
Cu866  Cu    0.28645   0.16666   0.75000   0.00000  Uiso   1.00
H867   H     0.30354   0.14449   0.60866   0.00000  Uiso   1.00
H868   H     0.13998   0.20779   0.69573   0.00000  Uiso   1.00
H869   H     0.10623   0.12562   0.80421   0.00000  Uiso   1.00
H870   H     0.22710   0.20766   0.69566   0.00000  Uiso   1.00
H871   H     0.29260   0.30638   0.53386   0.00000  Uiso   1.00
H872   H     0.06302   0.08225   0.87863   0.00000  Uiso   1.00
H873   H     0.16637   0.10891   0.57521   0.00000  Uiso   1.00
H874   H     0.11543   0.09260   0.62116   0.00000  Uiso   1.00
H875   H     0.15961   0.11259   0.67566   0.00000  Uiso   1.00
H876   H     0.19780   0.08021   0.63320   0.00000  Uiso   1.00
H877   H     0.20888   0.13504   0.63235   0.00000  Uiso   1.00
H878   H     0.01888   0.20957   0.88867   0.00000  Uiso   1.00
H879   H     0.23466   0.07993   0.93360   0.00000  Uiso   1.00
H880   H     0.28635   0.08750   0.88488   0.00000  Uiso   1.00
H881   H     0.23833   0.05783   0.83565   0.00000  Uiso   1.00
H882   H     0.24284   0.02240   0.87849   0.00000  Uiso   1.00
H883   H     0.18683   0.04986   0.88397   0.00000  Uiso   1.00
H884   H     0.19839   0.03720   0.75364   0.00000  Uiso   1.00
H885   H     0.08505   0.24008   0.82879   0.00000  Uiso   1.00
H886   H     0.31888   0.22997   0.96523   0.00000  Uiso   1.00
H887   H     0.32990   0.12723   0.52980   0.00000  Uiso   1.00
H888   H     0.16543   0.21212   0.57308   0.00000  Uiso   1.00
H889   H     0.14758   0.14079   0.91655   0.00000  Uiso   1.00
H890   H     0.27765   0.29162   0.71748   0.00000  Uiso   1.00
H891   H     0.05667   0.04218   0.78089   0.00000  Uiso   1.00
H892   H     0.19329   0.12572   0.80446   0.00000  Uiso   1.00
N893   N     0.11736   0.16668   0.74999   0.00000  Uiso   1.00
N894   N     0.21597   0.16666   0.75001   0.00000  Uiso   1.00
O895   O     0.03958   0.10655   0.75000   0.00000  Uiso   1.00
O896   O     0.30540   0.22656   0.55014   0.00000  Uiso   1.00
O897   O     0.27314   0.28984   0.51762   0.00000  Uiso   1.00
O898   O     0.04438   0.06348   0.96790   0.00000  Uiso   1.00
O899   O     0.00778   0.12551   0.94892   0.00000  Uiso   1.00
O900   O     0.08568   0.09806   0.89207   0.00000  Uiso   1.00
O901   O     0.12758   0.15612   0.61508   0.00000  Uiso   1.00
O902   O     0.22537   0.12392   0.88888   0.00000  Uiso   1.00
O903   O     0.29010   0.07343   0.66780   0.00000  Uiso   1.00
O904   O     0.24712   0.00766   0.66983   0.00000  Uiso   1.00
O905   O     0.21350   0.06023   0.73403   0.00000  Uiso   1.00
O906   O     0.29375   0.22678   0.75000   0.00000  Uiso   1.00
O907   O     0.12088   0.27881   0.75392   0.00000  Uiso   1.00
O908   O     0.09894   0.32684   0.81748   0.00000  Uiso   1.00
O909   O     0.05634   0.25558   0.82618   0.00000  Uiso   1.00
O910   O     0.29372   0.10654   0.75000   0.00000  Uiso   1.00
O911   O     0.03961   0.22679   0.75000   0.00000  Uiso   1.00
O912   O     0.01852   0.16668   0.81492   0.00000  Uiso   1.00
O913   O     0.31481   0.16666   0.68508   0.00000  Uiso   1.00
O914   O     0.27267   0.16667   0.81492   0.00000  Uiso   1.00
O915   O     0.06067   0.16667   0.68508   0.00000  Uiso   1.00
O916   O     0.22802   0.25610   0.59300   0.00000  Uiso   1.00
S917   S     0.25920   0.24613   0.54666   0.00000  Uiso   1.00
S918   S     0.05508   0.10476   0.94624   0.00000  Uiso   1.00
S919   S     0.26315   0.04020   0.69803   0.00000  Uiso   1.00
S920   S     0.07956   0.29427   0.79159   0.00000  Uiso   1.00
C921   C     0.66666   0.08741   0.74831   0.00000  Uiso   1.00
C922   C     0.36564   0.02369   0.76684   0.00000  Uiso   1.00
C923   C     0.33469   0.29074   0.75116   0.00000  Uiso   1.00
C924   C     0.66622   0.04284   0.74756   0.00000  Uiso   1.00
C925   C     0.51540   0.14404   0.78033   0.00000  Uiso   1.00
C926   C     0.48453   0.18954   0.71990   0.00000  Uiso   1.00
C927   C     0.46579   0.14396   0.78022   0.00000  Uiso   1.00
C928   C     0.53419   0.18945   0.71984   0.00000  Uiso   1.00
C929   C     0.63931   0.16708   0.83600   0.00000  Uiso   1.00
C930   C     0.36075   0.16415   0.66391   0.00000  Uiso   1.00
C931   C     0.62356   0.17246   0.88467   0.00000  Uiso   1.00
C932   C     0.33356   0.24603   0.75126   0.00000  Uiso   1.00
C933   C     0.37611   0.15772   0.61492   0.00000  Uiso   1.00
C934   C     0.62996   0.21019   0.95030   0.00000  Uiso   1.00
C935   C     0.35730   0.13777   0.54571   0.00000  Uiso   1.00
C936   C     0.64976   0.19830   0.90610   0.00000  Uiso   1.00
C937   C     0.34192   0.14734   0.59138   0.00000  Uiso   1.00
C938   C     0.57847   0.15585   0.90856   0.00000  Uiso   1.00
C939   C     0.42590   0.15882   0.59165   0.00000  Uiso   1.00
C940   C     0.55466   0.17171   0.95182   0.00000  Uiso   1.00
C941   C     0.43984   0.15918   0.54436   0.00000  Uiso   1.00
C942   C     0.58230   0.19801   0.97361   0.00000  Uiso   1.00
C943   C     0.51469   0.19915   0.54020   0.00000  Uiso   1.00
C944   C     0.40649   0.14355   0.52144   0.00000  Uiso   1.00
C945   C     0.50486   0.16224   0.97424   0.00000  Uiso   1.00
C946   C     0.48698   0.17264   0.52007   0.00000  Uiso   1.00
C947   C     0.47898   0.11560   0.61050   0.00000  Uiso   1.00
C948   C     0.51351   0.11068   0.63979   0.00000  Uiso   1.00
C949   C     0.57910   0.08665   0.89712   0.00000  Uiso   1.00
C950   C     0.56057   0.05201   0.87224   0.00000  Uiso   1.00
C951   C     0.47155   0.14465   0.95228   0.00000  Uiso   1.00
C952   C     0.56153   0.21203   0.51786   0.00000  Uiso   1.00
C953   C     0.42348   0.13435   0.97525   0.00000  Uiso   1.00
C954   C     0.63480   0.01910   0.72844   0.00000  Uiso   1.00
C955   C     0.36772   0.31464   0.76846   0.00000  Uiso   1.00
C956   C     0.63533   0.31000   0.73167   0.00000  Uiso   1.00
Cu957  Cu    0.38022   0.16667   0.75000   0.00000  Uiso   1.00
Cu958  Cu    0.61978   0.16666   0.75000   0.00000  Uiso   1.00
H959   H     0.63688   0.14449   0.60866   0.00000  Uiso   1.00
H960   H     0.47331   0.20779   0.69573   0.00000  Uiso   1.00
H961   H     0.43956   0.12562   0.80421   0.00000  Uiso   1.00
H962   H     0.56043   0.20766   0.69566   0.00000  Uiso   1.00
H963   H     0.62594   0.30638   0.53386   0.00000  Uiso   1.00
H964   H     0.39635   0.08225   0.87863   0.00000  Uiso   1.00
H965   H     0.49970   0.10891   0.57521   0.00000  Uiso   1.00
H966   H     0.44876   0.09260   0.62116   0.00000  Uiso   1.00
H967   H     0.49295   0.11259   0.67566   0.00000  Uiso   1.00
H968   H     0.53113   0.08021   0.63320   0.00000  Uiso   1.00
H969   H     0.54222   0.13504   0.63235   0.00000  Uiso   1.00
H970   H     0.35221   0.20957   0.88867   0.00000  Uiso   1.00
H971   H     0.56799   0.07993   0.93360   0.00000  Uiso   1.00
H972   H     0.61968   0.08750   0.88488   0.00000  Uiso   1.00
H973   H     0.57167   0.05783   0.83565   0.00000  Uiso   1.00
H974   H     0.57617   0.02240   0.87849   0.00000  Uiso   1.00
H975   H     0.52016   0.04986   0.88397   0.00000  Uiso   1.00
H976   H     0.53172   0.03720   0.75364   0.00000  Uiso   1.00
H977   H     0.41838   0.24008   0.82879   0.00000  Uiso   1.00
H978   H     0.65221   0.22997   0.96523   0.00000  Uiso   1.00
H979   H     0.66323   0.12723   0.52980   0.00000  Uiso   1.00
H980   H     0.49877   0.21212   0.57308   0.00000  Uiso   1.00
H981   H     0.48092   0.14079   0.91655   0.00000  Uiso   1.00
H982   H     0.61099   0.29162   0.71748   0.00000  Uiso   1.00
H983   H     0.39000   0.04218   0.78089   0.00000  Uiso   1.00
H984   H     0.52662   0.12572   0.80446   0.00000  Uiso   1.00
N985   N     0.45069   0.16668   0.74999   0.00000  Uiso   1.00
N986   N     0.54931   0.16666   0.75001   0.00000  Uiso   1.00
O987   O     0.37291   0.10655   0.75000   0.00000  Uiso   1.00
O988   O     0.63873   0.22656   0.55014   0.00000  Uiso   1.00
O989   O     0.60647   0.28984   0.51762   0.00000  Uiso   1.00
O990   O     0.37771   0.06348   0.96790   0.00000  Uiso   1.00
O991   O     0.34111   0.12551   0.94892   0.00000  Uiso   1.00
O992   O     0.41902   0.09806   0.89207   0.00000  Uiso   1.00
O993   O     0.46091   0.15612   0.61508   0.00000  Uiso   1.00
O994   O     0.55870   0.12392   0.88888   0.00000  Uiso   1.00
O995   O     0.62343   0.07343   0.66780   0.00000  Uiso   1.00
O996   O     0.58045   0.00766   0.66983   0.00000  Uiso   1.00
O997   O     0.54683   0.06023   0.73403   0.00000  Uiso   1.00
O998   O     0.62709   0.22678   0.75000   0.00000  Uiso   1.00
O999   O     0.45421   0.27881   0.75392   0.00000  Uiso   1.00
O1000  O     0.43227   0.32684   0.81748   0.00000  Uiso   1.00
O1001  O     0.38967   0.25558   0.82618   0.00000  Uiso   1.00
O1002  O     0.62706   0.10654   0.75000   0.00000  Uiso   1.00
O1003  O     0.37294   0.22679   0.75000   0.00000  Uiso   1.00
O1004  O     0.35186   0.16668   0.81492   0.00000  Uiso   1.00
O1005  O     0.64814   0.16666   0.68508   0.00000  Uiso   1.00
O1006  O     0.60600   0.16667   0.81492   0.00000  Uiso   1.00
O1007  O     0.39400   0.16667   0.68508   0.00000  Uiso   1.00
O1008  O     0.56136   0.25610   0.59300   0.00000  Uiso   1.00
S1009  S     0.59253   0.24613   0.54666   0.00000  Uiso   1.00
S1010  S     0.38841   0.10476   0.94624   0.00000  Uiso   1.00
S1011  S     0.59649   0.04020   0.69803   0.00000  Uiso   1.00
S1012  S     0.41290   0.29427   0.79159   0.00000  Uiso   1.00
C1013  C     1.00000   0.08741   0.74831   0.00000  Uiso   1.00
C1014  C     0.69897   0.02369   0.76684   0.00000  Uiso   1.00
C1015  C     0.66802   0.29074   0.75116   0.00000  Uiso   1.00
C1016  C     0.99956   0.04284   0.74756   0.00000  Uiso   1.00
C1017  C     0.84874   0.14404   0.78033   0.00000  Uiso   1.00
C1018  C     0.81786   0.18954   0.71990   0.00000  Uiso   1.00
C1019  C     0.79912   0.14396   0.78022   0.00000  Uiso   1.00
C1020  C     0.86753   0.18945   0.71984   0.00000  Uiso   1.00
C1021  C     0.97264   0.16708   0.83600   0.00000  Uiso   1.00
C1022  C     0.69408   0.16415   0.66391   0.00000  Uiso   1.00
C1023  C     0.95689   0.17246   0.88467   0.00000  Uiso   1.00
C1024  C     0.66690   0.24603   0.75126   0.00000  Uiso   1.00
C1025  C     0.70944   0.15772   0.61492   0.00000  Uiso   1.00
C1026  C     0.96329   0.21019   0.95030   0.00000  Uiso   1.00
C1027  C     0.69063   0.13777   0.54571   0.00000  Uiso   1.00
C1028  C     0.98309   0.19830   0.90610   0.00000  Uiso   1.00
C1029  C     0.67526   0.14734   0.59138   0.00000  Uiso   1.00
C1030  C     0.91180   0.15585   0.90856   0.00000  Uiso   1.00
C1031  C     0.75924   0.15882   0.59165   0.00000  Uiso   1.00
C1032  C     0.88799   0.17171   0.95182   0.00000  Uiso   1.00
C1033  C     0.77317   0.15918   0.54436   0.00000  Uiso   1.00
C1034  C     0.91563   0.19801   0.97361   0.00000  Uiso   1.00
C1035  C     0.84803   0.19915   0.54020   0.00000  Uiso   1.00
C1036  C     0.73982   0.14355   0.52144   0.00000  Uiso   1.00
C1037  C     0.83820   0.16224   0.97424   0.00000  Uiso   1.00
C1038  C     0.82031   0.17264   0.52007   0.00000  Uiso   1.00
C1039  C     0.81231   0.11560   0.61050   0.00000  Uiso   1.00
C1040  C     0.84684   0.11068   0.63979   0.00000  Uiso   1.00
C1041  C     0.91243   0.08665   0.89712   0.00000  Uiso   1.00
C1042  C     0.89390   0.05201   0.87224   0.00000  Uiso   1.00
C1043  C     0.80488   0.14465   0.95228   0.00000  Uiso   1.00
C1044  C     0.89486   0.21203   0.51786   0.00000  Uiso   1.00
C1045  C     0.75681   0.13435   0.97525   0.00000  Uiso   1.00
C1046  C     0.96813   0.01910   0.72844   0.00000  Uiso   1.00
C1047  C     0.70106   0.31464   0.76846   0.00000  Uiso   1.00
C1048  C     0.96867   0.31000   0.73167   0.00000  Uiso   1.00
Cu1049 Cu    0.71355   0.16667   0.75000   0.00000  Uiso   1.00
Cu1050 Cu    0.95311   0.16666   0.75000   0.00000  Uiso   1.00
H1051  H     0.97021   0.14449   0.60866   0.00000  Uiso   1.00
H1052  H     0.80664   0.20779   0.69573   0.00000  Uiso   1.00
H1053  H     0.77289   0.12562   0.80421   0.00000  Uiso   1.00
H1054  H     0.89377   0.20766   0.69566   0.00000  Uiso   1.00
H1055  H     0.95927   0.30638   0.53386   0.00000  Uiso   1.00
H1056  H     0.72969   0.08225   0.87863   0.00000  Uiso   1.00
H1057  H     0.83303   0.10891   0.57521   0.00000  Uiso   1.00
H1058  H     0.78210   0.09260   0.62116   0.00000  Uiso   1.00
H1059  H     0.82628   0.11259   0.67566   0.00000  Uiso   1.00
H1060  H     0.86447   0.08021   0.63320   0.00000  Uiso   1.00
H1061  H     0.87555   0.13504   0.63235   0.00000  Uiso   1.00
H1062  H     0.68554   0.20957   0.88867   0.00000  Uiso   1.00
H1063  H     0.90133   0.07993   0.93360   0.00000  Uiso   1.00
H1064  H     0.95301   0.08750   0.88488   0.00000  Uiso   1.00
H1065  H     0.90500   0.05783   0.83565   0.00000  Uiso   1.00
H1066  H     0.90951   0.02240   0.87849   0.00000  Uiso   1.00
H1067  H     0.85349   0.04986   0.88397   0.00000  Uiso   1.00
H1068  H     0.86505   0.03720   0.75364   0.00000  Uiso   1.00
H1069  H     0.75172   0.24008   0.82879   0.00000  Uiso   1.00
H1070  H     0.98554   0.22997   0.96523   0.00000  Uiso   1.00
H1071  H     0.99656   0.12723   0.52980   0.00000  Uiso   1.00
H1072  H     0.83210   0.21212   0.57308   0.00000  Uiso   1.00
H1073  H     0.81425   0.14079   0.91655   0.00000  Uiso   1.00
H1074  H     0.94432   0.29162   0.71748   0.00000  Uiso   1.00
H1075  H     0.72334   0.04218   0.78089   0.00000  Uiso   1.00
H1076  H     0.85995   0.12572   0.80446   0.00000  Uiso   1.00
N1077  N     0.78403   0.16668   0.74999   0.00000  Uiso   1.00
N1078  N     0.88264   0.16666   0.75001   0.00000  Uiso   1.00
O1079  O     0.70625   0.10655   0.75000   0.00000  Uiso   1.00
O1080  O     0.97206   0.22656   0.55014   0.00000  Uiso   1.00
O1081  O     0.93981   0.28984   0.51762   0.00000  Uiso   1.00
O1082  O     0.71105   0.06348   0.96790   0.00000  Uiso   1.00
O1083  O     0.67445   0.12551   0.94892   0.00000  Uiso   1.00
O1084  O     0.75235   0.09806   0.89207   0.00000  Uiso   1.00
O1085  O     0.79425   0.15612   0.61508   0.00000  Uiso   1.00
O1086  O     0.89203   0.12392   0.88888   0.00000  Uiso   1.00
O1087  O     0.95676   0.07343   0.66780   0.00000  Uiso   1.00
O1088  O     0.91379   0.00766   0.66983   0.00000  Uiso   1.00
O1089  O     0.88017   0.06023   0.73403   0.00000  Uiso   1.00
O1090  O     0.96042   0.22678   0.75000   0.00000  Uiso   1.00
O1091  O     0.78754   0.27881   0.75392   0.00000  Uiso   1.00
O1092  O     0.76560   0.32684   0.81748   0.00000  Uiso   1.00
O1093  O     0.72301   0.25558   0.82618   0.00000  Uiso   1.00
O1094  O     0.96039   0.10654   0.75000   0.00000  Uiso   1.00
O1095  O     0.70628   0.22679   0.75000   0.00000  Uiso   1.00
O1096  O     0.68519   0.16668   0.81492   0.00000  Uiso   1.00
O1097  O     0.98148   0.16666   0.68508   0.00000  Uiso   1.00
O1098  O     0.93933   0.16667   0.81492   0.00000  Uiso   1.00
O1099  O     0.72733   0.16667   0.68508   0.00000  Uiso   1.00
O1100  O     0.89469   0.25610   0.59300   0.00000  Uiso   1.00
S1101  S     0.92586   0.24613   0.54666   0.00000  Uiso   1.00
S1102  S     0.72175   0.10476   0.94624   0.00000  Uiso   1.00
S1103  S     0.92982   0.04020   0.69803   0.00000  Uiso   1.00
S1104  S     0.74623   0.29427   0.79159   0.00000  Uiso   1.00
C1105  C     0.33333   0.42074   0.74831   0.00000  Uiso   1.00
C1106  C     0.03231   0.35703   0.76684   0.00000  Uiso   1.00
C1107  C     0.00135   0.62407   0.75116   0.00000  Uiso   1.00
C1108  C     0.33289   0.37617   0.74756   0.00000  Uiso   1.00
C1109  C     0.18207   0.47738   0.78033   0.00000  Uiso   1.00
C1110  C     0.15119   0.52287   0.71990   0.00000  Uiso   1.00
C1111  C     0.13245   0.47729   0.78022   0.00000  Uiso   1.00
C1112  C     0.20086   0.52279   0.71984   0.00000  Uiso   1.00
C1113  C     0.30598   0.50042   0.83600   0.00000  Uiso   1.00
C1114  C     0.02741   0.49749   0.66391   0.00000  Uiso   1.00
C1115  C     0.29022   0.50580   0.88467   0.00000  Uiso   1.00
C1116  C     0.00023   0.57936   0.75126   0.00000  Uiso   1.00
C1117  C     0.04278   0.49106   0.61492   0.00000  Uiso   1.00
C1118  C     0.29663   0.54352   0.95030   0.00000  Uiso   1.00
C1119  C     0.02397   0.47110   0.54571   0.00000  Uiso   1.00
C1120  C     0.31642   0.53164   0.90610   0.00000  Uiso   1.00
C1121  C     0.00859   0.48067   0.59138   0.00000  Uiso   1.00
C1122  C     0.24514   0.48918   0.90856   0.00000  Uiso   1.00
C1123  C     0.09257   0.49215   0.59165   0.00000  Uiso   1.00
C1124  C     0.22132   0.50505   0.95182   0.00000  Uiso   1.00
C1125  C     0.10650   0.49251   0.54436   0.00000  Uiso   1.00
C1126  C     0.24897   0.53134   0.97361   0.00000  Uiso   1.00
C1127  C     0.18136   0.53248   0.54020   0.00000  Uiso   1.00
C1128  C     0.07315   0.47689   0.52144   0.00000  Uiso   1.00
C1129  C     0.17153   0.49557   0.97424   0.00000  Uiso   1.00
C1130  C     0.15364   0.50598   0.52007   0.00000  Uiso   1.00
C1131  C     0.14565   0.44893   0.61050   0.00000  Uiso   1.00
C1132  C     0.18017   0.44402   0.63979   0.00000  Uiso   1.00
C1133  C     0.24577   0.41998   0.89712   0.00000  Uiso   1.00
C1134  C     0.22723   0.38534   0.87224   0.00000  Uiso   1.00
C1135  C     0.13822   0.47798   0.95228   0.00000  Uiso   1.00
C1136  C     0.22819   0.54536   0.51786   0.00000  Uiso   1.00
C1137  C     0.09014   0.46768   0.97525   0.00000  Uiso   1.00
C1138  C     0.30146   0.35243   0.72844   0.00000  Uiso   1.00
C1139  C     0.03439   0.64797   0.76846   0.00000  Uiso   1.00
C1140  C     0.30200   0.64333   0.73167   0.00000  Uiso   1.00
Cu1141 Cu    0.04689   0.50001   0.75000   0.00000  Uiso   1.00
Cu1142 Cu    0.28645   0.49999   0.75000   0.00000  Uiso   1.00
H1143  H     0.30354   0.47782   0.60866   0.00000  Uiso   1.00
H1144  H     0.13998   0.54112   0.69573   0.00000  Uiso   1.00
H1145  H     0.10623   0.45896   0.80421   0.00000  Uiso   1.00
H1146  H     0.22710   0.54099   0.69566   0.00000  Uiso   1.00
H1147  H     0.29260   0.63971   0.53386   0.00000  Uiso   1.00
H1148  H     0.06302   0.41559   0.87863   0.00000  Uiso   1.00
H1149  H     0.16637   0.44225   0.57521   0.00000  Uiso   1.00
H1150  H     0.11543   0.42593   0.62116   0.00000  Uiso   1.00
H1151  H     0.15961   0.44593   0.67566   0.00000  Uiso   1.00
H1152  H     0.19780   0.41354   0.63320   0.00000  Uiso   1.00
H1153  H     0.20888   0.46838   0.63235   0.00000  Uiso   1.00
H1154  H     0.01888   0.54290   0.88867   0.00000  Uiso   1.00
H1155  H     0.23466   0.41326   0.93360   0.00000  Uiso   1.00
H1156  H     0.28635   0.42083   0.88488   0.00000  Uiso   1.00
H1157  H     0.23833   0.39116   0.83565   0.00000  Uiso   1.00
H1158  H     0.24284   0.35573   0.87849   0.00000  Uiso   1.00
H1159  H     0.18683   0.38320   0.88397   0.00000  Uiso   1.00
H1160  H     0.19839   0.37054   0.75364   0.00000  Uiso   1.00
H1161  H     0.08505   0.57342   0.82879   0.00000  Uiso   1.00
H1162  H     0.31888   0.56330   0.96523   0.00000  Uiso   1.00
H1163  H     0.32990   0.46056   0.52980   0.00000  Uiso   1.00
H1164  H     0.16543   0.54546   0.57308   0.00000  Uiso   1.00
H1165  H     0.14758   0.47412   0.91655   0.00000  Uiso   1.00
H1166  H     0.27765   0.62495   0.71748   0.00000  Uiso   1.00
H1167  H     0.05667   0.37552   0.78089   0.00000  Uiso   1.00
H1168  H     0.19329   0.45905   0.80446   0.00000  Uiso   1.00
N1169  N     0.11736   0.50001   0.74999   0.00000  Uiso   1.00
N1170  N     0.21597   0.49999   0.75001   0.00000  Uiso   1.00
O1171  O     0.03958   0.43989   0.75000   0.00000  Uiso   1.00
O1172  O     0.30540   0.55989   0.55014   0.00000  Uiso   1.00
O1173  O     0.27314   0.62318   0.51762   0.00000  Uiso   1.00
O1174  O     0.04438   0.39681   0.96790   0.00000  Uiso   1.00
O1175  O     0.00778   0.45884   0.94892   0.00000  Uiso   1.00
O1176  O     0.08568   0.43140   0.89207   0.00000  Uiso   1.00
O1177  O     0.12758   0.48946   0.61508   0.00000  Uiso   1.00
O1178  O     0.22537   0.45725   0.88888   0.00000  Uiso   1.00
O1179  O     0.29010   0.40676   0.66780   0.00000  Uiso   1.00
O1180  O     0.24712   0.34099   0.66983   0.00000  Uiso   1.00
O1181  O     0.21350   0.39356   0.73403   0.00000  Uiso   1.00
O1182  O     0.29375   0.56011   0.75000   0.00000  Uiso   1.00
O1183  O     0.12088   0.61215   0.75392   0.00000  Uiso   1.00
O1184  O     0.09894   0.66017   0.81748   0.00000  Uiso   1.00
O1185  O     0.05634   0.58891   0.82618   0.00000  Uiso   1.00
O1186  O     0.29372   0.43988   0.75000   0.00000  Uiso   1.00
O1187  O     0.03961   0.56012   0.75000   0.00000  Uiso   1.00
O1188  O     0.01852   0.50001   0.81492   0.00000  Uiso   1.00
O1189  O     0.31481   0.49999   0.68508   0.00000  Uiso   1.00
O1190  O     0.27267   0.50000   0.81492   0.00000  Uiso   1.00
O1191  O     0.06067   0.50000   0.68508   0.00000  Uiso   1.00
O1192  O     0.22802   0.58943   0.59300   0.00000  Uiso   1.00
S1193  S     0.25920   0.57946   0.54666   0.00000  Uiso   1.00
S1194  S     0.05508   0.43809   0.94624   0.00000  Uiso   1.00
S1195  S     0.26315   0.37353   0.69803   0.00000  Uiso   1.00
S1196  S     0.07956   0.62760   0.79159   0.00000  Uiso   1.00
C1197  C     0.66666   0.42074   0.74831   0.00000  Uiso   1.00
C1198  C     0.36564   0.35703   0.76684   0.00000  Uiso   1.00
C1199  C     0.33469   0.62407   0.75116   0.00000  Uiso   1.00
C1200  C     0.66622   0.37617   0.74756   0.00000  Uiso   1.00
C1201  C     0.51540   0.47738   0.78033   0.00000  Uiso   1.00
C1202  C     0.48453   0.52287   0.71990   0.00000  Uiso   1.00
C1203  C     0.46579   0.47729   0.78022   0.00000  Uiso   1.00
C1204  C     0.53419   0.52279   0.71984   0.00000  Uiso   1.00
C1205  C     0.63931   0.50042   0.83600   0.00000  Uiso   1.00
C1206  C     0.36075   0.49749   0.66391   0.00000  Uiso   1.00
C1207  C     0.62356   0.50580   0.88467   0.00000  Uiso   1.00
C1208  C     0.33356   0.57936   0.75126   0.00000  Uiso   1.00
C1209  C     0.37611   0.49106   0.61492   0.00000  Uiso   1.00
C1210  C     0.62996   0.54352   0.95030   0.00000  Uiso   1.00
C1211  C     0.35730   0.47110   0.54571   0.00000  Uiso   1.00
C1212  C     0.64976   0.53164   0.90610   0.00000  Uiso   1.00
C1213  C     0.34192   0.48067   0.59138   0.00000  Uiso   1.00
C1214  C     0.57847   0.48918   0.90856   0.00000  Uiso   1.00
C1215  C     0.42590   0.49215   0.59165   0.00000  Uiso   1.00
C1216  C     0.55466   0.50505   0.95182   0.00000  Uiso   1.00
C1217  C     0.43984   0.49251   0.54436   0.00000  Uiso   1.00
C1218  C     0.58230   0.53134   0.97361   0.00000  Uiso   1.00
C1219  C     0.51469   0.53248   0.54020   0.00000  Uiso   1.00
C1220  C     0.40649   0.47689   0.52144   0.00000  Uiso   1.00
C1221  C     0.50486   0.49557   0.97424   0.00000  Uiso   1.00
C1222  C     0.48698   0.50598   0.52007   0.00000  Uiso   1.00
C1223  C     0.47898   0.44893   0.61050   0.00000  Uiso   1.00
C1224  C     0.51351   0.44402   0.63979   0.00000  Uiso   1.00
C1225  C     0.57910   0.41998   0.89712   0.00000  Uiso   1.00
C1226  C     0.56057   0.38534   0.87224   0.00000  Uiso   1.00
C1227  C     0.47155   0.47798   0.95228   0.00000  Uiso   1.00
C1228  C     0.56153   0.54536   0.51786   0.00000  Uiso   1.00
C1229  C     0.42348   0.46768   0.97525   0.00000  Uiso   1.00
C1230  C     0.63480   0.35243   0.72844   0.00000  Uiso   1.00
C1231  C     0.36772   0.64797   0.76846   0.00000  Uiso   1.00
C1232  C     0.63533   0.64333   0.73167   0.00000  Uiso   1.00
Cu1233 Cu    0.38022   0.50001   0.75000   0.00000  Uiso   1.00
Cu1234 Cu    0.61978   0.49999   0.75000   0.00000  Uiso   1.00
H1235  H     0.63688   0.47782   0.60866   0.00000  Uiso   1.00
H1236  H     0.47331   0.54112   0.69573   0.00000  Uiso   1.00
H1237  H     0.43956   0.45896   0.80421   0.00000  Uiso   1.00
H1238  H     0.56043   0.54099   0.69566   0.00000  Uiso   1.00
H1239  H     0.62594   0.63971   0.53386   0.00000  Uiso   1.00
H1240  H     0.39635   0.41559   0.87863   0.00000  Uiso   1.00
H1241  H     0.49970   0.44225   0.57521   0.00000  Uiso   1.00
H1242  H     0.44876   0.42593   0.62116   0.00000  Uiso   1.00
H1243  H     0.49295   0.44593   0.67566   0.00000  Uiso   1.00
H1244  H     0.53113   0.41354   0.63320   0.00000  Uiso   1.00
H1245  H     0.54222   0.46838   0.63235   0.00000  Uiso   1.00
H1246  H     0.35221   0.54290   0.88867   0.00000  Uiso   1.00
H1247  H     0.56799   0.41326   0.93360   0.00000  Uiso   1.00
H1248  H     0.61968   0.42083   0.88488   0.00000  Uiso   1.00
H1249  H     0.57167   0.39116   0.83565   0.00000  Uiso   1.00
H1250  H     0.57617   0.35573   0.87849   0.00000  Uiso   1.00
H1251  H     0.52016   0.38320   0.88397   0.00000  Uiso   1.00
H1252  H     0.53172   0.37054   0.75364   0.00000  Uiso   1.00
H1253  H     0.41838   0.57342   0.82879   0.00000  Uiso   1.00
H1254  H     0.65221   0.56330   0.96523   0.00000  Uiso   1.00
H1255  H     0.66323   0.46056   0.52980   0.00000  Uiso   1.00
H1256  H     0.49877   0.54546   0.57308   0.00000  Uiso   1.00
H1257  H     0.48092   0.47412   0.91655   0.00000  Uiso   1.00
H1258  H     0.61099   0.62495   0.71748   0.00000  Uiso   1.00
H1259  H     0.39000   0.37552   0.78089   0.00000  Uiso   1.00
H1260  H     0.52662   0.45905   0.80446   0.00000  Uiso   1.00
N1261  N     0.45069   0.50001   0.74999   0.00000  Uiso   1.00
N1262  N     0.54931   0.49999   0.75001   0.00000  Uiso   1.00
O1263  O     0.37291   0.43989   0.75000   0.00000  Uiso   1.00
O1264  O     0.63873   0.55989   0.55014   0.00000  Uiso   1.00
O1265  O     0.60647   0.62318   0.51762   0.00000  Uiso   1.00
O1266  O     0.37771   0.39681   0.96790   0.00000  Uiso   1.00
O1267  O     0.34111   0.45884   0.94892   0.00000  Uiso   1.00
O1268  O     0.41902   0.43140   0.89207   0.00000  Uiso   1.00
O1269  O     0.46091   0.48946   0.61508   0.00000  Uiso   1.00
O1270  O     0.55870   0.45725   0.88888   0.00000  Uiso   1.00
O1271  O     0.62343   0.40676   0.66780   0.00000  Uiso   1.00
O1272  O     0.58045   0.34099   0.66983   0.00000  Uiso   1.00
O1273  O     0.54683   0.39356   0.73403   0.00000  Uiso   1.00
O1274  O     0.62709   0.56011   0.75000   0.00000  Uiso   1.00
O1275  O     0.45421   0.61215   0.75392   0.00000  Uiso   1.00
O1276  O     0.43227   0.66017   0.81748   0.00000  Uiso   1.00
O1277  O     0.38967   0.58891   0.82618   0.00000  Uiso   1.00
O1278  O     0.62706   0.43988   0.75000   0.00000  Uiso   1.00
O1279  O     0.37294   0.56012   0.75000   0.00000  Uiso   1.00
O1280  O     0.35186   0.50001   0.81492   0.00000  Uiso   1.00
O1281  O     0.64814   0.49999   0.68508   0.00000  Uiso   1.00
O1282  O     0.60600   0.50000   0.81492   0.00000  Uiso   1.00
O1283  O     0.39400   0.50000   0.68508   0.00000  Uiso   1.00
O1284  O     0.56136   0.58943   0.59300   0.00000  Uiso   1.00
S1285  S     0.59253   0.57946   0.54666   0.00000  Uiso   1.00
S1286  S     0.38841   0.43809   0.94624   0.00000  Uiso   1.00
S1287  S     0.59649   0.37353   0.69803   0.00000  Uiso   1.00
S1288  S     0.41290   0.62760   0.79159   0.00000  Uiso   1.00
C1289  C     1.00000   0.42074   0.74831   0.00000  Uiso   1.00
C1290  C     0.69897   0.35703   0.76684   0.00000  Uiso   1.00
C1291  C     0.66802   0.62407   0.75116   0.00000  Uiso   1.00
C1292  C     0.99956   0.37617   0.74756   0.00000  Uiso   1.00
C1293  C     0.84874   0.47738   0.78033   0.00000  Uiso   1.00
C1294  C     0.81786   0.52287   0.71990   0.00000  Uiso   1.00
C1295  C     0.79912   0.47729   0.78022   0.00000  Uiso   1.00
C1296  C     0.86753   0.52279   0.71984   0.00000  Uiso   1.00
C1297  C     0.97264   0.50042   0.83600   0.00000  Uiso   1.00
C1298  C     0.69408   0.49749   0.66391   0.00000  Uiso   1.00
C1299  C     0.95689   0.50580   0.88467   0.00000  Uiso   1.00
C1300  C     0.66690   0.57936   0.75126   0.00000  Uiso   1.00
C1301  C     0.70944   0.49106   0.61492   0.00000  Uiso   1.00
C1302  C     0.96329   0.54352   0.95030   0.00000  Uiso   1.00
C1303  C     0.69063   0.47110   0.54571   0.00000  Uiso   1.00
C1304  C     0.98309   0.53164   0.90610   0.00000  Uiso   1.00
C1305  C     0.67526   0.48067   0.59138   0.00000  Uiso   1.00
C1306  C     0.91180   0.48918   0.90856   0.00000  Uiso   1.00
C1307  C     0.75924   0.49215   0.59165   0.00000  Uiso   1.00
C1308  C     0.88799   0.50505   0.95182   0.00000  Uiso   1.00
C1309  C     0.77317   0.49251   0.54436   0.00000  Uiso   1.00
C1310  C     0.91563   0.53134   0.97361   0.00000  Uiso   1.00
C1311  C     0.84803   0.53248   0.54020   0.00000  Uiso   1.00
C1312  C     0.73982   0.47689   0.52144   0.00000  Uiso   1.00
C1313  C     0.83820   0.49557   0.97424   0.00000  Uiso   1.00
C1314  C     0.82031   0.50598   0.52007   0.00000  Uiso   1.00
C1315  C     0.81231   0.44893   0.61050   0.00000  Uiso   1.00
C1316  C     0.84684   0.44402   0.63979   0.00000  Uiso   1.00
C1317  C     0.91243   0.41998   0.89712   0.00000  Uiso   1.00
C1318  C     0.89390   0.38534   0.87224   0.00000  Uiso   1.00
C1319  C     0.80488   0.47798   0.95228   0.00000  Uiso   1.00
C1320  C     0.89486   0.54536   0.51786   0.00000  Uiso   1.00
C1321  C     0.75681   0.46768   0.97525   0.00000  Uiso   1.00
C1322  C     0.96813   0.35243   0.72844   0.00000  Uiso   1.00
C1323  C     0.70106   0.64797   0.76846   0.00000  Uiso   1.00
C1324  C     0.96867   0.64333   0.73167   0.00000  Uiso   1.00
Cu1325 Cu    0.71355   0.50001   0.75000   0.00000  Uiso   1.00
Cu1326 Cu    0.95311   0.49999   0.75000   0.00000  Uiso   1.00
H1327  H     0.97021   0.47782   0.60866   0.00000  Uiso   1.00
H1328  H     0.80664   0.54112   0.69573   0.00000  Uiso   1.00
H1329  H     0.77289   0.45896   0.80421   0.00000  Uiso   1.00
H1330  H     0.89377   0.54099   0.69566   0.00000  Uiso   1.00
H1331  H     0.95927   0.63971   0.53386   0.00000  Uiso   1.00
H1332  H     0.72969   0.41559   0.87863   0.00000  Uiso   1.00
H1333  H     0.83303   0.44225   0.57521   0.00000  Uiso   1.00
H1334  H     0.78210   0.42593   0.62116   0.00000  Uiso   1.00
H1335  H     0.82628   0.44593   0.67566   0.00000  Uiso   1.00
H1336  H     0.86447   0.41354   0.63320   0.00000  Uiso   1.00
H1337  H     0.87555   0.46838   0.63235   0.00000  Uiso   1.00
H1338  H     0.68554   0.54290   0.88867   0.00000  Uiso   1.00
H1339  H     0.90133   0.41326   0.93360   0.00000  Uiso   1.00
H1340  H     0.95301   0.42083   0.88488   0.00000  Uiso   1.00
H1341  H     0.90500   0.39116   0.83565   0.00000  Uiso   1.00
H1342  H     0.90951   0.35573   0.87849   0.00000  Uiso   1.00
H1343  H     0.85349   0.38320   0.88397   0.00000  Uiso   1.00
H1344  H     0.86505   0.37054   0.75364   0.00000  Uiso   1.00
H1345  H     0.75172   0.57342   0.82879   0.00000  Uiso   1.00
H1346  H     0.98554   0.56330   0.96523   0.00000  Uiso   1.00
H1347  H     0.99656   0.46056   0.52980   0.00000  Uiso   1.00
H1348  H     0.83210   0.54546   0.57308   0.00000  Uiso   1.00
H1349  H     0.81425   0.47412   0.91655   0.00000  Uiso   1.00
H1350  H     0.94432   0.62495   0.71748   0.00000  Uiso   1.00
H1351  H     0.72334   0.37552   0.78089   0.00000  Uiso   1.00
H1352  H     0.85995   0.45905   0.80446   0.00000  Uiso   1.00
N1353  N     0.78403   0.50001   0.74999   0.00000  Uiso   1.00
N1354  N     0.88264   0.49999   0.75001   0.00000  Uiso   1.00
O1355  O     0.70625   0.43989   0.75000   0.00000  Uiso   1.00
O1356  O     0.97206   0.55989   0.55014   0.00000  Uiso   1.00
O1357  O     0.93981   0.62318   0.51762   0.00000  Uiso   1.00
O1358  O     0.71105   0.39681   0.96790   0.00000  Uiso   1.00
O1359  O     0.67445   0.45884   0.94892   0.00000  Uiso   1.00
O1360  O     0.75235   0.43140   0.89207   0.00000  Uiso   1.00
O1361  O     0.79425   0.48946   0.61508   0.00000  Uiso   1.00
O1362  O     0.89203   0.45725   0.88888   0.00000  Uiso   1.00
O1363  O     0.95676   0.40676   0.66780   0.00000  Uiso   1.00
O1364  O     0.91379   0.34099   0.66983   0.00000  Uiso   1.00
O1365  O     0.88017   0.39356   0.73403   0.00000  Uiso   1.00
O1366  O     0.96042   0.56011   0.75000   0.00000  Uiso   1.00
O1367  O     0.78754   0.61215   0.75392   0.00000  Uiso   1.00
O1368  O     0.76560   0.66017   0.81748   0.00000  Uiso   1.00
O1369  O     0.72301   0.58891   0.82618   0.00000  Uiso   1.00
O1370  O     0.96039   0.43988   0.75000   0.00000  Uiso   1.00
O1371  O     0.70628   0.56012   0.75000   0.00000  Uiso   1.00
O1372  O     0.68519   0.50001   0.81492   0.00000  Uiso   1.00
O1373  O     0.98148   0.49999   0.68508   0.00000  Uiso   1.00
O1374  O     0.93933   0.50000   0.81492   0.00000  Uiso   1.00
O1375  O     0.72733   0.50000   0.68508   0.00000  Uiso   1.00
O1376  O     0.89469   0.58943   0.59300   0.00000  Uiso   1.00
S1377  S     0.92586   0.57946   0.54666   0.00000  Uiso   1.00
S1378  S     0.72175   0.43809   0.94624   0.00000  Uiso   1.00
S1379  S     0.92982   0.37353   0.69803   0.00000  Uiso   1.00
S1380  S     0.74623   0.62760   0.79159   0.00000  Uiso   1.00
C1381  C     0.33333   0.75407   0.74831   0.00000  Uiso   1.00
C1382  C     0.03231   0.69036   0.76684   0.00000  Uiso   1.00
C1383  C     0.00135   0.95741   0.75116   0.00000  Uiso   1.00
C1384  C     0.33289   0.70950   0.74756   0.00000  Uiso   1.00
C1385  C     0.18207   0.81071   0.78033   0.00000  Uiso   1.00
C1386  C     0.15119   0.85621   0.71990   0.00000  Uiso   1.00
C1387  C     0.13245   0.81063   0.78022   0.00000  Uiso   1.00
C1388  C     0.20086   0.85612   0.71984   0.00000  Uiso   1.00
C1389  C     0.30598   0.83375   0.83600   0.00000  Uiso   1.00
C1390  C     0.02741   0.83082   0.66391   0.00000  Uiso   1.00
C1391  C     0.29022   0.83913   0.88467   0.00000  Uiso   1.00
C1392  C     0.00023   0.91269   0.75126   0.00000  Uiso   1.00
C1393  C     0.04278   0.82439   0.61492   0.00000  Uiso   1.00
C1394  C     0.29663   0.87685   0.95030   0.00000  Uiso   1.00
C1395  C     0.02397   0.80443   0.54571   0.00000  Uiso   1.00
C1396  C     0.31642   0.86497   0.90610   0.00000  Uiso   1.00
C1397  C     0.00859   0.81401   0.59138   0.00000  Uiso   1.00
C1398  C     0.24514   0.82251   0.90856   0.00000  Uiso   1.00
C1399  C     0.09257   0.82549   0.59165   0.00000  Uiso   1.00
C1400  C     0.22132   0.83838   0.95182   0.00000  Uiso   1.00
C1401  C     0.10650   0.82585   0.54436   0.00000  Uiso   1.00
C1402  C     0.24897   0.86467   0.97361   0.00000  Uiso   1.00
C1403  C     0.18136   0.86581   0.54020   0.00000  Uiso   1.00
C1404  C     0.07315   0.81022   0.52144   0.00000  Uiso   1.00
C1405  C     0.17153   0.82891   0.97424   0.00000  Uiso   1.00
C1406  C     0.15364   0.83931   0.52007   0.00000  Uiso   1.00
C1407  C     0.14565   0.78226   0.61050   0.00000  Uiso   1.00
C1408  C     0.18017   0.77735   0.63979   0.00000  Uiso   1.00
C1409  C     0.24577   0.75332   0.89712   0.00000  Uiso   1.00
C1410  C     0.22723   0.71867   0.87224   0.00000  Uiso   1.00
C1411  C     0.13822   0.81132   0.95228   0.00000  Uiso   1.00
C1412  C     0.22819   0.87870   0.51786   0.00000  Uiso   1.00
C1413  C     0.09014   0.80102   0.97525   0.00000  Uiso   1.00
C1414  C     0.30146   0.68576   0.72844   0.00000  Uiso   1.00
C1415  C     0.03439   0.98131   0.76846   0.00000  Uiso   1.00
C1416  C     0.30200   0.97666   0.73167   0.00000  Uiso   1.00
Cu1417 Cu    0.04689   0.83334   0.75000   0.00000  Uiso   1.00
Cu1418 Cu    0.28645   0.83333   0.75000   0.00000  Uiso   1.00
H1419  H     0.30354   0.81115   0.60866   0.00000  Uiso   1.00
H1420  H     0.13998   0.87446   0.69573   0.00000  Uiso   1.00
H1421  H     0.10623   0.79229   0.80421   0.00000  Uiso   1.00
H1422  H     0.22710   0.87433   0.69566   0.00000  Uiso   1.00
H1423  H     0.29260   0.97305   0.53386   0.00000  Uiso   1.00
H1424  H     0.06302   0.74892   0.87863   0.00000  Uiso   1.00
H1425  H     0.16637   0.77558   0.57521   0.00000  Uiso   1.00
H1426  H     0.11543   0.75926   0.62116   0.00000  Uiso   1.00
H1427  H     0.15961   0.77926   0.67566   0.00000  Uiso   1.00
H1428  H     0.19780   0.74687   0.63320   0.00000  Uiso   1.00
H1429  H     0.20888   0.80171   0.63235   0.00000  Uiso   1.00
H1430  H     0.01888   0.87624   0.88867   0.00000  Uiso   1.00
H1431  H     0.23466   0.74660   0.93360   0.00000  Uiso   1.00
H1432  H     0.28635   0.75417   0.88488   0.00000  Uiso   1.00
H1433  H     0.23833   0.72450   0.83565   0.00000  Uiso   1.00
H1434  H     0.24284   0.68906   0.87849   0.00000  Uiso   1.00
H1435  H     0.18683   0.71653   0.88397   0.00000  Uiso   1.00
H1436  H     0.19839   0.70387   0.75364   0.00000  Uiso   1.00
H1437  H     0.08505   0.90675   0.82879   0.00000  Uiso   1.00
H1438  H     0.31888   0.89663   0.96523   0.00000  Uiso   1.00
H1439  H     0.32990   0.79390   0.52980   0.00000  Uiso   1.00
H1440  H     0.16543   0.87879   0.57308   0.00000  Uiso   1.00
H1441  H     0.14758   0.80745   0.91655   0.00000  Uiso   1.00
H1442  H     0.27765   0.95829   0.71748   0.00000  Uiso   1.00
H1443  H     0.05667   0.70885   0.78089   0.00000  Uiso   1.00
H1444  H     0.19329   0.79239   0.80446   0.00000  Uiso   1.00
N1445  N     0.11736   0.83334   0.74999   0.00000  Uiso   1.00
N1446  N     0.21597   0.83332   0.75001   0.00000  Uiso   1.00
O1447  O     0.03958   0.77322   0.75000   0.00000  Uiso   1.00
O1448  O     0.30540   0.89323   0.55014   0.00000  Uiso   1.00
O1449  O     0.27314   0.95651   0.51762   0.00000  Uiso   1.00
O1450  O     0.04438   0.73015   0.96790   0.00000  Uiso   1.00
O1451  O     0.00778   0.79217   0.94892   0.00000  Uiso   1.00
O1452  O     0.08568   0.76473   0.89207   0.00000  Uiso   1.00
O1453  O     0.12758   0.82279   0.61508   0.00000  Uiso   1.00
O1454  O     0.22537   0.79058   0.88888   0.00000  Uiso   1.00
O1455  O     0.29010   0.74010   0.66780   0.00000  Uiso   1.00
O1456  O     0.24712   0.67433   0.66983   0.00000  Uiso   1.00
O1457  O     0.21350   0.72690   0.73403   0.00000  Uiso   1.00
O1458  O     0.29375   0.89345   0.75000   0.00000  Uiso   1.00
O1459  O     0.12088   0.94548   0.75392   0.00000  Uiso   1.00
O1460  O     0.09894   0.99351   0.81748   0.00000  Uiso   1.00
O1461  O     0.05634   0.92224   0.82618   0.00000  Uiso   1.00
O1462  O     0.29372   0.77321   0.75000   0.00000  Uiso   1.00
O1463  O     0.03961   0.89346   0.75000   0.00000  Uiso   1.00
O1464  O     0.01852   0.83334   0.81492   0.00000  Uiso   1.00
O1465  O     0.31481   0.83332   0.68508   0.00000  Uiso   1.00
O1466  O     0.27267   0.83333   0.81492   0.00000  Uiso   1.00
O1467  O     0.06067   0.83333   0.68508   0.00000  Uiso   1.00
O1468  O     0.22802   0.92276   0.59300   0.00000  Uiso   1.00
S1469  S     0.25920   0.91279   0.54666   0.00000  Uiso   1.00
S1470  S     0.05508   0.77143   0.94624   0.00000  Uiso   1.00
S1471  S     0.26315   0.70687   0.69803   0.00000  Uiso   1.00
S1472  S     0.07956   0.96094   0.79159   0.00000  Uiso   1.00
C1473  C     0.66666   0.75407   0.74831   0.00000  Uiso   1.00
C1474  C     0.36564   0.69036   0.76684   0.00000  Uiso   1.00
C1475  C     0.33469   0.95741   0.75116   0.00000  Uiso   1.00
C1476  C     0.66622   0.70950   0.74756   0.00000  Uiso   1.00
C1477  C     0.51540   0.81071   0.78033   0.00000  Uiso   1.00
C1478  C     0.48453   0.85621   0.71990   0.00000  Uiso   1.00
C1479  C     0.46579   0.81063   0.78022   0.00000  Uiso   1.00
C1480  C     0.53419   0.85612   0.71984   0.00000  Uiso   1.00
C1481  C     0.63931   0.83375   0.83600   0.00000  Uiso   1.00
C1482  C     0.36075   0.83082   0.66391   0.00000  Uiso   1.00
C1483  C     0.62356   0.83913   0.88467   0.00000  Uiso   1.00
C1484  C     0.33356   0.91269   0.75126   0.00000  Uiso   1.00
C1485  C     0.37611   0.82439   0.61492   0.00000  Uiso   1.00
C1486  C     0.62996   0.87685   0.95030   0.00000  Uiso   1.00
C1487  C     0.35730   0.80443   0.54571   0.00000  Uiso   1.00
C1488  C     0.64976   0.86497   0.90610   0.00000  Uiso   1.00
C1489  C     0.34192   0.81401   0.59138   0.00000  Uiso   1.00
C1490  C     0.57847   0.82251   0.90856   0.00000  Uiso   1.00
C1491  C     0.42590   0.82549   0.59165   0.00000  Uiso   1.00
C1492  C     0.55466   0.83838   0.95182   0.00000  Uiso   1.00
C1493  C     0.43984   0.82585   0.54436   0.00000  Uiso   1.00
C1494  C     0.58230   0.86467   0.97361   0.00000  Uiso   1.00
C1495  C     0.51469   0.86581   0.54020   0.00000  Uiso   1.00
C1496  C     0.40649   0.81022   0.52144   0.00000  Uiso   1.00
C1497  C     0.50486   0.82891   0.97424   0.00000  Uiso   1.00
C1498  C     0.48698   0.83931   0.52007   0.00000  Uiso   1.00
C1499  C     0.47898   0.78226   0.61050   0.00000  Uiso   1.00
C1500  C     0.51351   0.77735   0.63979   0.00000  Uiso   1.00
C1501  C     0.57910   0.75332   0.89712   0.00000  Uiso   1.00
C1502  C     0.56057   0.71867   0.87224   0.00000  Uiso   1.00
C1503  C     0.47155   0.81132   0.95228   0.00000  Uiso   1.00
C1504  C     0.56153   0.87870   0.51786   0.00000  Uiso   1.00
C1505  C     0.42348   0.80102   0.97525   0.00000  Uiso   1.00
C1506  C     0.63480   0.68576   0.72844   0.00000  Uiso   1.00
C1507  C     0.36772   0.98131   0.76846   0.00000  Uiso   1.00
C1508  C     0.63533   0.97666   0.73167   0.00000  Uiso   1.00
Cu1509 Cu    0.38022   0.83334   0.75000   0.00000  Uiso   1.00
Cu1510 Cu    0.61978   0.83333   0.75000   0.00000  Uiso   1.00
H1511  H     0.63688   0.81115   0.60866   0.00000  Uiso   1.00
H1512  H     0.47331   0.87446   0.69573   0.00000  Uiso   1.00
H1513  H     0.43956   0.79229   0.80421   0.00000  Uiso   1.00
H1514  H     0.56043   0.87433   0.69566   0.00000  Uiso   1.00
H1515  H     0.62594   0.97305   0.53386   0.00000  Uiso   1.00
H1516  H     0.39635   0.74892   0.87863   0.00000  Uiso   1.00
H1517  H     0.49970   0.77558   0.57521   0.00000  Uiso   1.00
H1518  H     0.44876   0.75926   0.62116   0.00000  Uiso   1.00
H1519  H     0.49295   0.77926   0.67566   0.00000  Uiso   1.00
H1520  H     0.53113   0.74687   0.63320   0.00000  Uiso   1.00
H1521  H     0.54222   0.80171   0.63235   0.00000  Uiso   1.00
H1522  H     0.35221   0.87624   0.88867   0.00000  Uiso   1.00
H1523  H     0.56799   0.74660   0.93360   0.00000  Uiso   1.00
H1524  H     0.61968   0.75417   0.88488   0.00000  Uiso   1.00
H1525  H     0.57167   0.72450   0.83565   0.00000  Uiso   1.00
H1526  H     0.57617   0.68906   0.87849   0.00000  Uiso   1.00
H1527  H     0.52016   0.71653   0.88397   0.00000  Uiso   1.00
H1528  H     0.53172   0.70387   0.75364   0.00000  Uiso   1.00
H1529  H     0.41838   0.90675   0.82879   0.00000  Uiso   1.00
H1530  H     0.65221   0.89663   0.96523   0.00000  Uiso   1.00
H1531  H     0.66323   0.79390   0.52980   0.00000  Uiso   1.00
H1532  H     0.49877   0.87879   0.57308   0.00000  Uiso   1.00
H1533  H     0.48092   0.80745   0.91655   0.00000  Uiso   1.00
H1534  H     0.61099   0.95829   0.71748   0.00000  Uiso   1.00
H1535  H     0.39000   0.70885   0.78089   0.00000  Uiso   1.00
H1536  H     0.52662   0.79239   0.80446   0.00000  Uiso   1.00
N1537  N     0.45069   0.83334   0.74999   0.00000  Uiso   1.00
N1538  N     0.54931   0.83332   0.75001   0.00000  Uiso   1.00
O1539  O     0.37291   0.77322   0.75000   0.00000  Uiso   1.00
O1540  O     0.63873   0.89323   0.55014   0.00000  Uiso   1.00
O1541  O     0.60647   0.95651   0.51762   0.00000  Uiso   1.00
O1542  O     0.37771   0.73015   0.96790   0.00000  Uiso   1.00
O1543  O     0.34111   0.79217   0.94892   0.00000  Uiso   1.00
O1544  O     0.41902   0.76473   0.89207   0.00000  Uiso   1.00
O1545  O     0.46091   0.82279   0.61508   0.00000  Uiso   1.00
O1546  O     0.55870   0.79058   0.88888   0.00000  Uiso   1.00
O1547  O     0.62343   0.74010   0.66780   0.00000  Uiso   1.00
O1548  O     0.58045   0.67433   0.66983   0.00000  Uiso   1.00
O1549  O     0.54683   0.72690   0.73403   0.00000  Uiso   1.00
O1550  O     0.62709   0.89345   0.75000   0.00000  Uiso   1.00
O1551  O     0.45421   0.94548   0.75392   0.00000  Uiso   1.00
O1552  O     0.43227   0.99351   0.81748   0.00000  Uiso   1.00
O1553  O     0.38967   0.92224   0.82618   0.00000  Uiso   1.00
O1554  O     0.62706   0.77321   0.75000   0.00000  Uiso   1.00
O1555  O     0.37294   0.89346   0.75000   0.00000  Uiso   1.00
O1556  O     0.35186   0.83334   0.81492   0.00000  Uiso   1.00
O1557  O     0.64814   0.83332   0.68508   0.00000  Uiso   1.00
O1558  O     0.60600   0.83333   0.81492   0.00000  Uiso   1.00
O1559  O     0.39400   0.83333   0.68508   0.00000  Uiso   1.00
O1560  O     0.56136   0.92276   0.59300   0.00000  Uiso   1.00
S1561  S     0.59253   0.91279   0.54666   0.00000  Uiso   1.00
S1562  S     0.38841   0.77143   0.94624   0.00000  Uiso   1.00
S1563  S     0.59649   0.70687   0.69803   0.00000  Uiso   1.00
S1564  S     0.41290   0.96094   0.79159   0.00000  Uiso   1.00
C1565  C     1.00000   0.75407   0.74831   0.00000  Uiso   1.00
C1566  C     0.69897   0.69036   0.76684   0.00000  Uiso   1.00
C1567  C     0.66802   0.95741   0.75116   0.00000  Uiso   1.00
C1568  C     0.99956   0.70950   0.74756   0.00000  Uiso   1.00
C1569  C     0.84874   0.81071   0.78033   0.00000  Uiso   1.00
C1570  C     0.81786   0.85621   0.71990   0.00000  Uiso   1.00
C1571  C     0.79912   0.81063   0.78022   0.00000  Uiso   1.00
C1572  C     0.86753   0.85612   0.71984   0.00000  Uiso   1.00
C1573  C     0.97264   0.83375   0.83600   0.00000  Uiso   1.00
C1574  C     0.69408   0.83082   0.66391   0.00000  Uiso   1.00
C1575  C     0.95689   0.83913   0.88467   0.00000  Uiso   1.00
C1576  C     0.66690   0.91269   0.75126   0.00000  Uiso   1.00
C1577  C     0.70944   0.82439   0.61492   0.00000  Uiso   1.00
C1578  C     0.96329   0.87685   0.95030   0.00000  Uiso   1.00
C1579  C     0.69063   0.80443   0.54571   0.00000  Uiso   1.00
C1580  C     0.98309   0.86497   0.90610   0.00000  Uiso   1.00
C1581  C     0.67526   0.81401   0.59138   0.00000  Uiso   1.00
C1582  C     0.91180   0.82251   0.90856   0.00000  Uiso   1.00
C1583  C     0.75924   0.82549   0.59165   0.00000  Uiso   1.00
C1584  C     0.88799   0.83838   0.95182   0.00000  Uiso   1.00
C1585  C     0.77317   0.82585   0.54436   0.00000  Uiso   1.00
C1586  C     0.91563   0.86467   0.97361   0.00000  Uiso   1.00
C1587  C     0.84803   0.86581   0.54020   0.00000  Uiso   1.00
C1588  C     0.73982   0.81022   0.52144   0.00000  Uiso   1.00
C1589  C     0.83820   0.82891   0.97424   0.00000  Uiso   1.00
C1590  C     0.82031   0.83931   0.52007   0.00000  Uiso   1.00
C1591  C     0.81231   0.78226   0.61050   0.00000  Uiso   1.00
C1592  C     0.84684   0.77735   0.63979   0.00000  Uiso   1.00
C1593  C     0.91243   0.75332   0.89712   0.00000  Uiso   1.00
C1594  C     0.89390   0.71867   0.87224   0.00000  Uiso   1.00
C1595  C     0.80488   0.81132   0.95228   0.00000  Uiso   1.00
C1596  C     0.89486   0.87870   0.51786   0.00000  Uiso   1.00
C1597  C     0.75681   0.80102   0.97525   0.00000  Uiso   1.00
C1598  C     0.96813   0.68576   0.72844   0.00000  Uiso   1.00
C1599  C     0.70106   0.98131   0.76846   0.00000  Uiso   1.00
C1600  C     0.96867   0.97666   0.73167   0.00000  Uiso   1.00
Cu1601 Cu    0.71355   0.83334   0.75000   0.00000  Uiso   1.00
Cu1602 Cu    0.95311   0.83333   0.75000   0.00000  Uiso   1.00
H1603  H     0.97021   0.81115   0.60866   0.00000  Uiso   1.00
H1604  H     0.80664   0.87446   0.69573   0.00000  Uiso   1.00
H1605  H     0.77289   0.79229   0.80421   0.00000  Uiso   1.00
H1606  H     0.89377   0.87433   0.69566   0.00000  Uiso   1.00
H1607  H     0.95927   0.97305   0.53386   0.00000  Uiso   1.00
H1608  H     0.72969   0.74892   0.87863   0.00000  Uiso   1.00
H1609  H     0.83303   0.77558   0.57521   0.00000  Uiso   1.00
H1610  H     0.78210   0.75926   0.62116   0.00000  Uiso   1.00
H1611  H     0.82628   0.77926   0.67566   0.00000  Uiso   1.00
H1612  H     0.86447   0.74687   0.63320   0.00000  Uiso   1.00
H1613  H     0.87555   0.80171   0.63235   0.00000  Uiso   1.00
H1614  H     0.68554   0.87624   0.88867   0.00000  Uiso   1.00
H1615  H     0.90133   0.74660   0.93360   0.00000  Uiso   1.00
H1616  H     0.95301   0.75417   0.88488   0.00000  Uiso   1.00
H1617  H     0.90500   0.72450   0.83565   0.00000  Uiso   1.00
H1618  H     0.90951   0.68906   0.87849   0.00000  Uiso   1.00
H1619  H     0.85349   0.71653   0.88397   0.00000  Uiso   1.00
H1620  H     0.86505   0.70387   0.75364   0.00000  Uiso   1.00
H1621  H     0.75172   0.90675   0.82879   0.00000  Uiso   1.00
H1622  H     0.98554   0.89663   0.96523   0.00000  Uiso   1.00
H1623  H     0.99656   0.79390   0.52980   0.00000  Uiso   1.00
H1624  H     0.83210   0.87879   0.57308   0.00000  Uiso   1.00
H1625  H     0.81425   0.80745   0.91655   0.00000  Uiso   1.00
H1626  H     0.94432   0.95829   0.71748   0.00000  Uiso   1.00
H1627  H     0.72334   0.70885   0.78089   0.00000  Uiso   1.00
H1628  H     0.85995   0.79239   0.80446   0.00000  Uiso   1.00
N1629  N     0.78403   0.83334   0.74999   0.00000  Uiso   1.00
N1630  N     0.88264   0.83332   0.75001   0.00000  Uiso   1.00
O1631  O     0.70625   0.77322   0.75000   0.00000  Uiso   1.00
O1632  O     0.97206   0.89323   0.55014   0.00000  Uiso   1.00
O1633  O     0.93981   0.95651   0.51762   0.00000  Uiso   1.00
O1634  O     0.71105   0.73015   0.96790   0.00000  Uiso   1.00
O1635  O     0.67445   0.79217   0.94892   0.00000  Uiso   1.00
O1636  O     0.75235   0.76473   0.89207   0.00000  Uiso   1.00
O1637  O     0.79425   0.82279   0.61508   0.00000  Uiso   1.00
O1638  O     0.89203   0.79058   0.88888   0.00000  Uiso   1.00
O1639  O     0.95676   0.74010   0.66780   0.00000  Uiso   1.00
O1640  O     0.91379   0.67433   0.66983   0.00000  Uiso   1.00
O1641  O     0.88017   0.72690   0.73403   0.00000  Uiso   1.00
O1642  O     0.96042   0.89345   0.75000   0.00000  Uiso   1.00
O1643  O     0.78754   0.94548   0.75392   0.00000  Uiso   1.00
O1644  O     0.76560   0.99351   0.81748   0.00000  Uiso   1.00
O1645  O     0.72301   0.92224   0.82618   0.00000  Uiso   1.00
O1646  O     0.96039   0.77321   0.75000   0.00000  Uiso   1.00
O1647  O     0.70628   0.89346   0.75000   0.00000  Uiso   1.00
O1648  O     0.68519   0.83334   0.81492   0.00000  Uiso   1.00
O1649  O     0.98148   0.83332   0.68508   0.00000  Uiso   1.00
O1650  O     0.93933   0.83333   0.81492   0.00000  Uiso   1.00
O1651  O     0.72733   0.83333   0.68508   0.00000  Uiso   1.00
O1652  O     0.89469   0.92276   0.59300   0.00000  Uiso   1.00
S1653  S     0.92586   0.91279   0.54666   0.00000  Uiso   1.00
S1654  S     0.72175   0.77143   0.94624   0.00000  Uiso   1.00
S1655  S     0.92982   0.70687   0.69803   0.00000  Uiso   1.00
S1656  S     0.74623   0.96094   0.79159   0.00000  Uiso   1.00
loop_
_geom_bond_atom_site_label_1
_geom_bond_atom_site_label_2
_geom_bond_distance
_geom_bond_site_symmetry_2
_ccdc_geom_bond_type
C1     O82     1.287   .     A
C1     C4      1.451   .     S
C1     O159    1.292   .     S
C2     H63     1.083   .     S
C2     C188    1.397   1_455 S
C2     C587    1.385   1_545 S
C3     C12     1.456   .     S
C3     C35     1.418   .     A
C3     C220    1.401   1_455 S
C4     C34     1.413   .     A
C4     C94     1.397   .     S
C5     C7      1.414   .     A
C5     H64     1.082   .     S
C5     N66     1.367   .     A
C6     N65     1.367   .     A
C6     H40     1.082   .     S
C6     C8      1.414   .     A
C7     N65     1.366   .     A
C7     H41     1.081   .     S
C8     N66     1.366   .     A
C8     H42     1.082   .     S
C9     O86     1.289   .     A
C9     C11     1.462   .     S
C9     O176    1.294   .     S
C10    O87     1.291   .     A
C10    C13     1.475   .     S
C10    O269    1.299   1_455 S
C11    C18     1.403   .     A
C11    C16     1.390   .     A
C12    O83     1.285   .     A
C12    O262    1.296   1_455 S
C13    C19     1.407   .     A
C13    C17     1.400   .     A
C14    H58     1.079   .     S
C14    C16     1.384   .     A
C14    C22     1.409   .     A
C15    C24     1.411   .     A
C15    C17     1.395   .     A
C15    H243    1.079   1_455 S
C16    H142    1.078   .     S
C17    H223    1.083   1_455 S
C18    C20     1.422   .     A
C18    O74     1.383   .     S
C19    C21     1.412   .     A
C19    O73     1.388   .     S
C20    C25     1.432   .     A
C20    C22     1.433   .     A
C21    C26     1.417   .     A
C21    C24     1.415   .     A
C22    C860    1.410   .     S
C23    C26     1.408   .     A
C23    H60     1.079   .     S
C23    C32     1.388   .     A
C24    C861    1.410   1_554 S
C25    C31     1.417   .     A
C25    C854    1.411   .     S
C26    C853    1.411   1_554 S
C27    H45     1.113   .     S
C27    H46     1.115   .     S
C27    C28     1.521   .     S
C27    O73     1.415   .     S
C28    H49     1.111   .     S
C28    H47     1.109   .     S
C28    H48     1.110   .     S
C29    C30     1.521   .     S
C29    O74     1.411   .     S
C29    H51     1.114   .     S
C29    H52     1.115   .     S
C30    H54     1.110   .     S
C30    H53     1.111   .     S
C30    H55     1.111   .     S
C31    H61     1.073   .     S
C31    C33     1.400   .     A
C32    S89     1.779   .     S
C32    C850    1.410   1_554 S
C33    S90     1.777   .     S
C33    C852    1.410   .     S
C34    S91     1.777   .     S
C34    C588    1.388   1_545 S
C35    S92     1.777   .     S
C35    C278    1.385   .     S
C36    H62     1.083   .     S
C36    C95     1.401   .     S
C36    C310    1.388   .     S
Cu37   N65     2.008   .     S
Cu37   O84     1.956   .     S
Cu37   O87     1.944   .     S
Cu37   O67     1.965   .     S
Cu37   O83     1.972   .     S
Cu37   Cu222   2.672   1_455 S
Cu38   O86     1.944   .     S
Cu38   N66     2.008   .     S
Cu38   O82     1.972   .     S
Cu38   O85     1.956   .     S
Cu38   O78     1.965   .     S
Cu38   Cu129   2.672   .     S
H39    C109    1.083   .     S
H43    O69     0.991   .     S
H44    O72     0.991   .     S
H50    C200    1.078   1_455 S
H56    O77     0.991   .     S
H57    O81     0.991   .     S
H59    C107    1.079   .     S
O67    C185    1.292   1_455 S
O68    S89     1.503   .     D
O69    S89     1.682   .     S
O70    S90     1.503   .     D
O71    S90     1.499   .     D
O72    S90     1.682   .     S
O75    S91     1.503   .     D
O76    S91     1.504   .     D
O77    S91     1.680   .     S
O78    C104    1.296   .     S
O79    S92     1.503   .     D
O80    S92     1.504   .     D
O81    S92     1.677   .     S
O84    C193    1.294   1_455 S
O85    C102    1.299   .     S
O88    S89     1.504   .     D
C93    O174    1.287   .     A
C93    C96     1.451   .     S
C93    O251    1.292   .     S
C94    H155    1.083   .     S
C94    C679    1.385   1_545 S
C95    C104    1.456   .     S
C95    C127    1.418   .     A
C96    C126    1.413   .     A
C96    C186    1.397   .     S
C97    C99     1.414   .     A
C97    H156    1.082   .     S
C97    N158    1.367   .     A
C98    N157    1.367   .     A
C98    H132    1.082   .     S
C98    C100    1.414   .     A
C99    N157    1.366   .     A
C99    H133    1.081   .     S
C100   N158    1.366   .     A
C100   H134    1.082   .     S
C101   O178    1.289   .     A
C101   C103    1.462   .     S
C101   O268    1.294   .     S
C102   O179    1.291   .     A
C102   C105    1.475   .     S
C103   C110    1.403   .     A
C103   C108    1.390   .     A
C104   O175    1.285   .     A
C105   C111    1.407   .     A
C105   C109    1.400   .     A
C106   H150    1.079   .     S
C106   C108    1.384   .     A
C106   C114    1.409   .     A
C107   C116    1.411   .     A
C107   C109    1.395   .     A
C108   H234    1.078   .     S
C110   C112    1.422   .     A
C110   O166    1.383   .     S
C111   C113    1.412   .     A
C111   O165    1.388   .     S
C112   C117    1.432   .     A
C112   C114    1.433   .     A
C113   C118    1.417   .     A
C113   C116    1.415   .     A
C114   C952    1.410   .     S
C115   C118    1.408   .     A
C115   H152    1.079   .     S
C115   C124    1.388   .     A
C116   C953    1.410   1_554 S
C117   C123    1.417   .     A
C117   C946    1.411   .     S
C118   C945    1.411   1_554 S
C119   H137    1.113   .     S
C119   H138    1.115   .     S
C119   C120    1.521   .     S
C119   O165    1.415   .     S
C120   H141    1.111   .     S
C120   H139    1.109   .     S
C120   H140    1.110   .     S
C121   C122    1.521   .     S
C121   O166    1.411   .     S
C121   H143    1.114   .     S
C121   H144    1.115   .     S
C122   H146    1.110   .     S
C122   H145    1.111   .     S
C122   H147    1.111   .     S
C123   H153    1.073   .     S
C123   C125    1.400   .     A
C124   S181    1.779   .     S
C124   C942    1.410   1_554 S
C125   S182    1.777   .     S
C125   C944    1.410   .     S
C126   S183    1.777   .     S
C126   C680    1.388   1_545 S
C127   S184    1.777   .     S
C127   C370    1.385   .     S
C128   H154    1.083   .     S
C128   C187    1.401   .     S
C128   C402    1.388   .     S
Cu129  N157    2.008   .     S
Cu129  O176    1.956   .     S
Cu129  O179    1.944   .     S
Cu129  O159    1.965   .     S
Cu129  O175    1.972   .     S
Cu130  O178    1.944   .     S
Cu130  N158    2.008   .     S
Cu130  O174    1.972   .     S
Cu130  O177    1.956   .     S
Cu130  O170    1.965   .     S
Cu130  Cu221   2.672   .     S
H131   C201    1.083   .     S
H135   O161    0.991   .     S
H136   O164    0.991   .     S
H148   O169    0.991   .     S
H149   O173    0.991   .     S
H151   C199    1.079   .     S
O160   S181    1.503   .     D
O161   S181    1.682   .     S
O162   S182    1.503   .     D
O163   S182    1.499   .     D
O164   S182    1.682   .     S
O167   S183    1.503   .     D
O168   S183    1.504   .     D
O169   S183    1.680   .     S
O170   C196    1.296   .     S
O171   S184    1.503   .     D
O172   S184    1.504   .     D
O173   S184    1.677   .     S
O177   C194    1.299   .     S
O180   S181    1.504   .     D
C185   O266    1.287   .     A
C185   C188    1.451   .     S
C185   O67     1.292   1_655 S
C186   H247    1.083   .     S
C186   C771    1.385   1_545 S
C187   C196    1.456   .     S
C187   C219    1.418   .     A
C188   C218    1.413   .     A
C188   C2      1.397   1_655 S
C189   C191    1.414   .     A
C189   H248    1.082   .     S
C189   N250    1.367   .     A
C190   N249    1.367   .     A
C190   H224    1.082   .     S
C190   C192    1.414   .     A
C191   N249    1.366   .     A
C191   H225    1.081   .     S
C192   N250    1.366   .     A
C192   H226    1.082   .     S
C193   O270    1.289   .     A
C193   C195    1.462   .     S
C193   O84     1.294   1_655 S
C194   O271    1.291   .     A
C194   C197    1.475   .     S
C195   C202    1.403   .     A
C195   C200    1.390   .     A
C196   O267    1.285   .     A
C197   C203    1.407   .     A
C197   C201    1.400   .     A
C198   H242    1.079   .     S
C198   C200    1.384   .     A
C198   C206    1.409   .     A
C199   C208    1.411   .     A
C199   C201    1.395   .     A
C200   H50     1.078   1_655 S
C202   C204    1.422   .     A
C202   O258    1.383   .     S
C203   C205    1.412   .     A
C203   O257    1.388   .     S
C204   C209    1.432   .     A
C204   C206    1.433   .     A
C205   C210    1.417   .     A
C205   C208    1.415   .     A
C206   C1044   1.410   .     S
C207   C210    1.408   .     A
C207   H244    1.079   .     S
C207   C216    1.388   .     A
C208   C1045   1.410   1_554 S
C209   C215    1.417   .     A
C209   C1038   1.411   .     S
C210   C1037   1.411   1_554 S
C211   H229    1.113   .     S
C211   H230    1.115   .     S
C211   C212    1.521   .     S
C211   O257    1.415   .     S
C212   H233    1.111   .     S
C212   H231    1.109   .     S
C212   H232    1.110   .     S
C213   C214    1.521   .     S
C213   O258    1.411   .     S
C213   H235    1.114   .     S
C213   H236    1.115   .     S
C214   H238    1.110   .     S
C214   H237    1.111   .     S
C214   H239    1.111   .     S
C215   H245    1.073   .     S
C215   C217    1.400   .     A
C216   S273    1.779   .     S
C216   C1034   1.410   1_554 S
C217   S274    1.777   .     S
C217   C1036   1.410   .     S
C218   S275    1.777   .     S
C218   C772    1.388   1_545 S
C219   S276    1.777   .     S
C219   C462    1.385   .     S
C220   H246    1.083   .     S
C220   C3      1.401   1_655 S
C220   C494    1.388   .     S
Cu221  N249    2.008   .     S
Cu221  O268    1.956   .     S
Cu221  O271    1.944   .     S
Cu221  O251    1.965   .     S
Cu221  O267    1.972   .     S
Cu222  O270    1.944   .     S
Cu222  N250    2.008   .     S
Cu222  O266    1.972   .     S
Cu222  O269    1.956   .     S
Cu222  O262    1.965   .     S
Cu222  Cu37    2.672   1_655 S
H223   C17     1.083   1_655 S
H227   O253    0.991   .     S
H228   O256    0.991   .     S
H240   O261    0.991   .     S
H241   O265    0.991   .     S
H243   C15     1.079   1_655 S
O252   S273    1.503   .     D
O253   S273    1.682   .     S
O254   S274    1.503   .     D
O255   S274    1.499   .     D
O256   S274    1.682   .     S
O259   S275    1.503   .     D
O260   S275    1.504   .     D
O261   S275    1.680   .     S
O262   C12     1.296   1_655 S
O263   S276    1.503   .     D
O264   S276    1.504   .     D
O265   S276    1.677   .     S
O269   C10     1.299   1_655 S
O272   S273    1.504   .     D
C277   O358    1.287   .     A
C277   C280    1.451   .     S
C277   O435    1.292   .     S
C278   H339    1.083   .     S
C278   C464    1.397   1_455 S
C279   C288    1.456   .     S
C279   C311    1.418   .     A
C279   C496    1.401   1_455 S
C280   C310    1.413   .     A
C280   C370    1.397   .     S
C281   C283    1.414   .     A
C281   H340    1.082   .     S
C281   N342    1.367   .     A
C282   N341    1.367   .     A
C282   H316    1.082   .     S
C282   C284    1.414   .     A
C283   N341    1.366   .     A
C283   H317    1.081   .     S
C284   N342    1.366   .     A
C284   H318    1.082   .     S
C285   O362    1.289   .     A
C285   C287    1.462   .     S
C285   O452    1.294   .     S
C286   O363    1.291   .     A
C286   C289    1.475   .     S
C286   O545    1.299   1_455 S
C287   C294    1.403   .     A
C287   C292    1.390   .     A
C288   O359    1.285   .     A
C288   O538    1.296   1_455 S
C289   C295    1.407   .     A
C289   C293    1.400   .     A
C290   H334    1.079   .     S
C290   C292    1.384   .     A
C290   C298    1.409   .     A
C291   C300    1.411   .     A
C291   C293    1.395   .     A
C291   H519    1.079   1_455 S
C292   H418    1.078   .     S
C293   H499    1.083   1_455 S
C294   C296    1.422   .     A
C294   O350    1.383   .     S
C295   C297    1.412   .     A
C295   O349    1.388   .     S
C296   C301    1.432   .     A
C296   C298    1.433   .     A
C297   C302    1.417   .     A
C297   C300    1.415   .     A
C298   C1136   1.410   .     S
C299   C302    1.408   .     A
C299   H336    1.079   .     S
C299   C308    1.388   .     A
C300   C1137   1.410   1_554 S
C301   C307    1.417   .     A
C301   C1130   1.411   .     S
C302   C1129   1.411   1_554 S
C303   H321    1.113   .     S
C303   H322    1.115   .     S
C303   C304    1.521   .     S
C303   O349    1.415   .     S
C304   H325    1.111   .     S
C304   H323    1.109   .     S
C304   H324    1.110   .     S
C305   C306    1.521   .     S
C305   O350    1.411   .     S
C305   H327    1.114   .     S
C305   H328    1.115   .     S
C306   H330    1.110   .     S
C306   H329    1.111   .     S
C306   H331    1.111   .     S
C307   H337    1.073   .     S
C307   C309    1.400   .     A
C308   S365    1.779   .     S
C308   C1126   1.410   1_554 S
C309   S366    1.777   .     S
C309   C1128   1.410   .     S
C310   S367    1.777   .     S
C311   S368    1.777   .     S
C311   C554    1.385   .     S
C312   H338    1.083   .     S
C312   C371    1.401   .     S
C312   C586    1.388   .     S
Cu313  N341    2.008   .     S
Cu313  O360    1.956   .     S
Cu313  O363    1.944   .     S
Cu313  O343    1.965   .     S
Cu313  O359    1.972   .     S
Cu313  Cu498   2.672   1_455 S
Cu314  O362    1.944   .     S
Cu314  N342    2.008   .     S
Cu314  O358    1.972   .     S
Cu314  O361    1.956   .     S
Cu314  O354    1.965   .     S
Cu314  Cu405   2.672   .     S
H315   C385    1.083   .     S
H319   O345    0.991   .     S
H320   O348    0.991   .     S
H326   C476    1.078   1_455 S
H332   O353    0.991   .     S
H333   O357    0.991   .     S
H335   C383    1.079   .     S
O343   C461    1.292   1_455 S
O344   S365    1.503   .     D
O345   S365    1.682   .     S
O346   S366    1.503   .     D
O347   S366    1.499   .     D
O348   S366    1.682   .     S
O351   S367    1.503   .     D
O352   S367    1.504   .     D
O353   S367    1.680   .     S
O354   C380    1.296   .     S
O355   S368    1.503   .     D
O356   S368    1.504   .     D
O357   S368    1.677   .     S
O360   C469    1.294   1_455 S
O361   C378    1.299   .     S
O364   S365    1.504   .     D
C369   O450    1.287   .     A
C369   C372    1.451   .     S
C369   O527    1.292   .     S
C370   H431    1.083   .     S
C371   C380    1.456   .     S
C371   C403    1.418   .     A
C372   C402    1.413   .     A
C372   C462    1.397   .     S
C373   C375    1.414   .     A
C373   H432    1.082   .     S
C373   N434    1.367   .     A
C374   N433    1.367   .     A
C374   H408    1.082   .     S
C374   C376    1.414   .     A
C375   N433    1.366   .     A
C375   H409    1.081   .     S
C376   N434    1.366   .     A
C376   H410    1.082   .     S
C377   O454    1.289   .     A
C377   C379    1.462   .     S
C377   O544    1.294   .     S
C378   O455    1.291   .     A
C378   C381    1.475   .     S
C379   C386    1.403   .     A
C379   C384    1.390   .     A
C380   O451    1.285   .     A
C381   C387    1.407   .     A
C381   C385    1.400   .     A
C382   H426    1.079   .     S
C382   C384    1.384   .     A
C382   C390    1.409   .     A
C383   C392    1.411   .     A
C383   C385    1.395   .     A
C384   H510    1.078   .     S
C386   C388    1.422   .     A
C386   O442    1.383   .     S
C387   C389    1.412   .     A
C387   O441    1.388   .     S
C388   C393    1.432   .     A
C388   C390    1.433   .     A
C389   C394    1.417   .     A
C389   C392    1.415   .     A
C390   C1228   1.410   .     S
C391   C394    1.408   .     A
C391   H428    1.079   .     S
C391   C400    1.388   .     A
C392   C1229   1.410   1_554 S
C393   C399    1.417   .     A
C393   C1222   1.411   .     S
C394   C1221   1.411   1_554 S
C395   H413    1.113   .     S
C395   H414    1.115   .     S
C395   C396    1.521   .     S
C395   O441    1.415   .     S
C396   H417    1.111   .     S
C396   H415    1.109   .     S
C396   H416    1.110   .     S
C397   C398    1.521   .     S
C397   O442    1.411   .     S
C397   H419    1.114   .     S
C397   H420    1.115   .     S
C398   H422    1.110   .     S
C398   H421    1.111   .     S
C398   H423    1.111   .     S
C399   H429    1.073   .     S
C399   C401    1.400   .     A
C400   S457    1.779   .     S
C400   C1218   1.410   1_554 S
C401   S458    1.777   .     S
C401   C1220   1.410   .     S
C402   S459    1.777   .     S
C403   S460    1.777   .     S
C403   C646    1.385   .     S
C404   H430    1.083   .     S
C404   C463    1.401   .     S
C404   C678    1.388   .     S
Cu405  N433    2.008   .     S
Cu405  O452    1.956   .     S
Cu405  O455    1.944   .     S
Cu405  O435    1.965   .     S
Cu405  O451    1.972   .     S
Cu406  O454    1.944   .     S
Cu406  N434    2.008   .     S
Cu406  O450    1.972   .     S
Cu406  O453    1.956   .     S
Cu406  O446    1.965   .     S
Cu406  Cu497   2.672   .     S
H407   C477    1.083   .     S
H411   O437    0.991   .     S
H412   O440    0.991   .     S
H424   O445    0.991   .     S
H425   O449    0.991   .     S
H427   C475    1.079   .     S
O436   S457    1.503   .     D
O437   S457    1.682   .     S
O438   S458    1.503   .     D
O439   S458    1.499   .     D
O440   S458    1.682   .     S
O443   S459    1.503   .     D
O444   S459    1.504   .     D
O445   S459    1.680   .     S
O446   C472    1.296   .     S
O447   S460    1.503   .     D
O448   S460    1.504   .     D
O449   S460    1.677   .     S
O453   C470    1.299   .     S
O456   S457    1.504   .     D
C461   O542    1.287   .     A
C461   C464    1.451   .     S
C461   O343    1.292   1_655 S
C462   H523    1.083   .     S
C463   C472    1.456   .     S
C463   C495    1.418   .     A
C464   C494    1.413   .     A
C464   C278    1.397   1_655 S
C465   C467    1.414   .     A
C465   H524    1.082   .     S
C465   N526    1.367   .     A
C466   N525    1.367   .     A
C466   H500    1.082   .     S
C466   C468    1.414   .     A
C467   N525    1.366   .     A
C467   H501    1.081   .     S
C468   N526    1.366   .     A
C468   H502    1.082   .     S
C469   O546    1.289   .     A
C469   C471    1.462   .     S
C469   O360    1.294   1_655 S
C470   O547    1.291   .     A
C470   C473    1.475   .     S
C471   C478    1.403   .     A
C471   C476    1.390   .     A
C472   O543    1.285   .     A
C473   C479    1.407   .     A
C473   C477    1.400   .     A
C474   H518    1.079   .     S
C474   C476    1.384   .     A
C474   C482    1.409   .     A
C475   C484    1.411   .     A
C475   C477    1.395   .     A
C476   H326    1.078   1_655 S
C478   C480    1.422   .     A
C478   O534    1.383   .     S
C479   C481    1.412   .     A
C479   O533    1.388   .     S
C480   C485    1.432   .     A
C480   C482    1.433   .     A
C481   C486    1.417   .     A
C481   C484    1.415   .     A
C482   C1320   1.410   .     S
C483   C486    1.408   .     A
C483   H520    1.079   .     S
C483   C492    1.388   .     A
C484   C1321   1.410   1_554 S
C485   C491    1.417   .     A
C485   C1314   1.411   .     S
C486   C1313   1.411   1_554 S
C487   H505    1.113   .     S
C487   H506    1.115   .     S
C487   C488    1.521   .     S
C487   O533    1.415   .     S
C488   H509    1.111   .     S
C488   H507    1.109   .     S
C488   H508    1.110   .     S
C489   C490    1.521   .     S
C489   O534    1.411   .     S
C489   H511    1.114   .     S
C489   H512    1.115   .     S
C490   H514    1.110   .     S
C490   H513    1.111   .     S
C490   H515    1.111   .     S
C491   H521    1.073   .     S
C491   C493    1.400   .     A
C492   S549    1.779   .     S
C492   C1310   1.410   1_554 S
C493   S550    1.777   .     S
C493   C1312   1.410   .     S
C494   S551    1.777   .     S
C495   S552    1.777   .     S
C495   C738    1.385   .     S
C496   H522    1.083   .     S
C496   C279    1.401   1_655 S
C496   C770    1.388   .     S
Cu497  N525    2.008   .     S
Cu497  O544    1.956   .     S
Cu497  O547    1.944   .     S
Cu497  O527    1.965   .     S
Cu497  O543    1.972   .     S
Cu498  O546    1.944   .     S
Cu498  N526    2.008   .     S
Cu498  O542    1.972   .     S
Cu498  O545    1.956   .     S
Cu498  O538    1.965   .     S
Cu498  Cu313   2.672   1_655 S
H499   C293    1.083   1_655 S
H503   O529    0.991   .     S
H504   O532    0.991   .     S
H516   O537    0.991   .     S
H517   O541    0.991   .     S
H519   C291    1.079   1_655 S
O528   S549    1.503   .     D
O529   S549    1.682   .     S
O530   S550    1.503   .     D
O531   S550    1.499   .     D
O532   S550    1.682   .     S
O535   S551    1.503   .     D
O536   S551    1.504   .     D
O537   S551    1.680   .     S
O538   C288    1.296   1_655 S
O539   S552    1.503   .     D
O540   S552    1.504   .     D
O541   S552    1.677   .     S
O545   C286    1.299   1_655 S
O548   S549    1.504   .     D
C553   O634    1.287   .     A
C553   C556    1.451   .     S
C553   O711    1.292   .     S
C554   H615    1.083   .     S
C554   C740    1.397   1_455 S
C555   C564    1.456   .     S
C555   C587    1.418   .     A
C555   C772    1.401   1_455 S
C556   C586    1.413   .     A
C556   C646    1.397   .     S
C557   C559    1.414   .     A
C557   H616    1.082   .     S
C557   N618    1.367   .     A
C558   N617    1.367   .     A
C558   H592    1.082   .     S
C558   C560    1.414   .     A
C559   N617    1.366   .     A
C559   H593    1.081   .     S
C560   N618    1.366   .     A
C560   H594    1.082   .     S
C561   O638    1.289   .     A
C561   C563    1.462   .     S
C561   O728    1.294   .     S
C562   O639    1.291   .     A
C562   C565    1.475   .     S
C562   O821    1.299   1_455 S
C563   C570    1.403   .     A
C563   C568    1.390   .     A
C564   O635    1.285   .     A
C564   O814    1.296   1_455 S
C565   C571    1.407   .     A
C565   C569    1.400   .     A
C566   H610    1.079   .     S
C566   C568    1.384   .     A
C566   C574    1.409   .     A
C567   C576    1.411   .     A
C567   C569    1.395   .     A
C567   H795    1.079   1_455 S
C568   H694    1.078   .     S
C569   H775    1.083   1_455 S
C570   C572    1.422   .     A
C570   O626    1.383   .     S
C571   C573    1.412   .     A
C571   O625    1.388   .     S
C572   C577    1.432   .     A
C572   C574    1.433   .     A
C573   C578    1.417   .     A
C573   C576    1.415   .     A
C574   C1412   1.410   .     S
C575   C578    1.408   .     A
C575   H612    1.079   .     S
C575   C584    1.388   .     A
C576   C1413   1.410   1_554 S
C577   C583    1.417   .     A
C577   C1406   1.411   .     S
C578   C1405   1.411   1_554 S
C579   H597    1.113   .     S
C579   H598    1.115   .     S
C579   C580    1.521   .     S
C579   O625    1.415   .     S
C580   H601    1.111   .     S
C580   H599    1.109   .     S
C580   H600    1.110   .     S
C581   C582    1.521   .     S
C581   O626    1.411   .     S
C581   H603    1.114   .     S
C581   H604    1.115   .     S
C582   H606    1.110   .     S
C582   H605    1.111   .     S
C582   H607    1.111   .     S
C583   H613    1.073   .     S
C583   C585    1.400   .     A
C584   S641    1.779   .     S
C584   C1402   1.410   1_554 S
C585   S642    1.777   .     S
C585   C1404   1.410   .     S
C586   S643    1.777   .     S
C587   S644    1.777   .     S
C587   C2      1.385   1_565 S
C588   H614    1.083   .     S
C588   C647    1.401   .     S
C588   C34     1.388   1_565 S
Cu589  N617    2.008   .     S
Cu589  O636    1.956   .     S
Cu589  O639    1.944   .     S
Cu589  O619    1.965   .     S
Cu589  O635    1.972   .     S
Cu589  Cu774   2.672   1_455 S
Cu590  O638    1.944   .     S
Cu590  N618    2.008   .     S
Cu590  O634    1.972   .     S
Cu590  O637    1.956   .     S
Cu590  O630    1.965   .     S
Cu590  Cu681   2.672   .     S
H591   C661    1.083   .     S
H595   O621    0.991   .     S
H596   O624    0.991   .     S
H602   C752    1.078   1_455 S
H608   O629    0.991   .     S
H609   O633    0.991   .     S
H611   C659    1.079   .     S
O619   C737    1.292   1_455 S
O620   S641    1.503   .     D
O621   S641    1.682   .     S
O622   S642    1.503   .     D
O623   S642    1.499   .     D
O624   S642    1.682   .     S
O627   S643    1.503   .     D
O628   S643    1.504   .     D
O629   S643    1.680   .     S
O630   C656    1.296   .     S
O631   S644    1.503   .     D
O632   S644    1.504   .     D
O633   S644    1.677   .     S
O636   C745    1.294   1_455 S
O637   C654    1.299   .     S
O640   S641    1.504   .     D
C645   O726    1.287   .     A
C645   C648    1.451   .     S
C645   O803    1.292   .     S
C646   H707    1.083   .     S
C647   C656    1.456   .     S
C647   C679    1.418   .     A
C648   C678    1.413   .     A
C648   C738    1.397   .     S
C649   C651    1.414   .     A
C649   H708    1.082   .     S
C649   N710    1.367   .     A
C650   N709    1.367   .     A
C650   H684    1.082   .     S
C650   C652    1.414   .     A
C651   N709    1.366   .     A
C651   H685    1.081   .     S
C652   N710    1.366   .     A
C652   H686    1.082   .     S
C653   O730    1.289   .     A
C653   C655    1.462   .     S
C653   O820    1.294   .     S
C654   O731    1.291   .     A
C654   C657    1.475   .     S
C655   C662    1.403   .     A
C655   C660    1.390   .     A
C656   O727    1.285   .     A
C657   C663    1.407   .     A
C657   C661    1.400   .     A
C658   H702    1.079   .     S
C658   C660    1.384   .     A
C658   C666    1.409   .     A
C659   C668    1.411   .     A
C659   C661    1.395   .     A
C660   H786    1.078   .     S
C662   C664    1.422   .     A
C662   O718    1.383   .     S
C663   C665    1.412   .     A
C663   O717    1.388   .     S
C664   C669    1.432   .     A
C664   C666    1.433   .     A
C665   C670    1.417   .     A
C665   C668    1.415   .     A
C666   C1504   1.410   .     S
C667   C670    1.408   .     A
C667   H704    1.079   .     S
C667   C676    1.388   .     A
C668   C1505   1.410   1_554 S
C669   C675    1.417   .     A
C669   C1498   1.411   .     S
C670   C1497   1.411   1_554 S
C671   H689    1.113   .     S
C671   H690    1.115   .     S
C671   C672    1.521   .     S
C671   O717    1.415   .     S
C672   H693    1.111   .     S
C672   H691    1.109   .     S
C672   H692    1.110   .     S
C673   C674    1.521   .     S
C673   O718    1.411   .     S
C673   H695    1.114   .     S
C673   H696    1.115   .     S
C674   H698    1.110   .     S
C674   H697    1.111   .     S
C674   H699    1.111   .     S
C675   H705    1.073   .     S
C675   C677    1.400   .     A
C676   S733    1.779   .     S
C676   C1494   1.410   1_554 S
C677   S734    1.777   .     S
C677   C1496   1.410   .     S
C678   S735    1.777   .     S
C679   S736    1.777   .     S
C679   C94     1.385   1_565 S
C680   H706    1.083   .     S
C680   C739    1.401   .     S
C680   C126    1.388   1_565 S
Cu681  N709    2.008   .     S
Cu681  O728    1.956   .     S
Cu681  O731    1.944   .     S
Cu681  O711    1.965   .     S
Cu681  O727    1.972   .     S
Cu682  O730    1.944   .     S
Cu682  N710    2.008   .     S
Cu682  O726    1.972   .     S
Cu682  O729    1.956   .     S
Cu682  O722    1.965   .     S
Cu682  Cu773   2.672   .     S
H683   C753    1.083   .     S
H687   O713    0.991   .     S
H688   O716    0.991   .     S
H700   O721    0.991   .     S
H701   O725    0.991   .     S
H703   C751    1.079   .     S
O712   S733    1.503   .     D
O713   S733    1.682   .     S
O714   S734    1.503   .     D
O715   S734    1.499   .     D
O716   S734    1.682   .     S
O719   S735    1.503   .     D
O720   S735    1.504   .     D
O721   S735    1.680   .     S
O722   C748    1.296   .     S
O723   S736    1.503   .     D
O724   S736    1.504   .     D
O725   S736    1.677   .     S
O729   C746    1.299   .     S
O732   S733    1.504   .     D
C737   O818    1.287   .     A
C737   C740    1.451   .     S
C737   O619    1.292   1_655 S
C738   H799    1.083   .     S
C739   C748    1.456   .     S
C739   C771    1.418   .     A
C740   C770    1.413   .     A
C740   C554    1.397   1_655 S
C741   C743    1.414   .     A
C741   H800    1.082   .     S
C741   N802    1.367   .     A
C742   N801    1.367   .     A
C742   H776    1.082   .     S
C742   C744    1.414   .     A
C743   N801    1.366   .     A
C743   H777    1.081   .     S
C744   N802    1.366   .     A
C744   H778    1.082   .     S
C745   O822    1.289   .     A
C745   C747    1.462   .     S
C745   O636    1.294   1_655 S
C746   O823    1.291   .     A
C746   C749    1.475   .     S
C747   C754    1.403   .     A
C747   C752    1.390   .     A
C748   O819    1.285   .     A
C749   C755    1.407   .     A
C749   C753    1.400   .     A
C750   H794    1.079   .     S
C750   C752    1.384   .     A
C750   C758    1.409   .     A
C751   C760    1.411   .     A
C751   C753    1.395   .     A
C752   H602    1.078   1_655 S
C754   C756    1.422   .     A
C754   O810    1.383   .     S
C755   C757    1.412   .     A
C755   O809    1.388   .     S
C756   C761    1.432   .     A
C756   C758    1.433   .     A
C757   C762    1.417   .     A
C757   C760    1.415   .     A
C758   C1596   1.410   .     S
C759   C762    1.408   .     A
C759   H796    1.079   .     S
C759   C768    1.388   .     A
C760   C1597   1.410   1_554 S
C761   C767    1.417   .     A
C761   C1590   1.411   .     S
C762   C1589   1.411   1_554 S
C763   H781    1.113   .     S
C763   H782    1.115   .     S
C763   C764    1.521   .     S
C763   O809    1.415   .     S
C764   H785    1.111   .     S
C764   H783    1.109   .     S
C764   H784    1.110   .     S
C765   C766    1.521   .     S
C765   O810    1.411   .     S
C765   H787    1.114   .     S
C765   H788    1.115   .     S
C766   H790    1.110   .     S
C766   H789    1.111   .     S
C766   H791    1.111   .     S
C767   H797    1.073   .     S
C767   C769    1.400   .     A
C768   S825    1.779   .     S
C768   C1586   1.410   1_554 S
C769   S826    1.777   .     S
C769   C1588   1.410   .     S
C770   S827    1.777   .     S
C771   S828    1.777   .     S
C771   C186    1.385   1_565 S
C772   H798    1.083   .     S
C772   C555    1.401   1_655 S
C772   C218    1.388   1_565 S
Cu773  N801    2.008   .     S
Cu773  O820    1.956   .     S
Cu773  O823    1.944   .     S
Cu773  O803    1.965   .     S
Cu773  O819    1.972   .     S
Cu774  O822    1.944   .     S
Cu774  N802    2.008   .     S
Cu774  O818    1.972   .     S
Cu774  O821    1.956   .     S
Cu774  O814    1.965   .     S
Cu774  Cu589   2.672   1_655 S
H775   C569    1.083   1_655 S
H779   O805    0.991   .     S
H780   O808    0.991   .     S
H792   O813    0.991   .     S
H793   O817    0.991   .     S
H795   C567    1.079   1_655 S
O804   S825    1.503   .     D
O805   S825    1.682   .     S
O806   S826    1.503   .     D
O807   S826    1.499   .     D
O808   S826    1.682   .     S
O811   S827    1.503   .     D
O812   S827    1.504   .     D
O813   S827    1.680   .     S
O814   C564    1.296   1_655 S
O815   S828    1.503   .     D
O816   S828    1.504   .     D
O817   S828    1.677   .     S
O821   C562    1.299   1_655 S
O824   S825    1.504   .     D
C829   O910    1.287   .     A
C829   C832    1.451   .     S
C829   O987    1.292   .     S
C830   H891    1.083   .     S
C830   C1016   1.397   1_455 S
C830   C1415   1.385   1_545 S
C831   C840    1.456   .     S
C831   C863    1.418   .     A
C831   C1048   1.401   1_455 S
C832   C862    1.413   .     A
C832   C922    1.397   .     S
C833   C835    1.414   .     A
C833   H892    1.082   .     S
C833   N894    1.367   .     A
C834   N893    1.367   .     A
C834   H868    1.082   .     S
C834   C836    1.414   .     A
C835   N893    1.366   .     A
C835   H869    1.081   .     S
C836   N894    1.366   .     A
C836   H870    1.082   .     S
C837   O914    1.289   .     A
C837   C839    1.462   .     S
C837   O1004   1.294   .     S
C838   O915    1.291   .     A
C838   C841    1.475   .     S
C838   O1097   1.299   1_455 S
C839   C846    1.403   .     A
C839   C844    1.390   .     A
C840   O911    1.285   .     A
C840   O1090   1.296   1_455 S
C841   C847    1.407   .     A
C841   C845    1.400   .     A
C842   H886    1.079   .     S
C842   C844    1.384   .     A
C842   C850    1.409   .     A
C843   C852    1.411   .     A
C843   C845    1.395   .     A
C843   H1071   1.079   1_455 S
C844   H970    1.078   .     S
C845   H1051   1.083   1_455 S
C846   C848    1.422   .     A
C846   O902    1.383   .     S
C847   C849    1.412   .     A
C847   O901    1.388   .     S
C848   C853    1.432   .     A
C848   C850    1.433   .     A
C849   C854    1.417   .     A
C849   C852    1.415   .     A
C850   C32     1.410   1_556 S
C851   C854    1.408   .     A
C851   H888    1.079   .     S
C851   C860    1.388   .     A
C853   C859    1.417   .     A
C853   C26     1.411   1_556 S
C855   H873    1.113   .     S
C855   H874    1.115   .     S
C855   C856    1.521   .     S
C855   O901    1.415   .     S
C856   H877    1.111   .     S
C856   H875    1.109   .     S
C856   H876    1.110   .     S
C857   C858    1.521   .     S
C857   O902    1.411   .     S
C857   H879    1.114   .     S
C857   H880    1.115   .     S
C858   H882    1.110   .     S
C858   H881    1.111   .     S
C858   H883    1.111   .     S
C859   H889    1.073   .     S
C859   C861    1.400   .     A
C860   S917    1.779   .     S
C861   S918    1.777   .     S
C861   C24     1.410   1_556 S
C862   S919    1.777   .     S
C862   C1416   1.388   1_545 S
C863   S920    1.777   .     S
C863   C1106   1.385   .     S
C864   H890    1.083   .     S
C864   C923    1.401   .     S
C864   C1138   1.388   .     S
Cu865  N893    2.008   .     S
Cu865  O912    1.956   .     S
Cu865  O915    1.944   .     S
Cu865  O895    1.965   .     S
Cu865  O911    1.972   .     S
Cu865  Cu1050  2.672   1_455 S
Cu866  O914    1.944   .     S
Cu866  N894    2.008   .     S
Cu866  O910    1.972   .     S
Cu866  O913    1.956   .     S
Cu866  O906    1.965   .     S
Cu866  Cu957   2.672   .     S
H867   C937    1.083   .     S
H871   O897    0.991   .     S
H872   O900    0.991   .     S
H878   C1028   1.078   1_455 S
H884   O905    0.991   .     S
H885   O909    0.991   .     S
H887   C935    1.079   .     S
O895   C1013   1.292   1_455 S
O896   S917    1.503   .     D
O897   S917    1.682   .     S
O898   S918    1.503   .     D
O899   S918    1.499   .     D
O900   S918    1.682   .     S
O903   S919    1.503   .     D
O904   S919    1.504   .     D
O905   S919    1.680   .     S
O906   C932    1.296   .     S
O907   S920    1.503   .     D
O908   S920    1.504   .     D
O909   S920    1.677   .     S
O912   C1021   1.294   1_455 S
O913   C930    1.299   .     S
O916   S917    1.504   .     D
C921   O1002   1.287   .     A
C921   C924    1.451   .     S
C921   O1079   1.292   .     S
C922   H983    1.083   .     S
C922   C1507   1.385   1_545 S
C923   C932    1.456   .     S
C923   C955    1.418   .     A
C924   C954    1.413   .     A
C924   C1014   1.397   .     S
C925   C927    1.414   .     A
C925   H984    1.082   .     S
C925   N986    1.367   .     A
C926   N985    1.367   .     A
C926   H960    1.082   .     S
C926   C928    1.414   .     A
C927   N985    1.366   .     A
C927   H961    1.081   .     S
C928   N986    1.366   .     A
C928   H962    1.082   .     S
C929   O1006   1.289   .     A
C929   C931    1.462   .     S
C929   O1096   1.294   .     S
C930   O1007   1.291   .     A
C930   C933    1.475   .     S
C931   C938    1.403   .     A
C931   C936    1.390   .     A
C932   O1003   1.285   .     A
C933   C939    1.407   .     A
C933   C937    1.400   .     A
C934   H978    1.079   .     S
C934   C936    1.384   .     A
C934   C942    1.409   .     A
C935   C944    1.411   .     A
C935   C937    1.395   .     A
C936   H1062   1.078   .     S
C938   C940    1.422   .     A
C938   O994    1.383   .     S
C939   C941    1.412   .     A
C939   O993    1.388   .     S
C940   C945    1.432   .     A
C940   C942    1.433   .     A
C941   C946    1.417   .     A
C941   C944    1.415   .     A
C942   C124    1.410   1_556 S
C943   C946    1.408   .     A
C943   H980    1.079   .     S
C943   C952    1.388   .     A
C945   C951    1.417   .     A
C945   C118    1.411   1_556 S
C947   H965    1.113   .     S
C947   H966    1.115   .     S
C947   C948    1.521   .     S
C947   O993    1.415   .     S
C948   H969    1.111   .     S
C948   H967    1.109   .     S
C948   H968    1.110   .     S
C949   C950    1.521   .     S
C949   O994    1.411   .     S
C949   H971    1.114   .     S
C949   H972    1.115   .     S
C950   H974    1.110   .     S
C950   H973    1.111   .     S
C950   H975    1.111   .     S
C951   H981    1.073   .     S
C951   C953    1.400   .     A
C952   S1009   1.779   .     S
C953   S1010   1.777   .     S
C953   C116    1.410   1_556 S
C954   S1011   1.777   .     S
C954   C1508   1.388   1_545 S
C955   S1012   1.777   .     S
C955   C1198   1.385   .     S
C956   H982    1.083   .     S
C956   C1015   1.401   .     S
C956   C1230   1.388   .     S
Cu957  N985    2.008   .     S
Cu957  O1004   1.956   .     S
Cu957  O1007   1.944   .     S
Cu957  O987    1.965   .     S
Cu957  O1003   1.972   .     S
Cu958  O1006   1.944   .     S
Cu958  N986    2.008   .     S
Cu958  O1002   1.972   .     S
Cu958  O1005   1.956   .     S
Cu958  O998    1.965   .     S
Cu958  Cu1049  2.672   .     S
H959   C1029   1.083   .     S
H963   O989    0.991   .     S
H964   O992    0.991   .     S
H976   O997    0.991   .     S
H977   O1001   0.991   .     S
H979   C1027   1.079   .     S
O988   S1009   1.503   .     D
O989   S1009   1.682   .     S
O990   S1010   1.503   .     D
O991   S1010   1.499   .     D
O992   S1010   1.682   .     S
O995   S1011   1.503   .     D
O996   S1011   1.504   .     D
O997   S1011   1.680   .     S
O998   C1024   1.296   .     S
O999   S1012   1.503   .     D
O1000  S1012   1.504   .     D
O1001  S1012   1.677   .     S
O1005  C1022   1.299   .     S
O1008  S1009   1.504   .     D
C1013  O1094   1.287   .     A
C1013  C1016   1.451   .     S
C1013  O895    1.292   1_655 S
C1014  H1075   1.083   .     S
C1014  C1599   1.385   1_545 S
C1015  C1024   1.456   .     S
C1015  C1047   1.418   .     A
C1016  C1046   1.413   .     A
C1016  C830    1.397   1_655 S
C1017  C1019   1.414   .     A
C1017  H1076   1.082   .     S
C1017  N1078   1.367   .     A
C1018  N1077   1.367   .     A
C1018  H1052   1.082   .     S
C1018  C1020   1.414   .     A
C1019  N1077   1.366   .     A
C1019  H1053   1.081   .     S
C1020  N1078   1.366   .     A
C1020  H1054   1.082   .     S
C1021  O1098   1.289   .     A
C1021  C1023   1.462   .     S
C1021  O912    1.294   1_655 S
C1022  O1099   1.291   .     A
C1022  C1025   1.475   .     S
C1023  C1030   1.403   .     A
C1023  C1028   1.390   .     A
C1024  O1095   1.285   .     A
C1025  C1031   1.407   .     A
C1025  C1029   1.400   .     A
C1026  H1070   1.079   .     S
C1026  C1028   1.384   .     A
C1026  C1034   1.409   .     A
C1027  C1036   1.411   .     A
C1027  C1029   1.395   .     A
C1028  H878    1.078   1_655 S
C1030  C1032   1.422   .     A
C1030  O1086   1.383   .     S
C1031  C1033   1.412   .     A
C1031  O1085   1.388   .     S
C1032  C1037   1.432   .     A
C1032  C1034   1.433   .     A
C1033  C1038   1.417   .     A
C1033  C1036   1.415   .     A
C1034  C216    1.410   1_556 S
C1035  C1038   1.408   .     A
C1035  H1072   1.079   .     S
C1035  C1044   1.388   .     A
C1037  C1043   1.417   .     A
C1037  C210    1.411   1_556 S
C1039  H1057   1.113   .     S
C1039  H1058   1.115   .     S
C1039  C1040   1.521   .     S
C1039  O1085   1.415   .     S
C1040  H1061   1.111   .     S
C1040  H1059   1.109   .     S
C1040  H1060   1.110   .     S
C1041  C1042   1.521   .     S
C1041  O1086   1.411   .     S
C1041  H1063   1.114   .     S
C1041  H1064   1.115   .     S
C1042  H1066   1.110   .     S
C1042  H1065   1.111   .     S
C1042  H1067   1.111   .     S
C1043  H1073   1.073   .     S
C1043  C1045   1.400   .     A
C1044  S1101   1.779   .     S
C1045  S1102   1.777   .     S
C1045  C208    1.410   1_556 S
C1046  S1103   1.777   .     S
C1046  C1600   1.388   1_545 S
C1047  S1104   1.777   .     S
C1047  C1290   1.385   .     S
C1048  H1074   1.083   .     S
C1048  C831    1.401   1_655 S
C1048  C1322   1.388   .     S
Cu1049 N1077   2.008   .     S
Cu1049 O1096   1.956   .     S
Cu1049 O1099   1.944   .     S
Cu1049 O1079   1.965   .     S
Cu1049 O1095   1.972   .     S
Cu1050 O1098   1.944   .     S
Cu1050 N1078   2.008   .     S
Cu1050 O1094   1.972   .     S
Cu1050 O1097   1.956   .     S
Cu1050 O1090   1.965   .     S
Cu1050 Cu865   2.672   1_655 S
H1051  C845    1.083   1_655 S
H1055  O1081   0.991   .     S
H1056  O1084   0.991   .     S
H1068  O1089   0.991   .     S
H1069  O1093   0.991   .     S
H1071  C843    1.079   1_655 S
O1080  S1101   1.503   .     D
O1081  S1101   1.682   .     S
O1082  S1102   1.503   .     D
O1083  S1102   1.499   .     D
O1084  S1102   1.682   .     S
O1087  S1103   1.503   .     D
O1088  S1103   1.504   .     D
O1089  S1103   1.680   .     S
O1090  C840    1.296   1_655 S
O1091  S1104   1.503   .     D
O1092  S1104   1.504   .     D
O1093  S1104   1.677   .     S
O1097  C838    1.299   1_655 S
O1100  S1101   1.504   .     D
C1105  O1186   1.287   .     A
C1105  C1108   1.451   .     S
C1105  O1263   1.292   .     S
C1106  H1167   1.083   .     S
C1106  C1292   1.397   1_455 S
C1107  C1116   1.456   .     S
C1107  C1139   1.418   .     A
C1107  C1324   1.401   1_455 S
C1108  C1138   1.413   .     A
C1108  C1198   1.397   .     S
C1109  C1111   1.414   .     A
C1109  H1168   1.082   .     S
C1109  N1170   1.367   .     A
C1110  N1169   1.367   .     A
C1110  H1144   1.082   .     S
C1110  C1112   1.414   .     A
C1111  N1169   1.366   .     A
C1111  H1145   1.081   .     S
C1112  N1170   1.366   .     A
C1112  H1146   1.082   .     S
C1113  O1190   1.289   .     A
C1113  C1115   1.462   .     S
C1113  O1280   1.294   .     S
C1114  O1191   1.291   .     A
C1114  C1117   1.475   .     S
C1114  O1373   1.299   1_455 S
C1115  C1122   1.403   .     A
C1115  C1120   1.390   .     A
C1116  O1187   1.285   .     A
C1116  O1366   1.296   1_455 S
C1117  C1123   1.407   .     A
C1117  C1121   1.400   .     A
C1118  H1162   1.079   .     S
C1118  C1120   1.384   .     A
C1118  C1126   1.409   .     A
C1119  C1128   1.411   .     A
C1119  C1121   1.395   .     A
C1119  H1347   1.079   1_455 S
C1120  H1246   1.078   .     S
C1121  H1327   1.083   1_455 S
C1122  C1124   1.422   .     A
C1122  O1178   1.383   .     S
C1123  C1125   1.412   .     A
C1123  O1177   1.388   .     S
C1124  C1129   1.432   .     A
C1124  C1126   1.433   .     A
C1125  C1130   1.417   .     A
C1125  C1128   1.415   .     A
C1126  C308    1.410   1_556 S
C1127  C1130   1.408   .     A
C1127  H1164   1.079   .     S
C1127  C1136   1.388   .     A
C1129  C1135   1.417   .     A
C1129  C302    1.411   1_556 S
C1131  H1149   1.113   .     S
C1131  H1150   1.115   .     S
C1131  C1132   1.521   .     S
C1131  O1177   1.415   .     S
C1132  H1153   1.111   .     S
C1132  H1151   1.109   .     S
C1132  H1152   1.110   .     S
C1133  C1134   1.521   .     S
C1133  O1178   1.411   .     S
C1133  H1155   1.114   .     S
C1133  H1156   1.115   .     S
C1134  H1158   1.110   .     S
C1134  H1157   1.111   .     S
C1134  H1159   1.111   .     S
C1135  H1165   1.073   .     S
C1135  C1137   1.400   .     A
C1136  S1193   1.779   .     S
C1137  S1194   1.777   .     S
C1137  C300    1.410   1_556 S
C1138  S1195   1.777   .     S
C1139  S1196   1.777   .     S
C1139  C1382   1.385   .     S
C1140  H1166   1.083   .     S
C1140  C1199   1.401   .     S
C1140  C1414   1.388   .     S
Cu1141 N1169   2.008   .     S
Cu1141 O1188   1.956   .     S
Cu1141 O1191   1.944   .     S
Cu1141 O1171   1.965   .     S
Cu1141 O1187   1.972   .     S
Cu1141 Cu1326  2.672   1_455 S
Cu1142 O1190   1.944   .     S
Cu1142 N1170   2.008   .     S
Cu1142 O1186   1.972   .     S
Cu1142 O1189   1.956   .     S
Cu1142 O1182   1.965   .     S
Cu1142 Cu1233  2.672   .     S
H1143  C1213   1.083   .     S
H1147  O1173   0.991   .     S
H1148  O1176   0.991   .     S
H1154  C1304   1.078   1_455 S
H1160  O1181   0.991   .     S
H1161  O1185   0.991   .     S
H1163  C1211   1.079   .     S
O1171  C1289   1.292   1_455 S
O1172  S1193   1.503   .     D
O1173  S1193   1.682   .     S
O1174  S1194   1.503   .     D
O1175  S1194   1.499   .     D
O1176  S1194   1.682   .     S
O1179  S1195   1.503   .     D
O1180  S1195   1.504   .     D
O1181  S1195   1.680   .     S
O1182  C1208   1.296   .     S
O1183  S1196   1.503   .     D
O1184  S1196   1.504   .     D
O1185  S1196   1.677   .     S
O1188  C1297   1.294   1_455 S
O1189  C1206   1.299   .     S
O1192  S1193   1.504   .     D
C1197  O1278   1.287   .     A
C1197  C1200   1.451   .     S
C1197  O1355   1.292   .     S
C1198  H1259   1.083   .     S
C1199  C1208   1.456   .     S
C1199  C1231   1.418   .     A
C1200  C1230   1.413   .     A
C1200  C1290   1.397   .     S
C1201  C1203   1.414   .     A
C1201  H1260   1.082   .     S
C1201  N1262   1.367   .     A
C1202  N1261   1.367   .     A
C1202  H1236   1.082   .     S
C1202  C1204   1.414   .     A
C1203  N1261   1.366   .     A
C1203  H1237   1.081   .     S
C1204  N1262   1.366   .     A
C1204  H1238   1.082   .     S
C1205  O1282   1.289   .     A
C1205  C1207   1.462   .     S
C1205  O1372   1.294   .     S
C1206  O1283   1.291   .     A
C1206  C1209   1.475   .     S
C1207  C1214   1.403   .     A
C1207  C1212   1.390   .     A
C1208  O1279   1.285   .     A
C1209  C1215   1.407   .     A
C1209  C1213   1.400   .     A
C1210  H1254   1.079   .     S
C1210  C1212   1.384   .     A
C1210  C1218   1.409   .     A
C1211  C1220   1.411   .     A
C1211  C1213   1.395   .     A
C1212  H1338   1.078   .     S
C1214  C1216   1.422   .     A
C1214  O1270   1.383   .     S
C1215  C1217   1.412   .     A
C1215  O1269   1.388   .     S
C1216  C1221   1.432   .     A
C1216  C1218   1.433   .     A
C1217  C1222   1.417   .     A
C1217  C1220   1.415   .     A
C1218  C400    1.410   1_556 S
C1219  C1222   1.408   .     A
C1219  H1256   1.079   .     S
C1219  C1228   1.388   .     A
C1221  C1227   1.417   .     A
C1221  C394    1.411   1_556 S
C1223  H1241   1.113   .     S
C1223  H1242   1.115   .     S
C1223  C1224   1.521   .     S
C1223  O1269   1.415   .     S
C1224  H1245   1.111   .     S
C1224  H1243   1.109   .     S
C1224  H1244   1.110   .     S
C1225  C1226   1.521   .     S
C1225  O1270   1.411   .     S
C1225  H1247   1.114   .     S
C1225  H1248   1.115   .     S
C1226  H1250   1.110   .     S
C1226  H1249   1.111   .     S
C1226  H1251   1.111   .     S
C1227  H1257   1.073   .     S
C1227  C1229   1.400   .     A
C1228  S1285   1.779   .     S
C1229  S1286   1.777   .     S
C1229  C392    1.410   1_556 S
C1230  S1287   1.777   .     S
C1231  S1288   1.777   .     S
C1231  C1474   1.385   .     S
C1232  H1258   1.083   .     S
C1232  C1291   1.401   .     S
C1232  C1506   1.388   .     S
Cu1233 N1261   2.008   .     S
Cu1233 O1280   1.956   .     S
Cu1233 O1283   1.944   .     S
Cu1233 O1263   1.965   .     S
Cu1233 O1279   1.972   .     S
Cu1234 O1282   1.944   .     S
Cu1234 N1262   2.008   .     S
Cu1234 O1278   1.972   .     S
Cu1234 O1281   1.956   .     S
Cu1234 O1274   1.965   .     S
Cu1234 Cu1325  2.672   .     S
H1235  C1305   1.083   .     S
H1239  O1265   0.991   .     S
H1240  O1268   0.991   .     S
H1252  O1273   0.991   .     S
H1253  O1277   0.991   .     S
H1255  C1303   1.079   .     S
O1264  S1285   1.503   .     D
O1265  S1285   1.682   .     S
O1266  S1286   1.503   .     D
O1267  S1286   1.499   .     D
O1268  S1286   1.682   .     S
O1271  S1287   1.503   .     D
O1272  S1287   1.504   .     D
O1273  S1287   1.680   .     S
O1274  C1300   1.296   .     S
O1275  S1288   1.503   .     D
O1276  S1288   1.504   .     D
O1277  S1288   1.677   .     S
O1281  C1298   1.299   .     S
O1284  S1285   1.504   .     D
C1289  O1370   1.287   .     A
C1289  C1292   1.451   .     S
C1289  O1171   1.292   1_655 S
C1290  H1351   1.083   .     S
C1291  C1300   1.456   .     S
C1291  C1323   1.418   .     A
C1292  C1322   1.413   .     A
C1292  C1106   1.397   1_655 S
C1293  C1295   1.414   .     A
C1293  H1352   1.082   .     S
C1293  N1354   1.367   .     A
C1294  N1353   1.367   .     A
C1294  H1328   1.082   .     S
C1294  C1296   1.414   .     A
C1295  N1353   1.366   .     A
C1295  H1329   1.081   .     S
C1296  N1354   1.366   .     A
C1296  H1330   1.082   .     S
C1297  O1374   1.289   .     A
C1297  C1299   1.462   .     S
C1297  O1188   1.294   1_655 S
C1298  O1375   1.291   .     A
C1298  C1301   1.475   .     S
C1299  C1306   1.403   .     A
C1299  C1304   1.390   .     A
C1300  O1371   1.285   .     A
C1301  C1307   1.407   .     A
C1301  C1305   1.400   .     A
C1302  H1346   1.079   .     S
C1302  C1304   1.384   .     A
C1302  C1310   1.409   .     A
C1303  C1312   1.411   .     A
C1303  C1305   1.395   .     A
C1304  H1154   1.078   1_655 S
C1306  C1308   1.422   .     A
C1306  O1362   1.383   .     S
C1307  C1309   1.412   .     A
C1307  O1361   1.388   .     S
C1308  C1313   1.432   .     A
C1308  C1310   1.433   .     A
C1309  C1314   1.417   .     A
C1309  C1312   1.415   .     A
C1310  C492    1.410   1_556 S
C1311  C1314   1.408   .     A
C1311  H1348   1.079   .     S
C1311  C1320   1.388   .     A
C1313  C1319   1.417   .     A
C1313  C486    1.411   1_556 S
C1315  H1333   1.113   .     S
C1315  H1334   1.115   .     S
C1315  C1316   1.521   .     S
C1315  O1361   1.415   .     S
C1316  H1337   1.111   .     S
C1316  H1335   1.109   .     S
C1316  H1336   1.110   .     S
C1317  C1318   1.521   .     S
C1317  O1362   1.411   .     S
C1317  H1339   1.114   .     S
C1317  H1340   1.115   .     S
C1318  H1342   1.110   .     S
C1318  H1341   1.111   .     S
C1318  H1343   1.111   .     S
C1319  H1349   1.073   .     S
C1319  C1321   1.400   .     A
C1320  S1377   1.779   .     S
C1321  S1378   1.777   .     S
C1321  C484    1.410   1_556 S
C1322  S1379   1.777   .     S
C1323  S1380   1.777   .     S
C1323  C1566   1.385   .     S
C1324  H1350   1.083   .     S
C1324  C1107   1.401   1_655 S
C1324  C1598   1.388   .     S
Cu1325 N1353   2.008   .     S
Cu1325 O1372   1.956   .     S
Cu1325 O1375   1.944   .     S
Cu1325 O1355   1.965   .     S
Cu1325 O1371   1.972   .     S
Cu1326 O1374   1.944   .     S
Cu1326 N1354   2.008   .     S
Cu1326 O1370   1.972   .     S
Cu1326 O1373   1.956   .     S
Cu1326 O1366   1.965   .     S
Cu1326 Cu1141  2.672   1_655 S
H1327  C1121   1.083   1_655 S
H1331  O1357   0.991   .     S
H1332  O1360   0.991   .     S
H1344  O1365   0.991   .     S
H1345  O1369   0.991   .     S
H1347  C1119   1.079   1_655 S
O1356  S1377   1.503   .     D
O1357  S1377   1.682   .     S
O1358  S1378   1.503   .     D
O1359  S1378   1.499   .     D
O1360  S1378   1.682   .     S
O1363  S1379   1.503   .     D
O1364  S1379   1.504   .     D
O1365  S1379   1.680   .     S
O1366  C1116   1.296   1_655 S
O1367  S1380   1.503   .     D
O1368  S1380   1.504   .     D
O1369  S1380   1.677   .     S
O1373  C1114   1.299   1_655 S
O1376  S1377   1.504   .     D
C1381  O1462   1.287   .     A
C1381  C1384   1.451   .     S
C1381  O1539   1.292   .     S
C1382  H1443   1.083   .     S
C1382  C1568   1.397   1_455 S
C1383  C1392   1.456   .     S
C1383  C1415   1.418   .     A
C1383  C1600   1.401   1_455 S
C1384  C1414   1.413   .     A
C1384  C1474   1.397   .     S
C1385  C1387   1.414   .     A
C1385  H1444   1.082   .     S
C1385  N1446   1.367   .     A
C1386  N1445   1.367   .     A
C1386  H1420   1.082   .     S
C1386  C1388   1.414   .     A
C1387  N1445   1.366   .     A
C1387  H1421   1.081   .     S
C1388  N1446   1.366   .     A
C1388  H1422   1.082   .     S
C1389  O1466   1.289   .     A
C1389  C1391   1.462   .     S
C1389  O1556   1.294   .     S
C1390  O1467   1.291   .     A
C1390  C1393   1.475   .     S
C1390  O1649   1.299   1_455 S
C1391  C1398   1.403   .     A
C1391  C1396   1.390   .     A
C1392  O1463   1.285   .     A
C1392  O1642   1.296   1_455 S
C1393  C1399   1.407   .     A
C1393  C1397   1.400   .     A
C1394  H1438   1.079   .     S
C1394  C1396   1.384   .     A
C1394  C1402   1.409   .     A
C1395  C1404   1.411   .     A
C1395  C1397   1.395   .     A
C1395  H1623   1.079   1_455 S
C1396  H1522   1.078   .     S
C1397  H1603   1.083   1_455 S
C1398  C1400   1.422   .     A
C1398  O1454   1.383   .     S
C1399  C1401   1.412   .     A
C1399  O1453   1.388   .     S
C1400  C1405   1.432   .     A
C1400  C1402   1.433   .     A
C1401  C1406   1.417   .     A
C1401  C1404   1.415   .     A
C1402  C584    1.410   1_556 S
C1403  C1406   1.408   .     A
C1403  H1440   1.079   .     S
C1403  C1412   1.388   .     A
C1405  C1411   1.417   .     A
C1405  C578    1.411   1_556 S
C1407  H1425   1.113   .     S
C1407  H1426   1.115   .     S
C1407  C1408   1.521   .     S
C1407  O1453   1.415   .     S
C1408  H1429   1.111   .     S
C1408  H1427   1.109   .     S
C1408  H1428   1.110   .     S
C1409  C1410   1.521   .     S
C1409  O1454   1.411   .     S
C1409  H1431   1.114   .     S
C1409  H1432   1.115   .     S
C1410  H1434   1.110   .     S
C1410  H1433   1.111   .     S
C1410  H1435   1.111   .     S
C1411  H1441   1.073   .     S
C1411  C1413   1.400   .     A
C1412  S1469   1.779   .     S
C1413  S1470   1.777   .     S
C1413  C576    1.410   1_556 S
C1414  S1471   1.777   .     S
C1415  S1472   1.777   .     S
C1415  C830    1.385   1_565 S
C1416  H1442   1.083   .     S
C1416  C1475   1.401   .     S
C1416  C862    1.388   1_565 S
Cu1417 N1445   2.008   .     S
Cu1417 O1464   1.956   .     S
Cu1417 O1467   1.944   .     S
Cu1417 O1447   1.965   .     S
Cu1417 O1463   1.972   .     S
Cu1417 Cu1602  2.672   1_455 S
Cu1418 O1466   1.944   .     S
Cu1418 N1446   2.008   .     S
Cu1418 O1462   1.972   .     S
Cu1418 O1465   1.956   .     S
Cu1418 O1458   1.965   .     S
Cu1418 Cu1509  2.672   .     S
H1419  C1489   1.083   .     S
H1423  O1449   0.991   .     S
H1424  O1452   0.991   .     S
H1430  C1580   1.078   1_455 S
H1436  O1457   0.991   .     S
H1437  O1461   0.991   .     S
H1439  C1487   1.079   .     S
O1447  C1565   1.292   1_455 S
O1448  S1469   1.503   .     D
O1449  S1469   1.682   .     S
O1450  S1470   1.503   .     D
O1451  S1470   1.499   .     D
O1452  S1470   1.682   .     S
O1455  S1471   1.503   .     D
O1456  S1471   1.504   .     D
O1457  S1471   1.680   .     S
O1458  C1484   1.296   .     S
O1459  S1472   1.503   .     D
O1460  S1472   1.504   .     D
O1461  S1472   1.677   .     S
O1464  C1573   1.294   1_455 S
O1465  C1482   1.299   .     S
O1468  S1469   1.504   .     D
C1473  O1554   1.287   .     A
C1473  C1476   1.451   .     S
C1473  O1631   1.292   .     S
C1474  H1535   1.083   .     S
C1475  C1484   1.456   .     S
C1475  C1507   1.418   .     A
C1476  C1506   1.413   .     A
C1476  C1566   1.397   .     S
C1477  C1479   1.414   .     A
C1477  H1536   1.082   .     S
C1477  N1538   1.367   .     A
C1478  N1537   1.367   .     A
C1478  H1512   1.082   .     S
C1478  C1480   1.414   .     A
C1479  N1537   1.366   .     A
C1479  H1513   1.081   .     S
C1480  N1538   1.366   .     A
C1480  H1514   1.082   .     S
C1481  O1558   1.289   .     A
C1481  C1483   1.462   .     S
C1481  O1648   1.294   .     S
C1482  O1559   1.291   .     A
C1482  C1485   1.475   .     S
C1483  C1490   1.403   .     A
C1483  C1488   1.390   .     A
C1484  O1555   1.285   .     A
C1485  C1491   1.407   .     A
C1485  C1489   1.400   .     A
C1486  H1530   1.079   .     S
C1486  C1488   1.384   .     A
C1486  C1494   1.409   .     A
C1487  C1496   1.411   .     A
C1487  C1489   1.395   .     A
C1488  H1614   1.078   .     S
C1490  C1492   1.422   .     A
C1490  O1546   1.383   .     S
C1491  C1493   1.412   .     A
C1491  O1545   1.388   .     S
C1492  C1497   1.432   .     A
C1492  C1494   1.433   .     A
C1493  C1498   1.417   .     A
C1493  C1496   1.415   .     A
C1494  C676    1.410   1_556 S
C1495  C1498   1.408   .     A
C1495  H1532   1.079   .     S
C1495  C1504   1.388   .     A
C1497  C1503   1.417   .     A
C1497  C670    1.411   1_556 S
C1499  H1517   1.113   .     S
C1499  H1518   1.115   .     S
C1499  C1500   1.521   .     S
C1499  O1545   1.415   .     S
C1500  H1521   1.111   .     S
C1500  H1519   1.109   .     S
C1500  H1520   1.110   .     S
C1501  C1502   1.521   .     S
C1501  O1546   1.411   .     S
C1501  H1523   1.114   .     S
C1501  H1524   1.115   .     S
C1502  H1526   1.110   .     S
C1502  H1525   1.111   .     S
C1502  H1527   1.111   .     S
C1503  H1533   1.073   .     S
C1503  C1505   1.400   .     A
C1504  S1561   1.779   .     S
C1505  S1562   1.777   .     S
C1505  C668    1.410   1_556 S
C1506  S1563   1.777   .     S
C1507  S1564   1.777   .     S
C1507  C922    1.385   1_565 S
C1508  H1534   1.083   .     S
C1508  C1567   1.401   .     S
C1508  C954    1.388   1_565 S
Cu1509 N1537   2.008   .     S
Cu1509 O1556   1.956   .     S
Cu1509 O1559   1.944   .     S
Cu1509 O1539   1.965   .     S
Cu1509 O1555   1.972   .     S
Cu1510 O1558   1.944   .     S
Cu1510 N1538   2.008   .     S
Cu1510 O1554   1.972   .     S
Cu1510 O1557   1.956   .     S
Cu1510 O1550   1.965   .     S
Cu1510 Cu1601  2.672   .     S
H1511  C1581   1.083   .     S
H1515  O1541   0.991   .     S
H1516  O1544   0.991   .     S
H1528  O1549   0.991   .     S
H1529  O1553   0.991   .     S
H1531  C1579   1.079   .     S
O1540  S1561   1.503   .     D
O1541  S1561   1.682   .     S
O1542  S1562   1.503   .     D
O1543  S1562   1.499   .     D
O1544  S1562   1.682   .     S
O1547  S1563   1.503   .     D
O1548  S1563   1.504   .     D
O1549  S1563   1.680   .     S
O1550  C1576   1.296   .     S
O1551  S1564   1.503   .     D
O1552  S1564   1.504   .     D
O1553  S1564   1.677   .     S
O1557  C1574   1.299   .     S
O1560  S1561   1.504   .     D
C1565  O1646   1.287   .     A
C1565  C1568   1.451   .     S
C1565  O1447   1.292   1_655 S
C1566  H1627   1.083   .     S
C1567  C1576   1.456   .     S
C1567  C1599   1.418   .     A
C1568  C1598   1.413   .     A
C1568  C1382   1.397   1_655 S
C1569  C1571   1.414   .     A
C1569  H1628   1.082   .     S
C1569  N1630   1.367   .     A
C1570  N1629   1.367   .     A
C1570  H1604   1.082   .     S
C1570  C1572   1.414   .     A
C1571  N1629   1.366   .     A
C1571  H1605   1.081   .     S
C1572  N1630   1.366   .     A
C1572  H1606   1.082   .     S
C1573  O1650   1.289   .     A
C1573  C1575   1.462   .     S
C1573  O1464   1.294   1_655 S
C1574  O1651   1.291   .     A
C1574  C1577   1.475   .     S
C1575  C1582   1.403   .     A
C1575  C1580   1.390   .     A
C1576  O1647   1.285   .     A
C1577  C1583   1.407   .     A
C1577  C1581   1.400   .     A
C1578  H1622   1.079   .     S
C1578  C1580   1.384   .     A
C1578  C1586   1.409   .     A
C1579  C1588   1.411   .     A
C1579  C1581   1.395   .     A
C1580  H1430   1.078   1_655 S
C1582  C1584   1.422   .     A
C1582  O1638   1.383   .     S
C1583  C1585   1.412   .     A
C1583  O1637   1.388   .     S
C1584  C1589   1.432   .     A
C1584  C1586   1.433   .     A
C1585  C1590   1.417   .     A
C1585  C1588   1.415   .     A
C1586  C768    1.410   1_556 S
C1587  C1590   1.408   .     A
C1587  H1624   1.079   .     S
C1587  C1596   1.388   .     A
C1589  C1595   1.417   .     A
C1589  C762    1.411   1_556 S
C1591  H1609   1.113   .     S
C1591  H1610   1.115   .     S
C1591  C1592   1.521   .     S
C1591  O1637   1.415   .     S
C1592  H1613   1.111   .     S
C1592  H1611   1.109   .     S
C1592  H1612   1.110   .     S
C1593  C1594   1.521   .     S
C1593  O1638   1.411   .     S
C1593  H1615   1.114   .     S
C1593  H1616   1.115   .     S
C1594  H1618   1.110   .     S
C1594  H1617   1.111   .     S
C1594  H1619   1.111   .     S
C1595  H1625   1.073   .     S
C1595  C1597   1.400   .     A
C1596  S1653   1.779   .     S
C1597  S1654   1.777   .     S
C1597  C760    1.410   1_556 S
C1598  S1655   1.777   .     S
C1599  S1656   1.777   .     S
C1599  C1014   1.385   1_565 S
C1600  H1626   1.083   .     S
C1600  C1383   1.401   1_655 S
C1600  C1046   1.388   1_565 S
Cu1601 N1629   2.008   .     S
Cu1601 O1648   1.956   .     S
Cu1601 O1651   1.944   .     S
Cu1601 O1631   1.965   .     S
Cu1601 O1647   1.972   .     S
Cu1602 O1650   1.944   .     S
Cu1602 N1630   2.008   .     S
Cu1602 O1646   1.972   .     S
Cu1602 O1649   1.956   .     S
Cu1602 O1642   1.965   .     S
Cu1602 Cu1417  2.672   1_655 S
H1603  C1397   1.083   1_655 S
H1607  O1633   0.991   .     S
H1608  O1636   0.991   .     S
H1620  O1641   0.991   .     S
H1621  O1645   0.991   .     S
H1623  C1395   1.079   1_655 S
O1632  S1653   1.503   .     D
O1633  S1653   1.682   .     S
O1634  S1654   1.503   .     D
O1635  S1654   1.499   .     D
O1636  S1654   1.682   .     S
O1639  S1655   1.503   .     D
O1640  S1655   1.504   .     D
O1641  S1655   1.680   .     S
O1642  C1392   1.296   1_655 S
O1643  S1656   1.503   .     D
O1644  S1656   1.504   .     D
O1645  S1656   1.677   .     S
O1649  C1390   1.299   1_655 S
O1652  S1653   1.504   .     D
