data_str_m1_o10_o18_pcu_sym.22
_audit_creation_date              2020-01-03
_audit_creation_method            'Materials Studio'
_symmetry_space_group_name_H-M    'P1'
_symmetry_Int_Tables_number       1
_symmetry_cell_setting            triclinic
loop_
_symmetry_equiv_pos_as_xyz
  x,y,z
_cell_length_a                    32.7096
_cell_length_b                    32.6856
_cell_length_c                    35.2146
_cell_angle_alpha                 97.5341
_cell_angle_beta                  72.6041
_cell_angle_gamma                 98.3281
loop_
_atom_site_label
_atom_site_type_symbol
_atom_site_fract_x
_atom_site_fract_y
_atom_site_fract_z
_atom_site_U_iso_or_equiv
_atom_site_adp_type
_atom_site_occupancy
C1     C     0.05269   0.16001   0.25923   0.00000  Uiso   1.00
C2     C     0.19989   0.12084   0.45560   0.00000  Uiso   1.00
C3     C     0.22649   0.10987   0.47632   0.00000  Uiso   1.00
C4     C     0.28142   0.17244   0.24015   0.00000  Uiso   1.00
C5     C     0.21640   0.11754   0.01773   0.00000  Uiso   1.00
C6     C     0.17601   0.13105   0.03955   0.00000  Uiso   1.00
C7     C     0.24631   0.11207   0.03757   0.00000  Uiso   1.00
C8     C     0.23727   0.12172   0.07877   0.00000  Uiso   1.00
C9     C     0.16835   0.14233   0.08086   0.00000  Uiso   1.00
C10    C     0.32787   0.17080   0.23342   0.00000  Uiso   1.00
C11    C     0.00748   0.15962   0.26346   0.00000  Uiso   1.00
C12    C     0.09245   0.20574   0.42446   0.00000  Uiso   1.00
C13    C     0.17835   0.32176   0.23438   0.00000  Uiso   1.00
C14    C     0.15304   0.01290   0.26345   0.00000  Uiso   1.00
C15    C     0.15580   0.05648   0.25950   0.00000  Uiso   1.00
C16    C     0.17648   0.27769   0.24042   0.00000  Uiso   1.00
C17    C     0.18812   0.14586   0.14371   0.00000  Uiso   1.00
C18    C     0.14503   0.18731   0.35666   0.00000  Uiso   1.00
C19    C     0.13118   0.19026   0.40109   0.00000  Uiso   1.00
C20    C     0.19828   0.13682   0.10042   0.00000  Uiso   1.00
C21    C     0.07903   0.20283   0.46643   0.00000  Uiso   1.00
C22    C     0.02829   0.18031   0.19359   0.00000  Uiso   1.00
C23    C     0.15605   0.17353   0.41993   0.00000  Uiso   1.00
C24    C     0.01193   0.18968   0.15961   0.00000  Uiso   1.00
C25    C     0.20751   0.00747   0.19629   0.00000  Uiso   1.00
C26    C     0.23369   0.31195   0.16304   0.00000  Uiso   1.00
C27    C     0.04761   0.23177   0.49410   0.00000  Uiso   1.00
C28    C     0.06352   0.27771   0.48900   0.00000  Uiso   1.00
C29    C     0.07735   0.10741   0.06826   0.00000  Uiso   1.00
C30    C     0.06850   0.06424   0.04774   0.00000  Uiso   1.00
C31    C     0.13909   0.16221   0.45922   0.00000  Uiso   1.00
C32    C     0.09870   0.17538   0.48229   0.00000  Uiso   1.00
C33    C     0.16216   0.14018   0.47701   0.00000  Uiso   1.00
C34    C     0.14646   0.13695   0.01876   0.00000  Uiso   1.00
C35    C     0.10152   0.13770   0.03721   0.00000  Uiso   1.00
C36    C     0.07780   0.15797   0.01896   0.00000  Uiso   1.00
H37    H     0.27694   0.10097   0.02111   0.00000  Uiso   1.00
H38    H     0.03949   0.19238   0.13214   0.00000  Uiso   1.00
H39    H     0.05148   0.20710   0.19935   0.00000  Uiso   1.00
H40    H     0.04655   0.15298   0.18193   0.00000  Uiso   1.00
H41    H     0.31495   0.12404   0.30960   0.00000  Uiso   1.00
H42    H     0.32051   0.17562   0.32327   0.00000  Uiso   1.00
H43    H     0.25887   0.30043   0.17283   0.00000  Uiso   1.00
H44    H     0.21225   0.28572   0.15340   0.00000  Uiso   1.00
H45    H     0.25039   0.32960   0.13676   0.00000  Uiso   1.00
H46    H     0.18697   0.02157   0.18266   0.00000  Uiso   1.00
H47    H     0.23054   0.03283   0.20491   0.00000  Uiso   1.00
H48    H     0.14006   0.15723   0.09786   0.00000  Uiso   1.00
H49    H     0.09528   0.00463   0.30508   0.00000  Uiso   1.00
H50    H     0.13793   0.01544   0.32387   0.00000  Uiso   1.00
H51    H     0.09794   0.28429   0.48859   0.00000  Uiso   1.00
H52    H     0.05953   0.28704   0.46136   0.00000  Uiso   1.00
H53    H     0.04429   0.29720   0.01445   0.00000  Uiso   1.00
H54    H     0.01504   0.22409   0.48973   0.00000  Uiso   1.00
H55    H     0.04422   0.22898   0.02588   0.00000  Uiso   1.00
H56    H     0.08020   0.25345   0.39955   0.00000  Uiso   1.00
H57    H     0.03486   0.22330   0.42266   0.00000  Uiso   1.00
H58    H     0.04985   0.06527   0.02631   0.00000  Uiso   1.00
H59    H     0.26062   0.11738   0.09376   0.00000  Uiso   1.00
H60    H     0.09938   0.05156   0.03137   0.00000  Uiso   1.00
H61    H     0.04968   0.04296   0.07053   0.00000  Uiso   1.00
H62    H     0.09504   0.10353   0.08947   0.00000  Uiso   1.00
H63    H     0.04647   0.11816   0.08727   0.00000  Uiso   1.00
H64    H     0.20838   0.07563   0.40981   0.00000  Uiso   1.00
H65    H     0.24050   0.12055   0.39958   0.00000  Uiso   1.00
H66    H     0.25582   0.09638   0.45969   0.00000  Uiso   1.00
H67    H     0.18854   0.16899   0.40273   0.00000  Uiso   1.00
H68    H     0.02426   0.17026   0.06436   0.00000  Uiso   1.00
H69    H     0.01756   0.12618   0.03413   0.00000  Uiso   1.00
H70    H     0.32125   0.16411   0.15314   0.00000  Uiso   1.00
H71    H     0.33144   0.21979   0.16682   0.00000  Uiso   1.00
N72    N     0.03175   0.15690   0.03482   0.00000  Uiso   1.00
N73    N     0.31154   0.15314   0.30236   0.00000  Uiso   1.00
N74    N     0.12687   0.33173   0.30091   0.00000  Uiso   1.00
N75    N     0.06679   0.22305   0.40510   0.00000  Uiso   1.00
N76    N     0.20915   0.10798   0.41368   0.00000  Uiso   1.00
O77    O     0.16667   0.16667   0.25000   0.00000  Uiso   1.00
O78    O     0.15693   0.12393   0.16625   0.00000  Uiso   1.00
O79    O     0.12687   0.20646   0.33749   0.00000  Uiso   1.00
O80    O     0.21088   0.17493   0.15877   0.00000  Uiso   1.00
O81    O     0.17198   0.16135   0.33749   0.00000  Uiso   1.00
O82    O     0.17849   0.08101   0.27821   0.00000  Uiso   1.00
O83    O     0.14581   0.26136   0.26767   0.00000  Uiso   1.00
O84    O     0.07452   0.13251   0.23607   0.00000  Uiso   1.00
O85    O     0.26785   0.19179   0.21806   0.00000  Uiso   1.00
O86    O     0.06990   0.18960   0.27820   0.00000  Uiso   1.00
O87    O     0.25440   0.15277   0.26768   0.00000  Uiso   1.00
O88    O     0.13800   0.06903   0.23607   0.00000  Uiso   1.00
O89    O     0.20437   0.25527   0.21806   0.00000  Uiso   1.00
Zn90   Zn    0.19244   0.14090   0.28278   0.00000  Uiso   1.00
Zn91   Zn    0.13459   0.12378   0.22258   0.00000  Uiso   1.00
Zn92   Zn    0.21166   0.19664   0.21188   0.00000  Uiso   1.00
Zn93   Zn    0.12798   0.20535   0.28277   0.00000  Uiso   1.00
C94    C     0.38602   0.16001   0.25923   0.00000  Uiso   1.00
C95    C     0.53322   0.12084   0.45560   0.00000  Uiso   1.00
C96    C     0.55983   0.10987   0.47632   0.00000  Uiso   1.00
C97    C     0.61475   0.17244   0.24015   0.00000  Uiso   1.00
C98    C     0.54973   0.11754   0.01773   0.00000  Uiso   1.00
C99    C     0.50934   0.13105   0.03955   0.00000  Uiso   1.00
C100   C     0.57964   0.11207   0.03757   0.00000  Uiso   1.00
C101   C     0.57060   0.12172   0.07877   0.00000  Uiso   1.00
C102   C     0.50168   0.14233   0.08086   0.00000  Uiso   1.00
C103   C     0.66120   0.17080   0.23342   0.00000  Uiso   1.00
C104   C     0.34082   0.15962   0.26346   0.00000  Uiso   1.00
C105   C     0.42578   0.20574   0.42446   0.00000  Uiso   1.00
C106   C     0.51168   0.32176   0.23438   0.00000  Uiso   1.00
C107   C     0.48637   0.01290   0.26345   0.00000  Uiso   1.00
C108   C     0.48913   0.05648   0.25950   0.00000  Uiso   1.00
C109   C     0.50981   0.27769   0.24042   0.00000  Uiso   1.00
C110   C     0.52145   0.14586   0.14371   0.00000  Uiso   1.00
C111   C     0.47836   0.18731   0.35666   0.00000  Uiso   1.00
C112   C     0.46451   0.19026   0.40109   0.00000  Uiso   1.00
C113   C     0.53161   0.13682   0.10042   0.00000  Uiso   1.00
C114   C     0.41236   0.20283   0.46643   0.00000  Uiso   1.00
C115   C     0.36163   0.18031   0.19359   0.00000  Uiso   1.00
C116   C     0.48938   0.17353   0.41993   0.00000  Uiso   1.00
C117   C     0.34527   0.18968   0.15961   0.00000  Uiso   1.00
C118   C     0.54084   0.00747   0.19629   0.00000  Uiso   1.00
C119   C     0.56702   0.31195   0.16304   0.00000  Uiso   1.00
C120   C     0.38094   0.23177   0.49410   0.00000  Uiso   1.00
C121   C     0.39686   0.27771   0.48900   0.00000  Uiso   1.00
C122   C     0.41068   0.10741   0.06826   0.00000  Uiso   1.00
C123   C     0.40183   0.06424   0.04774   0.00000  Uiso   1.00
C124   C     0.47243   0.16221   0.45922   0.00000  Uiso   1.00
C125   C     0.43203   0.17538   0.48229   0.00000  Uiso   1.00
C126   C     0.49549   0.14018   0.47701   0.00000  Uiso   1.00
C127   C     0.47980   0.13695   0.01876   0.00000  Uiso   1.00
C128   C     0.43485   0.13770   0.03721   0.00000  Uiso   1.00
C129   C     0.41113   0.15797   0.01896   0.00000  Uiso   1.00
H130   H     0.61027   0.10097   0.02111   0.00000  Uiso   1.00
H131   H     0.37282   0.19238   0.13214   0.00000  Uiso   1.00
H132   H     0.38481   0.20710   0.19935   0.00000  Uiso   1.00
H133   H     0.37988   0.15298   0.18193   0.00000  Uiso   1.00
H134   H     0.64829   0.12404   0.30960   0.00000  Uiso   1.00
H135   H     0.65385   0.17562   0.32327   0.00000  Uiso   1.00
H136   H     0.59221   0.30043   0.17283   0.00000  Uiso   1.00
H137   H     0.54558   0.28572   0.15340   0.00000  Uiso   1.00
H138   H     0.58372   0.32960   0.13676   0.00000  Uiso   1.00
H139   H     0.52030   0.02157   0.18266   0.00000  Uiso   1.00
H140   H     0.56388   0.03283   0.20491   0.00000  Uiso   1.00
H141   H     0.47340   0.15723   0.09786   0.00000  Uiso   1.00
H142   H     0.42861   0.00463   0.30508   0.00000  Uiso   1.00
H143   H     0.47127   0.01544   0.32387   0.00000  Uiso   1.00
H144   H     0.43127   0.28429   0.48859   0.00000  Uiso   1.00
H145   H     0.39286   0.28704   0.46136   0.00000  Uiso   1.00
H146   H     0.37762   0.29720   0.01445   0.00000  Uiso   1.00
H147   H     0.34837   0.22409   0.48973   0.00000  Uiso   1.00
H148   H     0.37756   0.22898   0.02588   0.00000  Uiso   1.00
H149   H     0.41354   0.25345   0.39955   0.00000  Uiso   1.00
H150   H     0.36819   0.22330   0.42266   0.00000  Uiso   1.00
H151   H     0.38318   0.06527   0.02631   0.00000  Uiso   1.00
H152   H     0.59395   0.11738   0.09376   0.00000  Uiso   1.00
H153   H     0.43271   0.05156   0.03137   0.00000  Uiso   1.00
H154   H     0.38301   0.04296   0.07053   0.00000  Uiso   1.00
H155   H     0.42838   0.10353   0.08947   0.00000  Uiso   1.00
H156   H     0.37980   0.11816   0.08727   0.00000  Uiso   1.00
H157   H     0.54172   0.07563   0.40981   0.00000  Uiso   1.00
H158   H     0.57384   0.12055   0.39958   0.00000  Uiso   1.00
H159   H     0.58915   0.09638   0.45969   0.00000  Uiso   1.00
H160   H     0.52187   0.16899   0.40273   0.00000  Uiso   1.00
H161   H     0.35759   0.17026   0.06436   0.00000  Uiso   1.00
H162   H     0.35090   0.12618   0.03413   0.00000  Uiso   1.00
H163   H     0.65459   0.16411   0.15314   0.00000  Uiso   1.00
H164   H     0.66477   0.21979   0.16682   0.00000  Uiso   1.00
N165   N     0.36508   0.15690   0.03482   0.00000  Uiso   1.00
N166   N     0.64487   0.15314   0.30236   0.00000  Uiso   1.00
N167   N     0.46021   0.33173   0.30091   0.00000  Uiso   1.00
N168   N     0.40013   0.22305   0.40510   0.00000  Uiso   1.00
N169   N     0.54248   0.10798   0.41368   0.00000  Uiso   1.00
O170   O     0.50000   0.16667   0.25000   0.00000  Uiso   1.00
O171   O     0.49027   0.12393   0.16625   0.00000  Uiso   1.00
O172   O     0.46020   0.20646   0.33749   0.00000  Uiso   1.00
O173   O     0.54421   0.17493   0.15877   0.00000  Uiso   1.00
O174   O     0.50532   0.16135   0.33749   0.00000  Uiso   1.00
O175   O     0.51182   0.08101   0.27821   0.00000  Uiso   1.00
O176   O     0.47914   0.26136   0.26767   0.00000  Uiso   1.00
O177   O     0.40785   0.13251   0.23607   0.00000  Uiso   1.00
O178   O     0.60119   0.19179   0.21806   0.00000  Uiso   1.00
O179   O     0.40323   0.18960   0.27820   0.00000  Uiso   1.00
O180   O     0.58773   0.15277   0.26768   0.00000  Uiso   1.00
O181   O     0.47133   0.06903   0.23607   0.00000  Uiso   1.00
O182   O     0.53771   0.25527   0.21806   0.00000  Uiso   1.00
Zn183  Zn    0.52577   0.14090   0.28278   0.00000  Uiso   1.00
Zn184  Zn    0.46792   0.12378   0.22258   0.00000  Uiso   1.00
Zn185  Zn    0.54500   0.19664   0.21188   0.00000  Uiso   1.00
Zn186  Zn    0.46131   0.20535   0.28277   0.00000  Uiso   1.00
C187   C     0.71935   0.16001   0.25923   0.00000  Uiso   1.00
C188   C     0.86656   0.12084   0.45560   0.00000  Uiso   1.00
C189   C     0.89316   0.10987   0.47632   0.00000  Uiso   1.00
C190   C     0.94808   0.17244   0.24015   0.00000  Uiso   1.00
C191   C     0.88307   0.11754   0.01773   0.00000  Uiso   1.00
C192   C     0.84267   0.13105   0.03955   0.00000  Uiso   1.00
C193   C     0.91298   0.11207   0.03757   0.00000  Uiso   1.00
C194   C     0.90394   0.12172   0.07877   0.00000  Uiso   1.00
C195   C     0.83501   0.14233   0.08086   0.00000  Uiso   1.00
C196   C     0.99454   0.17080   0.23342   0.00000  Uiso   1.00
C197   C     0.67415   0.15962   0.26346   0.00000  Uiso   1.00
C198   C     0.75911   0.20574   0.42446   0.00000  Uiso   1.00
C199   C     0.84501   0.32176   0.23438   0.00000  Uiso   1.00
C200   C     0.81971   0.01290   0.26345   0.00000  Uiso   1.00
C201   C     0.82247   0.05648   0.25950   0.00000  Uiso   1.00
C202   C     0.84315   0.27769   0.24042   0.00000  Uiso   1.00
C203   C     0.85479   0.14586   0.14371   0.00000  Uiso   1.00
C204   C     0.81170   0.18731   0.35666   0.00000  Uiso   1.00
C205   C     0.79785   0.19026   0.40109   0.00000  Uiso   1.00
C206   C     0.86494   0.13682   0.10042   0.00000  Uiso   1.00
C207   C     0.74570   0.20283   0.46643   0.00000  Uiso   1.00
C208   C     0.69496   0.18031   0.19359   0.00000  Uiso   1.00
C209   C     0.82272   0.17353   0.41993   0.00000  Uiso   1.00
C210   C     0.67860   0.18968   0.15961   0.00000  Uiso   1.00
C211   C     0.87418   0.00747   0.19629   0.00000  Uiso   1.00
C212   C     0.90035   0.31195   0.16304   0.00000  Uiso   1.00
C213   C     0.71427   0.23177   0.49410   0.00000  Uiso   1.00
C214   C     0.73019   0.27771   0.48900   0.00000  Uiso   1.00
C215   C     0.74401   0.10741   0.06826   0.00000  Uiso   1.00
C216   C     0.73517   0.06424   0.04774   0.00000  Uiso   1.00
C217   C     0.80576   0.16221   0.45922   0.00000  Uiso   1.00
C218   C     0.76537   0.17538   0.48229   0.00000  Uiso   1.00
C219   C     0.82883   0.14018   0.47701   0.00000  Uiso   1.00
C220   C     0.81313   0.13695   0.01876   0.00000  Uiso   1.00
C221   C     0.76819   0.13770   0.03721   0.00000  Uiso   1.00
C222   C     0.74447   0.15797   0.01896   0.00000  Uiso   1.00
H223   H     0.94361   0.10097   0.02111   0.00000  Uiso   1.00
H224   H     0.70615   0.19238   0.13214   0.00000  Uiso   1.00
H225   H     0.71814   0.20710   0.19935   0.00000  Uiso   1.00
H226   H     0.71322   0.15298   0.18193   0.00000  Uiso   1.00
H227   H     0.98162   0.12404   0.30960   0.00000  Uiso   1.00
H228   H     0.98718   0.17562   0.32327   0.00000  Uiso   1.00
H229   H     0.92554   0.30043   0.17283   0.00000  Uiso   1.00
H230   H     0.87892   0.28572   0.15340   0.00000  Uiso   1.00
H231   H     0.91706   0.32960   0.13676   0.00000  Uiso   1.00
H232   H     0.85364   0.02157   0.18266   0.00000  Uiso   1.00
H233   H     0.89721   0.03283   0.20491   0.00000  Uiso   1.00
H234   H     0.80673   0.15723   0.09786   0.00000  Uiso   1.00
H235   H     0.76195   0.00463   0.30508   0.00000  Uiso   1.00
H236   H     0.80460   0.01544   0.32387   0.00000  Uiso   1.00
H237   H     0.76461   0.28429   0.48859   0.00000  Uiso   1.00
H238   H     0.72619   0.28704   0.46136   0.00000  Uiso   1.00
H239   H     0.71096   0.29720   0.01445   0.00000  Uiso   1.00
H240   H     0.68170   0.22409   0.48973   0.00000  Uiso   1.00
H241   H     0.71089   0.22898   0.02588   0.00000  Uiso   1.00
H242   H     0.74687   0.25345   0.39955   0.00000  Uiso   1.00
H243   H     0.70153   0.22330   0.42266   0.00000  Uiso   1.00
H244   H     0.71652   0.06527   0.02631   0.00000  Uiso   1.00
H245   H     0.92728   0.11738   0.09376   0.00000  Uiso   1.00
H246   H     0.76604   0.05156   0.03137   0.00000  Uiso   1.00
H247   H     0.71634   0.04296   0.07053   0.00000  Uiso   1.00
H248   H     0.76171   0.10353   0.08947   0.00000  Uiso   1.00
H249   H     0.71313   0.11816   0.08727   0.00000  Uiso   1.00
H250   H     0.87505   0.07563   0.40981   0.00000  Uiso   1.00
H251   H     0.90717   0.12055   0.39958   0.00000  Uiso   1.00
H252   H     0.92249   0.09638   0.45969   0.00000  Uiso   1.00
H253   H     0.85521   0.16899   0.40273   0.00000  Uiso   1.00
H254   H     0.69092   0.17026   0.06436   0.00000  Uiso   1.00
H255   H     0.68423   0.12618   0.03413   0.00000  Uiso   1.00
H256   H     0.98792   0.16411   0.15314   0.00000  Uiso   1.00
H257   H     0.99811   0.21979   0.16682   0.00000  Uiso   1.00
N258   N     0.69842   0.15690   0.03482   0.00000  Uiso   1.00
N259   N     0.97820   0.15314   0.30236   0.00000  Uiso   1.00
N260   N     0.79354   0.33173   0.30091   0.00000  Uiso   1.00
N261   N     0.73346   0.22305   0.40510   0.00000  Uiso   1.00
N262   N     0.87581   0.10798   0.41368   0.00000  Uiso   1.00
O263   O     0.83333   0.16667   0.25000   0.00000  Uiso   1.00
O264   O     0.82360   0.12393   0.16625   0.00000  Uiso   1.00
O265   O     0.79354   0.20646   0.33749   0.00000  Uiso   1.00
O266   O     0.87755   0.17493   0.15877   0.00000  Uiso   1.00
O267   O     0.83865   0.16135   0.33749   0.00000  Uiso   1.00
O268   O     0.84515   0.08101   0.27821   0.00000  Uiso   1.00
O269   O     0.81247   0.26136   0.26767   0.00000  Uiso   1.00
O270   O     0.74119   0.13251   0.23607   0.00000  Uiso   1.00
O271   O     0.93452   0.19179   0.21806   0.00000  Uiso   1.00
O272   O     0.73656   0.18960   0.27820   0.00000  Uiso   1.00
O273   O     0.92106   0.15277   0.26768   0.00000  Uiso   1.00
O274   O     0.80467   0.06903   0.23607   0.00000  Uiso   1.00
O275   O     0.87104   0.25527   0.21806   0.00000  Uiso   1.00
Zn276  Zn    0.85910   0.14090   0.28278   0.00000  Uiso   1.00
Zn277  Zn    0.80125   0.12378   0.22258   0.00000  Uiso   1.00
Zn278  Zn    0.87833   0.19664   0.21188   0.00000  Uiso   1.00
Zn279  Zn    0.79465   0.20535   0.28277   0.00000  Uiso   1.00
C280   C     0.05269   0.49334   0.25923   0.00000  Uiso   1.00
C281   C     0.19989   0.45417   0.45560   0.00000  Uiso   1.00
C282   C     0.22649   0.44320   0.47632   0.00000  Uiso   1.00
C283   C     0.28142   0.50577   0.24015   0.00000  Uiso   1.00
C284   C     0.21640   0.45087   0.01773   0.00000  Uiso   1.00
C285   C     0.17601   0.46438   0.03955   0.00000  Uiso   1.00
C286   C     0.24631   0.44540   0.03757   0.00000  Uiso   1.00
C287   C     0.23727   0.45505   0.07877   0.00000  Uiso   1.00
C288   C     0.16835   0.47567   0.08086   0.00000  Uiso   1.00
C289   C     0.32787   0.50414   0.23342   0.00000  Uiso   1.00
C290   C     0.00748   0.49295   0.26346   0.00000  Uiso   1.00
C291   C     0.09245   0.53907   0.42446   0.00000  Uiso   1.00
C292   C     0.17835   0.65510   0.23438   0.00000  Uiso   1.00
C293   C     0.15304   0.34623   0.26345   0.00000  Uiso   1.00
C294   C     0.15580   0.38981   0.25950   0.00000  Uiso   1.00
C295   C     0.17648   0.61102   0.24042   0.00000  Uiso   1.00
C296   C     0.18812   0.47919   0.14371   0.00000  Uiso   1.00
C297   C     0.14503   0.52064   0.35666   0.00000  Uiso   1.00
C298   C     0.13118   0.52359   0.40109   0.00000  Uiso   1.00
C299   C     0.19828   0.47015   0.10042   0.00000  Uiso   1.00
C300   C     0.07903   0.53616   0.46643   0.00000  Uiso   1.00
C301   C     0.02829   0.51364   0.19359   0.00000  Uiso   1.00
C302   C     0.15605   0.50686   0.41993   0.00000  Uiso   1.00
C303   C     0.01193   0.52301   0.15961   0.00000  Uiso   1.00
C304   C     0.20751   0.34080   0.19629   0.00000  Uiso   1.00
C305   C     0.23369   0.64529   0.16304   0.00000  Uiso   1.00
C306   C     0.04761   0.56510   0.49410   0.00000  Uiso   1.00
C307   C     0.06352   0.61104   0.48900   0.00000  Uiso   1.00
C308   C     0.07735   0.44075   0.06826   0.00000  Uiso   1.00
C309   C     0.06850   0.39757   0.04774   0.00000  Uiso   1.00
C310   C     0.13909   0.49554   0.45922   0.00000  Uiso   1.00
C311   C     0.09870   0.50872   0.48229   0.00000  Uiso   1.00
C312   C     0.16216   0.47351   0.47701   0.00000  Uiso   1.00
C313   C     0.14646   0.47029   0.01876   0.00000  Uiso   1.00
C314   C     0.10152   0.47103   0.03721   0.00000  Uiso   1.00
C315   C     0.07780   0.49130   0.01896   0.00000  Uiso   1.00
H316   H     0.27694   0.43431   0.02111   0.00000  Uiso   1.00
H317   H     0.03949   0.52571   0.13214   0.00000  Uiso   1.00
H318   H     0.05148   0.54044   0.19935   0.00000  Uiso   1.00
H319   H     0.04655   0.48631   0.18193   0.00000  Uiso   1.00
H320   H     0.31495   0.45738   0.30960   0.00000  Uiso   1.00
H321   H     0.32051   0.50895   0.32327   0.00000  Uiso   1.00
H322   H     0.25887   0.63376   0.17283   0.00000  Uiso   1.00
H323   H     0.21225   0.61905   0.15340   0.00000  Uiso   1.00
H324   H     0.25039   0.66293   0.13676   0.00000  Uiso   1.00
H325   H     0.18697   0.35491   0.18266   0.00000  Uiso   1.00
H326   H     0.23054   0.36616   0.20491   0.00000  Uiso   1.00
H327   H     0.14006   0.49056   0.09786   0.00000  Uiso   1.00
H328   H     0.09528   0.33796   0.30508   0.00000  Uiso   1.00
H329   H     0.13793   0.34878   0.32387   0.00000  Uiso   1.00
H330   H     0.09794   0.61763   0.48859   0.00000  Uiso   1.00
H331   H     0.05953   0.62038   0.46136   0.00000  Uiso   1.00
H332   H     0.04429   0.63054   0.01445   0.00000  Uiso   1.00
H333   H     0.01504   0.55742   0.48973   0.00000  Uiso   1.00
H334   H     0.04422   0.56231   0.02588   0.00000  Uiso   1.00
H335   H     0.08020   0.58678   0.39955   0.00000  Uiso   1.00
H336   H     0.03486   0.55664   0.42266   0.00000  Uiso   1.00
H337   H     0.04985   0.39860   0.02631   0.00000  Uiso   1.00
H338   H     0.26062   0.45072   0.09376   0.00000  Uiso   1.00
H339   H     0.09938   0.38489   0.03137   0.00000  Uiso   1.00
H340   H     0.04968   0.37629   0.07053   0.00000  Uiso   1.00
H341   H     0.09504   0.43687   0.08947   0.00000  Uiso   1.00
H342   H     0.04647   0.45149   0.08727   0.00000  Uiso   1.00
H343   H     0.20838   0.40897   0.40981   0.00000  Uiso   1.00
H344   H     0.24050   0.45389   0.39958   0.00000  Uiso   1.00
H345   H     0.25582   0.42972   0.45969   0.00000  Uiso   1.00
H346   H     0.18854   0.50232   0.40273   0.00000  Uiso   1.00
H347   H     0.02426   0.50359   0.06436   0.00000  Uiso   1.00
H348   H     0.01756   0.45951   0.03413   0.00000  Uiso   1.00
H349   H     0.32125   0.49744   0.15314   0.00000  Uiso   1.00
H350   H     0.33144   0.55312   0.16682   0.00000  Uiso   1.00
N351   N     0.03175   0.49023   0.03482   0.00000  Uiso   1.00
N352   N     0.31154   0.48647   0.30236   0.00000  Uiso   1.00
N353   N     0.12687   0.66506   0.30091   0.00000  Uiso   1.00
N354   N     0.06679   0.55638   0.40510   0.00000  Uiso   1.00
N355   N     0.20915   0.44131   0.41368   0.00000  Uiso   1.00
O356   O     0.16667   0.50000   0.25000   0.00000  Uiso   1.00
O357   O     0.15693   0.45726   0.16625   0.00000  Uiso   1.00
O358   O     0.12687   0.53979   0.33749   0.00000  Uiso   1.00
O359   O     0.21088   0.50826   0.15877   0.00000  Uiso   1.00
O360   O     0.17198   0.49468   0.33749   0.00000  Uiso   1.00
O361   O     0.17849   0.41434   0.27821   0.00000  Uiso   1.00
O362   O     0.14581   0.59469   0.26767   0.00000  Uiso   1.00
O363   O     0.07452   0.46584   0.23607   0.00000  Uiso   1.00
O364   O     0.26785   0.52512   0.21806   0.00000  Uiso   1.00
O365   O     0.06990   0.52293   0.27820   0.00000  Uiso   1.00
O366   O     0.25440   0.48610   0.26768   0.00000  Uiso   1.00
O367   O     0.13800   0.40236   0.23607   0.00000  Uiso   1.00
O368   O     0.20437   0.58860   0.21806   0.00000  Uiso   1.00
Zn369  Zn    0.19244   0.47423   0.28278   0.00000  Uiso   1.00
Zn370  Zn    0.13459   0.45711   0.22258   0.00000  Uiso   1.00
Zn371  Zn    0.21166   0.52997   0.21188   0.00000  Uiso   1.00
Zn372  Zn    0.12798   0.53868   0.28277   0.00000  Uiso   1.00
C373   C     0.38602   0.49334   0.25923   0.00000  Uiso   1.00
C374   C     0.53322   0.45417   0.45560   0.00000  Uiso   1.00
C375   C     0.55983   0.44320   0.47632   0.00000  Uiso   1.00
C376   C     0.61475   0.50577   0.24015   0.00000  Uiso   1.00
C377   C     0.54973   0.45087   0.01773   0.00000  Uiso   1.00
C378   C     0.50934   0.46438   0.03955   0.00000  Uiso   1.00
C379   C     0.57964   0.44540   0.03757   0.00000  Uiso   1.00
C380   C     0.57060   0.45505   0.07877   0.00000  Uiso   1.00
C381   C     0.50168   0.47567   0.08086   0.00000  Uiso   1.00
C382   C     0.66120   0.50414   0.23342   0.00000  Uiso   1.00
C383   C     0.34082   0.49295   0.26346   0.00000  Uiso   1.00
C384   C     0.42578   0.53907   0.42446   0.00000  Uiso   1.00
C385   C     0.51168   0.65510   0.23438   0.00000  Uiso   1.00
C386   C     0.48637   0.34623   0.26345   0.00000  Uiso   1.00
C387   C     0.48913   0.38981   0.25950   0.00000  Uiso   1.00
C388   C     0.50981   0.61102   0.24042   0.00000  Uiso   1.00
C389   C     0.52145   0.47919   0.14371   0.00000  Uiso   1.00
C390   C     0.47836   0.52064   0.35666   0.00000  Uiso   1.00
C391   C     0.46451   0.52359   0.40109   0.00000  Uiso   1.00
C392   C     0.53161   0.47015   0.10042   0.00000  Uiso   1.00
C393   C     0.41236   0.53616   0.46643   0.00000  Uiso   1.00
C394   C     0.36163   0.51364   0.19359   0.00000  Uiso   1.00
C395   C     0.48938   0.50686   0.41993   0.00000  Uiso   1.00
C396   C     0.34527   0.52301   0.15961   0.00000  Uiso   1.00
C397   C     0.54084   0.34080   0.19629   0.00000  Uiso   1.00
C398   C     0.56702   0.64529   0.16304   0.00000  Uiso   1.00
C399   C     0.38094   0.56510   0.49410   0.00000  Uiso   1.00
C400   C     0.39686   0.61104   0.48900   0.00000  Uiso   1.00
C401   C     0.41068   0.44075   0.06826   0.00000  Uiso   1.00
C402   C     0.40183   0.39757   0.04774   0.00000  Uiso   1.00
C403   C     0.47243   0.49554   0.45922   0.00000  Uiso   1.00
C404   C     0.43203   0.50872   0.48229   0.00000  Uiso   1.00
C405   C     0.49549   0.47351   0.47701   0.00000  Uiso   1.00
C406   C     0.47980   0.47029   0.01876   0.00000  Uiso   1.00
C407   C     0.43485   0.47103   0.03721   0.00000  Uiso   1.00
C408   C     0.41113   0.49130   0.01896   0.00000  Uiso   1.00
H409   H     0.61027   0.43431   0.02111   0.00000  Uiso   1.00
H410   H     0.37282   0.52571   0.13214   0.00000  Uiso   1.00
H411   H     0.38481   0.54044   0.19935   0.00000  Uiso   1.00
H412   H     0.37988   0.48631   0.18193   0.00000  Uiso   1.00
H413   H     0.64829   0.45738   0.30960   0.00000  Uiso   1.00
H414   H     0.65385   0.50895   0.32327   0.00000  Uiso   1.00
H415   H     0.59221   0.63376   0.17283   0.00000  Uiso   1.00
H416   H     0.54558   0.61905   0.15340   0.00000  Uiso   1.00
H417   H     0.58372   0.66293   0.13676   0.00000  Uiso   1.00
H418   H     0.52030   0.35491   0.18266   0.00000  Uiso   1.00
H419   H     0.56388   0.36616   0.20491   0.00000  Uiso   1.00
H420   H     0.47340   0.49056   0.09786   0.00000  Uiso   1.00
H421   H     0.42861   0.33796   0.30508   0.00000  Uiso   1.00
H422   H     0.47127   0.34878   0.32387   0.00000  Uiso   1.00
H423   H     0.43127   0.61763   0.48859   0.00000  Uiso   1.00
H424   H     0.39286   0.62038   0.46136   0.00000  Uiso   1.00
H425   H     0.37762   0.63054   0.01445   0.00000  Uiso   1.00
H426   H     0.34837   0.55742   0.48973   0.00000  Uiso   1.00
H427   H     0.37756   0.56231   0.02588   0.00000  Uiso   1.00
H428   H     0.41354   0.58678   0.39955   0.00000  Uiso   1.00
H429   H     0.36819   0.55664   0.42266   0.00000  Uiso   1.00
H430   H     0.38318   0.39860   0.02631   0.00000  Uiso   1.00
H431   H     0.59395   0.45072   0.09376   0.00000  Uiso   1.00
H432   H     0.43271   0.38489   0.03137   0.00000  Uiso   1.00
H433   H     0.38301   0.37629   0.07053   0.00000  Uiso   1.00
H434   H     0.42838   0.43687   0.08947   0.00000  Uiso   1.00
H435   H     0.37980   0.45149   0.08727   0.00000  Uiso   1.00
H436   H     0.54172   0.40897   0.40981   0.00000  Uiso   1.00
H437   H     0.57384   0.45389   0.39958   0.00000  Uiso   1.00
H438   H     0.58915   0.42972   0.45969   0.00000  Uiso   1.00
H439   H     0.52187   0.50232   0.40273   0.00000  Uiso   1.00
H440   H     0.35759   0.50359   0.06436   0.00000  Uiso   1.00
H441   H     0.35090   0.45951   0.03413   0.00000  Uiso   1.00
H442   H     0.65459   0.49744   0.15314   0.00000  Uiso   1.00
H443   H     0.66477   0.55312   0.16682   0.00000  Uiso   1.00
N444   N     0.36508   0.49023   0.03482   0.00000  Uiso   1.00
N445   N     0.64487   0.48647   0.30236   0.00000  Uiso   1.00
N446   N     0.46021   0.66506   0.30091   0.00000  Uiso   1.00
N447   N     0.40013   0.55638   0.40510   0.00000  Uiso   1.00
N448   N     0.54248   0.44131   0.41368   0.00000  Uiso   1.00
O449   O     0.50000   0.50000   0.25000   0.00000  Uiso   1.00
O450   O     0.49027   0.45726   0.16625   0.00000  Uiso   1.00
O451   O     0.46020   0.53979   0.33749   0.00000  Uiso   1.00
O452   O     0.54421   0.50826   0.15877   0.00000  Uiso   1.00
O453   O     0.50532   0.49468   0.33749   0.00000  Uiso   1.00
O454   O     0.51182   0.41434   0.27821   0.00000  Uiso   1.00
O455   O     0.47914   0.59469   0.26767   0.00000  Uiso   1.00
O456   O     0.40785   0.46584   0.23607   0.00000  Uiso   1.00
O457   O     0.60119   0.52512   0.21806   0.00000  Uiso   1.00
O458   O     0.40323   0.52293   0.27820   0.00000  Uiso   1.00
O459   O     0.58773   0.48610   0.26768   0.00000  Uiso   1.00
O460   O     0.47133   0.40236   0.23607   0.00000  Uiso   1.00
O461   O     0.53771   0.58860   0.21806   0.00000  Uiso   1.00
Zn462  Zn    0.52577   0.47423   0.28278   0.00000  Uiso   1.00
Zn463  Zn    0.46792   0.45711   0.22258   0.00000  Uiso   1.00
Zn464  Zn    0.54500   0.52997   0.21188   0.00000  Uiso   1.00
Zn465  Zn    0.46131   0.53868   0.28277   0.00000  Uiso   1.00
C466   C     0.71935   0.49334   0.25923   0.00000  Uiso   1.00
C467   C     0.86656   0.45417   0.45560   0.00000  Uiso   1.00
C468   C     0.89316   0.44320   0.47632   0.00000  Uiso   1.00
C469   C     0.94808   0.50577   0.24015   0.00000  Uiso   1.00
C470   C     0.88307   0.45087   0.01773   0.00000  Uiso   1.00
C471   C     0.84267   0.46438   0.03955   0.00000  Uiso   1.00
C472   C     0.91298   0.44540   0.03757   0.00000  Uiso   1.00
C473   C     0.90394   0.45505   0.07877   0.00000  Uiso   1.00
C474   C     0.83501   0.47567   0.08086   0.00000  Uiso   1.00
C475   C     0.99454   0.50414   0.23342   0.00000  Uiso   1.00
C476   C     0.67415   0.49295   0.26346   0.00000  Uiso   1.00
C477   C     0.75911   0.53907   0.42446   0.00000  Uiso   1.00
C478   C     0.84501   0.65510   0.23438   0.00000  Uiso   1.00
C479   C     0.81971   0.34623   0.26345   0.00000  Uiso   1.00
C480   C     0.82247   0.38981   0.25950   0.00000  Uiso   1.00
C481   C     0.84315   0.61102   0.24042   0.00000  Uiso   1.00
C482   C     0.85479   0.47919   0.14371   0.00000  Uiso   1.00
C483   C     0.81170   0.52064   0.35666   0.00000  Uiso   1.00
C484   C     0.79785   0.52359   0.40109   0.00000  Uiso   1.00
C485   C     0.86494   0.47015   0.10042   0.00000  Uiso   1.00
C486   C     0.74570   0.53616   0.46643   0.00000  Uiso   1.00
C487   C     0.69496   0.51364   0.19359   0.00000  Uiso   1.00
C488   C     0.82272   0.50686   0.41993   0.00000  Uiso   1.00
C489   C     0.67860   0.52301   0.15961   0.00000  Uiso   1.00
C490   C     0.87418   0.34080   0.19629   0.00000  Uiso   1.00
C491   C     0.90035   0.64529   0.16304   0.00000  Uiso   1.00
C492   C     0.71427   0.56510   0.49410   0.00000  Uiso   1.00
C493   C     0.73019   0.61104   0.48900   0.00000  Uiso   1.00
C494   C     0.74401   0.44075   0.06826   0.00000  Uiso   1.00
C495   C     0.73517   0.39757   0.04774   0.00000  Uiso   1.00
C496   C     0.80576   0.49554   0.45922   0.00000  Uiso   1.00
C497   C     0.76537   0.50872   0.48229   0.00000  Uiso   1.00
C498   C     0.82883   0.47351   0.47701   0.00000  Uiso   1.00
C499   C     0.81313   0.47029   0.01876   0.00000  Uiso   1.00
C500   C     0.76819   0.47103   0.03721   0.00000  Uiso   1.00
C501   C     0.74447   0.49130   0.01896   0.00000  Uiso   1.00
H502   H     0.94361   0.43431   0.02111   0.00000  Uiso   1.00
H503   H     0.70615   0.52571   0.13214   0.00000  Uiso   1.00
H504   H     0.71814   0.54044   0.19935   0.00000  Uiso   1.00
H505   H     0.71322   0.48631   0.18193   0.00000  Uiso   1.00
H506   H     0.98162   0.45738   0.30960   0.00000  Uiso   1.00
H507   H     0.98718   0.50895   0.32327   0.00000  Uiso   1.00
H508   H     0.92554   0.63376   0.17283   0.00000  Uiso   1.00
H509   H     0.87892   0.61905   0.15340   0.00000  Uiso   1.00
H510   H     0.91706   0.66293   0.13676   0.00000  Uiso   1.00
H511   H     0.85364   0.35491   0.18266   0.00000  Uiso   1.00
H512   H     0.89721   0.36616   0.20491   0.00000  Uiso   1.00
H513   H     0.80673   0.49056   0.09786   0.00000  Uiso   1.00
H514   H     0.76195   0.33796   0.30508   0.00000  Uiso   1.00
H515   H     0.80460   0.34878   0.32387   0.00000  Uiso   1.00
H516   H     0.76461   0.61763   0.48859   0.00000  Uiso   1.00
H517   H     0.72619   0.62038   0.46136   0.00000  Uiso   1.00
H518   H     0.71096   0.63054   0.01445   0.00000  Uiso   1.00
H519   H     0.68170   0.55742   0.48973   0.00000  Uiso   1.00
H520   H     0.71089   0.56231   0.02588   0.00000  Uiso   1.00
H521   H     0.74687   0.58678   0.39955   0.00000  Uiso   1.00
H522   H     0.70153   0.55664   0.42266   0.00000  Uiso   1.00
H523   H     0.71652   0.39860   0.02631   0.00000  Uiso   1.00
H524   H     0.92728   0.45072   0.09376   0.00000  Uiso   1.00
H525   H     0.76604   0.38489   0.03137   0.00000  Uiso   1.00
H526   H     0.71634   0.37629   0.07053   0.00000  Uiso   1.00
H527   H     0.76171   0.43687   0.08947   0.00000  Uiso   1.00
H528   H     0.71313   0.45149   0.08727   0.00000  Uiso   1.00
H529   H     0.87505   0.40897   0.40981   0.00000  Uiso   1.00
H530   H     0.90717   0.45389   0.39958   0.00000  Uiso   1.00
H531   H     0.92249   0.42972   0.45969   0.00000  Uiso   1.00
H532   H     0.85521   0.50232   0.40273   0.00000  Uiso   1.00
H533   H     0.69092   0.50359   0.06436   0.00000  Uiso   1.00
H534   H     0.68423   0.45951   0.03413   0.00000  Uiso   1.00
H535   H     0.98792   0.49744   0.15314   0.00000  Uiso   1.00
H536   H     0.99811   0.55312   0.16682   0.00000  Uiso   1.00
N537   N     0.69842   0.49023   0.03482   0.00000  Uiso   1.00
N538   N     0.97820   0.48647   0.30236   0.00000  Uiso   1.00
N539   N     0.79354   0.66506   0.30091   0.00000  Uiso   1.00
N540   N     0.73346   0.55638   0.40510   0.00000  Uiso   1.00
N541   N     0.87581   0.44131   0.41368   0.00000  Uiso   1.00
O542   O     0.83333   0.50000   0.25000   0.00000  Uiso   1.00
O543   O     0.82360   0.45726   0.16625   0.00000  Uiso   1.00
O544   O     0.79354   0.53979   0.33749   0.00000  Uiso   1.00
O545   O     0.87755   0.50826   0.15877   0.00000  Uiso   1.00
O546   O     0.83865   0.49468   0.33749   0.00000  Uiso   1.00
O547   O     0.84515   0.41434   0.27821   0.00000  Uiso   1.00
O548   O     0.81247   0.59469   0.26767   0.00000  Uiso   1.00
O549   O     0.74119   0.46584   0.23607   0.00000  Uiso   1.00
O550   O     0.93452   0.52512   0.21806   0.00000  Uiso   1.00
O551   O     0.73656   0.52293   0.27820   0.00000  Uiso   1.00
O552   O     0.92106   0.48610   0.26768   0.00000  Uiso   1.00
O553   O     0.80467   0.40236   0.23607   0.00000  Uiso   1.00
O554   O     0.87104   0.58860   0.21806   0.00000  Uiso   1.00
Zn555  Zn    0.85910   0.47423   0.28278   0.00000  Uiso   1.00
Zn556  Zn    0.80125   0.45711   0.22258   0.00000  Uiso   1.00
Zn557  Zn    0.87833   0.52997   0.21188   0.00000  Uiso   1.00
Zn558  Zn    0.79465   0.53868   0.28277   0.00000  Uiso   1.00
C559   C     0.05269   0.82667   0.25923   0.00000  Uiso   1.00
C560   C     0.19989   0.78751   0.45560   0.00000  Uiso   1.00
C561   C     0.22649   0.77654   0.47632   0.00000  Uiso   1.00
C562   C     0.28142   0.83910   0.24015   0.00000  Uiso   1.00
C563   C     0.21640   0.78421   0.01773   0.00000  Uiso   1.00
C564   C     0.17601   0.79771   0.03955   0.00000  Uiso   1.00
C565   C     0.24631   0.77873   0.03757   0.00000  Uiso   1.00
C566   C     0.23727   0.78838   0.07877   0.00000  Uiso   1.00
C567   C     0.16835   0.80900   0.08086   0.00000  Uiso   1.00
C568   C     0.32787   0.83747   0.23342   0.00000  Uiso   1.00
C569   C     0.00748   0.82629   0.26346   0.00000  Uiso   1.00
C570   C     0.09245   0.87240   0.42446   0.00000  Uiso   1.00
C571   C     0.17835   0.98843   0.23438   0.00000  Uiso   1.00
C572   C     0.15304   0.67956   0.26345   0.00000  Uiso   1.00
C573   C     0.15580   0.72314   0.25950   0.00000  Uiso   1.00
C574   C     0.17648   0.94436   0.24042   0.00000  Uiso   1.00
C575   C     0.18812   0.81252   0.14371   0.00000  Uiso   1.00
C576   C     0.14503   0.85398   0.35666   0.00000  Uiso   1.00
C577   C     0.13118   0.85692   0.40109   0.00000  Uiso   1.00
C578   C     0.19828   0.80349   0.10042   0.00000  Uiso   1.00
C579   C     0.07903   0.86950   0.46643   0.00000  Uiso   1.00
C580   C     0.02829   0.84698   0.19359   0.00000  Uiso   1.00
C581   C     0.15605   0.84019   0.41993   0.00000  Uiso   1.00
C582   C     0.01193   0.85634   0.15961   0.00000  Uiso   1.00
C583   C     0.20751   0.67414   0.19629   0.00000  Uiso   1.00
C584   C     0.23369   0.97862   0.16304   0.00000  Uiso   1.00
C585   C     0.04761   0.89843   0.49410   0.00000  Uiso   1.00
C586   C     0.06352   0.94437   0.48900   0.00000  Uiso   1.00
C587   C     0.07735   0.77408   0.06826   0.00000  Uiso   1.00
C588   C     0.06850   0.73090   0.04774   0.00000  Uiso   1.00
C589   C     0.13909   0.82888   0.45922   0.00000  Uiso   1.00
C590   C     0.09870   0.84205   0.48229   0.00000  Uiso   1.00
C591   C     0.16216   0.80685   0.47701   0.00000  Uiso   1.00
C592   C     0.14646   0.80362   0.01876   0.00000  Uiso   1.00
C593   C     0.10152   0.80437   0.03721   0.00000  Uiso   1.00
C594   C     0.07780   0.82463   0.01896   0.00000  Uiso   1.00
H595   H     0.27694   0.76764   0.02111   0.00000  Uiso   1.00
H596   H     0.03949   0.85904   0.13214   0.00000  Uiso   1.00
H597   H     0.05148   0.87377   0.19935   0.00000  Uiso   1.00
H598   H     0.04655   0.81965   0.18193   0.00000  Uiso   1.00
H599   H     0.31495   0.79071   0.30960   0.00000  Uiso   1.00
H600   H     0.32051   0.84228   0.32327   0.00000  Uiso   1.00
H601   H     0.25887   0.96710   0.17283   0.00000  Uiso   1.00
H602   H     0.21225   0.95239   0.15340   0.00000  Uiso   1.00
H603   H     0.25039   0.99627   0.13676   0.00000  Uiso   1.00
H604   H     0.18697   0.68824   0.18266   0.00000  Uiso   1.00
H605   H     0.23054   0.69949   0.20491   0.00000  Uiso   1.00
H606   H     0.14006   0.82389   0.09786   0.00000  Uiso   1.00
H607   H     0.09528   0.67130   0.30508   0.00000  Uiso   1.00
H608   H     0.13793   0.68211   0.32387   0.00000  Uiso   1.00
H609   H     0.09794   0.95096   0.48859   0.00000  Uiso   1.00
H610   H     0.05953   0.95371   0.46136   0.00000  Uiso   1.00
H611   H     0.04429   0.96387   0.01445   0.00000  Uiso   1.00
H612   H     0.01504   0.89075   0.48973   0.00000  Uiso   1.00
H613   H     0.04422   0.89564   0.02588   0.00000  Uiso   1.00
H614   H     0.08020   0.92012   0.39955   0.00000  Uiso   1.00
H615   H     0.03486   0.88997   0.42266   0.00000  Uiso   1.00
H616   H     0.04985   0.73194   0.02631   0.00000  Uiso   1.00
H617   H     0.26062   0.78405   0.09376   0.00000  Uiso   1.00
H618   H     0.09938   0.71822   0.03137   0.00000  Uiso   1.00
H619   H     0.04968   0.70962   0.07053   0.00000  Uiso   1.00
H620   H     0.09504   0.77020   0.08947   0.00000  Uiso   1.00
H621   H     0.04647   0.78483   0.08727   0.00000  Uiso   1.00
H622   H     0.20838   0.74230   0.40981   0.00000  Uiso   1.00
H623   H     0.24050   0.78722   0.39958   0.00000  Uiso   1.00
H624   H     0.25582   0.76305   0.45969   0.00000  Uiso   1.00
H625   H     0.18854   0.83565   0.40273   0.00000  Uiso   1.00
H626   H     0.02426   0.83692   0.06436   0.00000  Uiso   1.00
H627   H     0.01756   0.79284   0.03413   0.00000  Uiso   1.00
H628   H     0.32125   0.83077   0.15314   0.00000  Uiso   1.00
H629   H     0.33144   0.88645   0.16682   0.00000  Uiso   1.00
N630   N     0.03175   0.82356   0.03482   0.00000  Uiso   1.00
N631   N     0.31154   0.81981   0.30236   0.00000  Uiso   1.00
N632   N     0.12687   0.99839   0.30091   0.00000  Uiso   1.00
N633   N     0.06679   0.88971   0.40510   0.00000  Uiso   1.00
N634   N     0.20915   0.77465   0.41368   0.00000  Uiso   1.00
O635   O     0.16667   0.83333   0.25000   0.00000  Uiso   1.00
O636   O     0.15693   0.79060   0.16625   0.00000  Uiso   1.00
O637   O     0.12687   0.87313   0.33749   0.00000  Uiso   1.00
O638   O     0.21088   0.84159   0.15877   0.00000  Uiso   1.00
O639   O     0.17198   0.82802   0.33749   0.00000  Uiso   1.00
O640   O     0.17849   0.74768   0.27821   0.00000  Uiso   1.00
O641   O     0.14581   0.92803   0.26767   0.00000  Uiso   1.00
O642   O     0.07452   0.79917   0.23607   0.00000  Uiso   1.00
O643   O     0.26785   0.85845   0.21806   0.00000  Uiso   1.00
O644   O     0.06990   0.85627   0.27820   0.00000  Uiso   1.00
O645   O     0.25440   0.81944   0.26768   0.00000  Uiso   1.00
O646   O     0.13800   0.73570   0.23607   0.00000  Uiso   1.00
O647   O     0.20437   0.92193   0.21806   0.00000  Uiso   1.00
Zn648  Zn    0.19244   0.80756   0.28278   0.00000  Uiso   1.00
Zn649  Zn    0.13459   0.79044   0.22258   0.00000  Uiso   1.00
Zn650  Zn    0.21166   0.86331   0.21188   0.00000  Uiso   1.00
Zn651  Zn    0.12798   0.87202   0.28277   0.00000  Uiso   1.00
C652   C     0.38602   0.82667   0.25923   0.00000  Uiso   1.00
C653   C     0.53322   0.78751   0.45560   0.00000  Uiso   1.00
C654   C     0.55983   0.77654   0.47632   0.00000  Uiso   1.00
C655   C     0.61475   0.83910   0.24015   0.00000  Uiso   1.00
C656   C     0.54973   0.78421   0.01773   0.00000  Uiso   1.00
C657   C     0.50934   0.79771   0.03955   0.00000  Uiso   1.00
C658   C     0.57964   0.77873   0.03757   0.00000  Uiso   1.00
C659   C     0.57060   0.78838   0.07877   0.00000  Uiso   1.00
C660   C     0.50168   0.80900   0.08086   0.00000  Uiso   1.00
C661   C     0.66120   0.83747   0.23342   0.00000  Uiso   1.00
C662   C     0.34082   0.82629   0.26346   0.00000  Uiso   1.00
C663   C     0.42578   0.87240   0.42446   0.00000  Uiso   1.00
C664   C     0.51168   0.98843   0.23438   0.00000  Uiso   1.00
C665   C     0.48637   0.67956   0.26345   0.00000  Uiso   1.00
C666   C     0.48913   0.72314   0.25950   0.00000  Uiso   1.00
C667   C     0.50981   0.94436   0.24042   0.00000  Uiso   1.00
C668   C     0.52145   0.81252   0.14371   0.00000  Uiso   1.00
C669   C     0.47836   0.85398   0.35666   0.00000  Uiso   1.00
C670   C     0.46451   0.85692   0.40109   0.00000  Uiso   1.00
C671   C     0.53161   0.80349   0.10042   0.00000  Uiso   1.00
C672   C     0.41236   0.86950   0.46643   0.00000  Uiso   1.00
C673   C     0.36163   0.84698   0.19359   0.00000  Uiso   1.00
C674   C     0.48938   0.84019   0.41993   0.00000  Uiso   1.00
C675   C     0.34527   0.85634   0.15961   0.00000  Uiso   1.00
C676   C     0.54084   0.67414   0.19629   0.00000  Uiso   1.00
C677   C     0.56702   0.97862   0.16304   0.00000  Uiso   1.00
C678   C     0.38094   0.89843   0.49410   0.00000  Uiso   1.00
C679   C     0.39686   0.94437   0.48900   0.00000  Uiso   1.00
C680   C     0.41068   0.77408   0.06826   0.00000  Uiso   1.00
C681   C     0.40183   0.73090   0.04774   0.00000  Uiso   1.00
C682   C     0.47243   0.82888   0.45922   0.00000  Uiso   1.00
C683   C     0.43203   0.84205   0.48229   0.00000  Uiso   1.00
C684   C     0.49549   0.80685   0.47701   0.00000  Uiso   1.00
C685   C     0.47980   0.80362   0.01876   0.00000  Uiso   1.00
C686   C     0.43485   0.80437   0.03721   0.00000  Uiso   1.00
C687   C     0.41113   0.82463   0.01896   0.00000  Uiso   1.00
H688   H     0.61027   0.76764   0.02111   0.00000  Uiso   1.00
H689   H     0.37282   0.85904   0.13214   0.00000  Uiso   1.00
H690   H     0.38481   0.87377   0.19935   0.00000  Uiso   1.00
H691   H     0.37988   0.81965   0.18193   0.00000  Uiso   1.00
H692   H     0.64829   0.79071   0.30960   0.00000  Uiso   1.00
H693   H     0.65385   0.84228   0.32327   0.00000  Uiso   1.00
H694   H     0.59221   0.96710   0.17283   0.00000  Uiso   1.00
H695   H     0.54558   0.95239   0.15340   0.00000  Uiso   1.00
H696   H     0.58372   0.99627   0.13676   0.00000  Uiso   1.00
H697   H     0.52030   0.68824   0.18266   0.00000  Uiso   1.00
H698   H     0.56388   0.69949   0.20491   0.00000  Uiso   1.00
H699   H     0.47340   0.82389   0.09786   0.00000  Uiso   1.00
H700   H     0.42861   0.67130   0.30508   0.00000  Uiso   1.00
H701   H     0.47127   0.68211   0.32387   0.00000  Uiso   1.00
H702   H     0.43127   0.95096   0.48859   0.00000  Uiso   1.00
H703   H     0.39286   0.95371   0.46136   0.00000  Uiso   1.00
H704   H     0.37762   0.96387   0.01445   0.00000  Uiso   1.00
H705   H     0.34837   0.89075   0.48973   0.00000  Uiso   1.00
H706   H     0.37756   0.89564   0.02588   0.00000  Uiso   1.00
H707   H     0.41354   0.92012   0.39955   0.00000  Uiso   1.00
H708   H     0.36819   0.88997   0.42266   0.00000  Uiso   1.00
H709   H     0.38318   0.73194   0.02631   0.00000  Uiso   1.00
H710   H     0.59395   0.78405   0.09376   0.00000  Uiso   1.00
H711   H     0.43271   0.71822   0.03137   0.00000  Uiso   1.00
H712   H     0.38301   0.70962   0.07053   0.00000  Uiso   1.00
H713   H     0.42838   0.77020   0.08947   0.00000  Uiso   1.00
H714   H     0.37980   0.78483   0.08727   0.00000  Uiso   1.00
H715   H     0.54172   0.74230   0.40981   0.00000  Uiso   1.00
H716   H     0.57384   0.78722   0.39958   0.00000  Uiso   1.00
H717   H     0.58915   0.76305   0.45969   0.00000  Uiso   1.00
H718   H     0.52187   0.83565   0.40273   0.00000  Uiso   1.00
H719   H     0.35759   0.83692   0.06436   0.00000  Uiso   1.00
H720   H     0.35090   0.79284   0.03413   0.00000  Uiso   1.00
H721   H     0.65459   0.83077   0.15314   0.00000  Uiso   1.00
H722   H     0.66477   0.88645   0.16682   0.00000  Uiso   1.00
N723   N     0.36508   0.82356   0.03482   0.00000  Uiso   1.00
N724   N     0.64487   0.81981   0.30236   0.00000  Uiso   1.00
N725   N     0.46021   0.99839   0.30091   0.00000  Uiso   1.00
N726   N     0.40013   0.88971   0.40510   0.00000  Uiso   1.00
N727   N     0.54248   0.77465   0.41368   0.00000  Uiso   1.00
O728   O     0.50000   0.83333   0.25000   0.00000  Uiso   1.00
O729   O     0.49027   0.79060   0.16625   0.00000  Uiso   1.00
O730   O     0.46020   0.87313   0.33749   0.00000  Uiso   1.00
O731   O     0.54421   0.84159   0.15877   0.00000  Uiso   1.00
O732   O     0.50532   0.82802   0.33749   0.00000  Uiso   1.00
O733   O     0.51182   0.74768   0.27821   0.00000  Uiso   1.00
O734   O     0.47914   0.92803   0.26767   0.00000  Uiso   1.00
O735   O     0.40785   0.79917   0.23607   0.00000  Uiso   1.00
O736   O     0.60119   0.85845   0.21806   0.00000  Uiso   1.00
O737   O     0.40323   0.85627   0.27820   0.00000  Uiso   1.00
O738   O     0.58773   0.81944   0.26768   0.00000  Uiso   1.00
O739   O     0.47133   0.73570   0.23607   0.00000  Uiso   1.00
O740   O     0.53771   0.92193   0.21806   0.00000  Uiso   1.00
Zn741  Zn    0.52577   0.80756   0.28278   0.00000  Uiso   1.00
Zn742  Zn    0.46792   0.79044   0.22258   0.00000  Uiso   1.00
Zn743  Zn    0.54500   0.86331   0.21188   0.00000  Uiso   1.00
Zn744  Zn    0.46131   0.87202   0.28277   0.00000  Uiso   1.00
C745   C     0.71935   0.82667   0.25923   0.00000  Uiso   1.00
C746   C     0.86656   0.78751   0.45560   0.00000  Uiso   1.00
C747   C     0.89316   0.77654   0.47632   0.00000  Uiso   1.00
C748   C     0.94808   0.83910   0.24015   0.00000  Uiso   1.00
C749   C     0.88307   0.78421   0.01773   0.00000  Uiso   1.00
C750   C     0.84267   0.79771   0.03955   0.00000  Uiso   1.00
C751   C     0.91298   0.77873   0.03757   0.00000  Uiso   1.00
C752   C     0.90394   0.78838   0.07877   0.00000  Uiso   1.00
C753   C     0.83501   0.80900   0.08086   0.00000  Uiso   1.00
C754   C     0.99454   0.83747   0.23342   0.00000  Uiso   1.00
C755   C     0.67415   0.82629   0.26346   0.00000  Uiso   1.00
C756   C     0.75911   0.87240   0.42446   0.00000  Uiso   1.00
C757   C     0.84501   0.98843   0.23438   0.00000  Uiso   1.00
C758   C     0.81971   0.67956   0.26345   0.00000  Uiso   1.00
C759   C     0.82247   0.72314   0.25950   0.00000  Uiso   1.00
C760   C     0.84315   0.94436   0.24042   0.00000  Uiso   1.00
C761   C     0.85479   0.81252   0.14371   0.00000  Uiso   1.00
C762   C     0.81170   0.85398   0.35666   0.00000  Uiso   1.00
C763   C     0.79785   0.85692   0.40109   0.00000  Uiso   1.00
C764   C     0.86494   0.80349   0.10042   0.00000  Uiso   1.00
C765   C     0.74570   0.86950   0.46643   0.00000  Uiso   1.00
C766   C     0.69496   0.84698   0.19359   0.00000  Uiso   1.00
C767   C     0.82272   0.84019   0.41993   0.00000  Uiso   1.00
C768   C     0.67860   0.85634   0.15961   0.00000  Uiso   1.00
C769   C     0.87418   0.67414   0.19629   0.00000  Uiso   1.00
C770   C     0.90035   0.97862   0.16304   0.00000  Uiso   1.00
C771   C     0.71427   0.89843   0.49410   0.00000  Uiso   1.00
C772   C     0.73019   0.94437   0.48900   0.00000  Uiso   1.00
C773   C     0.74401   0.77408   0.06826   0.00000  Uiso   1.00
C774   C     0.73517   0.73090   0.04774   0.00000  Uiso   1.00
C775   C     0.80576   0.82888   0.45922   0.00000  Uiso   1.00
C776   C     0.76537   0.84205   0.48229   0.00000  Uiso   1.00
C777   C     0.82883   0.80685   0.47701   0.00000  Uiso   1.00
C778   C     0.81313   0.80362   0.01876   0.00000  Uiso   1.00
C779   C     0.76819   0.80437   0.03721   0.00000  Uiso   1.00
C780   C     0.74447   0.82463   0.01896   0.00000  Uiso   1.00
H781   H     0.94361   0.76764   0.02111   0.00000  Uiso   1.00
H782   H     0.70615   0.85904   0.13214   0.00000  Uiso   1.00
H783   H     0.71814   0.87377   0.19935   0.00000  Uiso   1.00
H784   H     0.71322   0.81965   0.18193   0.00000  Uiso   1.00
H785   H     0.98162   0.79071   0.30960   0.00000  Uiso   1.00
H786   H     0.98718   0.84228   0.32327   0.00000  Uiso   1.00
H787   H     0.92554   0.96710   0.17283   0.00000  Uiso   1.00
H788   H     0.87892   0.95239   0.15340   0.00000  Uiso   1.00
H789   H     0.91706   0.99627   0.13676   0.00000  Uiso   1.00
H790   H     0.85364   0.68824   0.18266   0.00000  Uiso   1.00
H791   H     0.89721   0.69949   0.20491   0.00000  Uiso   1.00
H792   H     0.80673   0.82389   0.09786   0.00000  Uiso   1.00
H793   H     0.76195   0.67130   0.30508   0.00000  Uiso   1.00
H794   H     0.80460   0.68211   0.32387   0.00000  Uiso   1.00
H795   H     0.76461   0.95096   0.48859   0.00000  Uiso   1.00
H796   H     0.72619   0.95371   0.46136   0.00000  Uiso   1.00
H797   H     0.71096   0.96387   0.01445   0.00000  Uiso   1.00
H798   H     0.68170   0.89075   0.48973   0.00000  Uiso   1.00
H799   H     0.71089   0.89564   0.02588   0.00000  Uiso   1.00
H800   H     0.74687   0.92012   0.39955   0.00000  Uiso   1.00
H801   H     0.70153   0.88997   0.42266   0.00000  Uiso   1.00
H802   H     0.71652   0.73194   0.02631   0.00000  Uiso   1.00
H803   H     0.92728   0.78405   0.09376   0.00000  Uiso   1.00
H804   H     0.76604   0.71822   0.03137   0.00000  Uiso   1.00
H805   H     0.71634   0.70962   0.07053   0.00000  Uiso   1.00
H806   H     0.76171   0.77020   0.08947   0.00000  Uiso   1.00
H807   H     0.71313   0.78483   0.08727   0.00000  Uiso   1.00
H808   H     0.87505   0.74230   0.40981   0.00000  Uiso   1.00
H809   H     0.90717   0.78722   0.39958   0.00000  Uiso   1.00
H810   H     0.92249   0.76305   0.45969   0.00000  Uiso   1.00
H811   H     0.85521   0.83565   0.40273   0.00000  Uiso   1.00
H812   H     0.69092   0.83692   0.06436   0.00000  Uiso   1.00
H813   H     0.68423   0.79284   0.03413   0.00000  Uiso   1.00
H814   H     0.98792   0.83077   0.15314   0.00000  Uiso   1.00
H815   H     0.99811   0.88645   0.16682   0.00000  Uiso   1.00
N816   N     0.69842   0.82356   0.03482   0.00000  Uiso   1.00
N817   N     0.97820   0.81981   0.30236   0.00000  Uiso   1.00
N818   N     0.79354   0.99839   0.30091   0.00000  Uiso   1.00
N819   N     0.73346   0.88971   0.40510   0.00000  Uiso   1.00
N820   N     0.87581   0.77465   0.41368   0.00000  Uiso   1.00
O821   O     0.83333   0.83333   0.25000   0.00000  Uiso   1.00
O822   O     0.82360   0.79060   0.16625   0.00000  Uiso   1.00
O823   O     0.79354   0.87313   0.33749   0.00000  Uiso   1.00
O824   O     0.87755   0.84159   0.15877   0.00000  Uiso   1.00
O825   O     0.83865   0.82802   0.33749   0.00000  Uiso   1.00
O826   O     0.84515   0.74768   0.27821   0.00000  Uiso   1.00
O827   O     0.81247   0.92803   0.26767   0.00000  Uiso   1.00
O828   O     0.74119   0.79917   0.23607   0.00000  Uiso   1.00
O829   O     0.93452   0.85845   0.21806   0.00000  Uiso   1.00
O830   O     0.73656   0.85627   0.27820   0.00000  Uiso   1.00
O831   O     0.92106   0.81944   0.26768   0.00000  Uiso   1.00
O832   O     0.80467   0.73570   0.23607   0.00000  Uiso   1.00
O833   O     0.87104   0.92193   0.21806   0.00000  Uiso   1.00
Zn834  Zn    0.85910   0.80756   0.28278   0.00000  Uiso   1.00
Zn835  Zn    0.80125   0.79044   0.22258   0.00000  Uiso   1.00
Zn836  Zn    0.87833   0.86331   0.21188   0.00000  Uiso   1.00
Zn837  Zn    0.79465   0.87202   0.28277   0.00000  Uiso   1.00
C838   C     0.05269   0.16001   0.75923   0.00000  Uiso   1.00
C839   C     0.19989   0.12084   0.95560   0.00000  Uiso   1.00
C840   C     0.22649   0.10987   0.97632   0.00000  Uiso   1.00
C841   C     0.28142   0.17244   0.74015   0.00000  Uiso   1.00
C842   C     0.21640   0.11754   0.51773   0.00000  Uiso   1.00
C843   C     0.17601   0.13105   0.53955   0.00000  Uiso   1.00
C844   C     0.24631   0.11207   0.53757   0.00000  Uiso   1.00
C845   C     0.23727   0.12172   0.57877   0.00000  Uiso   1.00
C846   C     0.16835   0.14233   0.58086   0.00000  Uiso   1.00
C847   C     0.32787   0.17080   0.73342   0.00000  Uiso   1.00
C848   C     0.00748   0.15962   0.76346   0.00000  Uiso   1.00
C849   C     0.09245   0.20574   0.92446   0.00000  Uiso   1.00
C850   C     0.17835   0.32176   0.73438   0.00000  Uiso   1.00
C851   C     0.15304   0.01290   0.76345   0.00000  Uiso   1.00
C852   C     0.15580   0.05648   0.75950   0.00000  Uiso   1.00
C853   C     0.17648   0.27769   0.74042   0.00000  Uiso   1.00
C854   C     0.18812   0.14586   0.64371   0.00000  Uiso   1.00
C855   C     0.14503   0.18731   0.85666   0.00000  Uiso   1.00
C856   C     0.13118   0.19026   0.90109   0.00000  Uiso   1.00
C857   C     0.19828   0.13682   0.60042   0.00000  Uiso   1.00
C858   C     0.07903   0.20283   0.96643   0.00000  Uiso   1.00
C859   C     0.02829   0.18031   0.69359   0.00000  Uiso   1.00
C860   C     0.15605   0.17353   0.91993   0.00000  Uiso   1.00
C861   C     0.01193   0.18968   0.65961   0.00000  Uiso   1.00
C862   C     0.20751   0.00747   0.69629   0.00000  Uiso   1.00
C863   C     0.23369   0.31195   0.66304   0.00000  Uiso   1.00
C864   C     0.04761   0.23177   0.99410   0.00000  Uiso   1.00
C865   C     0.06352   0.27771   0.98900   0.00000  Uiso   1.00
C866   C     0.07735   0.10741   0.56826   0.00000  Uiso   1.00
C867   C     0.06850   0.06424   0.54774   0.00000  Uiso   1.00
C868   C     0.13909   0.16221   0.95922   0.00000  Uiso   1.00
C869   C     0.09870   0.17538   0.98229   0.00000  Uiso   1.00
C870   C     0.16216   0.14018   0.97701   0.00000  Uiso   1.00
C871   C     0.14646   0.13695   0.51876   0.00000  Uiso   1.00
C872   C     0.10152   0.13770   0.53721   0.00000  Uiso   1.00
C873   C     0.07780   0.15797   0.51896   0.00000  Uiso   1.00
H874   H     0.27694   0.10097   0.52111   0.00000  Uiso   1.00
H875   H     0.03949   0.19238   0.63214   0.00000  Uiso   1.00
H876   H     0.05148   0.20710   0.69935   0.00000  Uiso   1.00
H877   H     0.04655   0.15298   0.68193   0.00000  Uiso   1.00
H878   H     0.31495   0.12404   0.80960   0.00000  Uiso   1.00
H879   H     0.32051   0.17562   0.82327   0.00000  Uiso   1.00
H880   H     0.25887   0.30043   0.67283   0.00000  Uiso   1.00
H881   H     0.21225   0.28572   0.65340   0.00000  Uiso   1.00
H882   H     0.25039   0.32960   0.63676   0.00000  Uiso   1.00
H883   H     0.18697   0.02157   0.68266   0.00000  Uiso   1.00
H884   H     0.23054   0.03283   0.70491   0.00000  Uiso   1.00
H885   H     0.14006   0.15723   0.59786   0.00000  Uiso   1.00
H886   H     0.09528   0.00463   0.80508   0.00000  Uiso   1.00
H887   H     0.13793   0.01544   0.82387   0.00000  Uiso   1.00
H888   H     0.09794   0.28429   0.98859   0.00000  Uiso   1.00
H889   H     0.05953   0.28704   0.96136   0.00000  Uiso   1.00
H890   H     0.04429   0.29720   0.51445   0.00000  Uiso   1.00
H891   H     0.01504   0.22409   0.98973   0.00000  Uiso   1.00
H892   H     0.04422   0.22898   0.52588   0.00000  Uiso   1.00
H893   H     0.08020   0.25345   0.89955   0.00000  Uiso   1.00
H894   H     0.03486   0.22330   0.92266   0.00000  Uiso   1.00
H895   H     0.04985   0.06527   0.52631   0.00000  Uiso   1.00
H896   H     0.26062   0.11738   0.59376   0.00000  Uiso   1.00
H897   H     0.09938   0.05156   0.53137   0.00000  Uiso   1.00
H898   H     0.04968   0.04296   0.57053   0.00000  Uiso   1.00
H899   H     0.09504   0.10353   0.58947   0.00000  Uiso   1.00
H900   H     0.04647   0.11816   0.58727   0.00000  Uiso   1.00
H901   H     0.20838   0.07563   0.90981   0.00000  Uiso   1.00
H902   H     0.24050   0.12055   0.89958   0.00000  Uiso   1.00
H903   H     0.25582   0.09638   0.95969   0.00000  Uiso   1.00
H904   H     0.18854   0.16899   0.90273   0.00000  Uiso   1.00
H905   H     0.02426   0.17026   0.56436   0.00000  Uiso   1.00
H906   H     0.01756   0.12618   0.53413   0.00000  Uiso   1.00
H907   H     0.32125   0.16411   0.65314   0.00000  Uiso   1.00
H908   H     0.33144   0.21979   0.66682   0.00000  Uiso   1.00
N909   N     0.03175   0.15690   0.53482   0.00000  Uiso   1.00
N910   N     0.31154   0.15314   0.80236   0.00000  Uiso   1.00
N911   N     0.12687   0.33173   0.80091   0.00000  Uiso   1.00
N912   N     0.06679   0.22305   0.90510   0.00000  Uiso   1.00
N913   N     0.20915   0.10798   0.91368   0.00000  Uiso   1.00
O914   O     0.16667   0.16667   0.75000   0.00000  Uiso   1.00
O915   O     0.15693   0.12393   0.66625   0.00000  Uiso   1.00
O916   O     0.12687   0.20646   0.83749   0.00000  Uiso   1.00
O917   O     0.21088   0.17493   0.65877   0.00000  Uiso   1.00
O918   O     0.17198   0.16135   0.83749   0.00000  Uiso   1.00
O919   O     0.17849   0.08101   0.77821   0.00000  Uiso   1.00
O920   O     0.14581   0.26136   0.76767   0.00000  Uiso   1.00
O921   O     0.07452   0.13251   0.73607   0.00000  Uiso   1.00
O922   O     0.26785   0.19179   0.71806   0.00000  Uiso   1.00
O923   O     0.06990   0.18960   0.77820   0.00000  Uiso   1.00
O924   O     0.25440   0.15277   0.76768   0.00000  Uiso   1.00
O925   O     0.13800   0.06903   0.73607   0.00000  Uiso   1.00
O926   O     0.20437   0.25527   0.71806   0.00000  Uiso   1.00
Zn927  Zn    0.19244   0.14090   0.78278   0.00000  Uiso   1.00
Zn928  Zn    0.13459   0.12378   0.72258   0.00000  Uiso   1.00
Zn929  Zn    0.21166   0.19664   0.71188   0.00000  Uiso   1.00
Zn930  Zn    0.12798   0.20535   0.78277   0.00000  Uiso   1.00
C931   C     0.38602   0.16001   0.75923   0.00000  Uiso   1.00
C932   C     0.53322   0.12084   0.95560   0.00000  Uiso   1.00
C933   C     0.55983   0.10987   0.97632   0.00000  Uiso   1.00
C934   C     0.61475   0.17244   0.74015   0.00000  Uiso   1.00
C935   C     0.54973   0.11754   0.51773   0.00000  Uiso   1.00
C936   C     0.50934   0.13105   0.53955   0.00000  Uiso   1.00
C937   C     0.57964   0.11207   0.53757   0.00000  Uiso   1.00
C938   C     0.57060   0.12172   0.57877   0.00000  Uiso   1.00
C939   C     0.50168   0.14233   0.58086   0.00000  Uiso   1.00
C940   C     0.66120   0.17080   0.73342   0.00000  Uiso   1.00
C941   C     0.34082   0.15962   0.76346   0.00000  Uiso   1.00
C942   C     0.42578   0.20574   0.92446   0.00000  Uiso   1.00
C943   C     0.51168   0.32176   0.73438   0.00000  Uiso   1.00
C944   C     0.48637   0.01290   0.76345   0.00000  Uiso   1.00
C945   C     0.48913   0.05648   0.75950   0.00000  Uiso   1.00
C946   C     0.50981   0.27769   0.74042   0.00000  Uiso   1.00
C947   C     0.52145   0.14586   0.64371   0.00000  Uiso   1.00
C948   C     0.47836   0.18731   0.85666   0.00000  Uiso   1.00
C949   C     0.46451   0.19026   0.90109   0.00000  Uiso   1.00
C950   C     0.53161   0.13682   0.60042   0.00000  Uiso   1.00
C951   C     0.41236   0.20283   0.96643   0.00000  Uiso   1.00
C952   C     0.36163   0.18031   0.69359   0.00000  Uiso   1.00
C953   C     0.48938   0.17353   0.91993   0.00000  Uiso   1.00
C954   C     0.34527   0.18968   0.65961   0.00000  Uiso   1.00
C955   C     0.54084   0.00747   0.69629   0.00000  Uiso   1.00
C956   C     0.56702   0.31195   0.66304   0.00000  Uiso   1.00
C957   C     0.38094   0.23177   0.99410   0.00000  Uiso   1.00
C958   C     0.39686   0.27771   0.98900   0.00000  Uiso   1.00
C959   C     0.41068   0.10741   0.56826   0.00000  Uiso   1.00
C960   C     0.40183   0.06424   0.54774   0.00000  Uiso   1.00
C961   C     0.47243   0.16221   0.95922   0.00000  Uiso   1.00
C962   C     0.43203   0.17538   0.98229   0.00000  Uiso   1.00
C963   C     0.49549   0.14018   0.97701   0.00000  Uiso   1.00
C964   C     0.47980   0.13695   0.51876   0.00000  Uiso   1.00
C965   C     0.43485   0.13770   0.53721   0.00000  Uiso   1.00
C966   C     0.41113   0.15797   0.51896   0.00000  Uiso   1.00
H967   H     0.61027   0.10097   0.52111   0.00000  Uiso   1.00
H968   H     0.37282   0.19238   0.63214   0.00000  Uiso   1.00
H969   H     0.38481   0.20710   0.69935   0.00000  Uiso   1.00
H970   H     0.37988   0.15298   0.68193   0.00000  Uiso   1.00
H971   H     0.64829   0.12404   0.80960   0.00000  Uiso   1.00
H972   H     0.65385   0.17562   0.82327   0.00000  Uiso   1.00
H973   H     0.59221   0.30043   0.67283   0.00000  Uiso   1.00
H974   H     0.54558   0.28572   0.65340   0.00000  Uiso   1.00
H975   H     0.58372   0.32960   0.63676   0.00000  Uiso   1.00
H976   H     0.52030   0.02157   0.68266   0.00000  Uiso   1.00
H977   H     0.56388   0.03283   0.70491   0.00000  Uiso   1.00
H978   H     0.47340   0.15723   0.59786   0.00000  Uiso   1.00
H979   H     0.42861   0.00463   0.80508   0.00000  Uiso   1.00
H980   H     0.47127   0.01544   0.82387   0.00000  Uiso   1.00
H981   H     0.43127   0.28429   0.98859   0.00000  Uiso   1.00
H982   H     0.39286   0.28704   0.96136   0.00000  Uiso   1.00
H983   H     0.37762   0.29720   0.51445   0.00000  Uiso   1.00
H984   H     0.34837   0.22409   0.98973   0.00000  Uiso   1.00
H985   H     0.37756   0.22898   0.52588   0.00000  Uiso   1.00
H986   H     0.41354   0.25345   0.89955   0.00000  Uiso   1.00
H987   H     0.36819   0.22330   0.92266   0.00000  Uiso   1.00
H988   H     0.38318   0.06527   0.52631   0.00000  Uiso   1.00
H989   H     0.59395   0.11738   0.59376   0.00000  Uiso   1.00
H990   H     0.43271   0.05156   0.53137   0.00000  Uiso   1.00
H991   H     0.38301   0.04296   0.57053   0.00000  Uiso   1.00
H992   H     0.42838   0.10353   0.58947   0.00000  Uiso   1.00
H993   H     0.37980   0.11816   0.58727   0.00000  Uiso   1.00
H994   H     0.54172   0.07563   0.90981   0.00000  Uiso   1.00
H995   H     0.57384   0.12055   0.89958   0.00000  Uiso   1.00
H996   H     0.58915   0.09638   0.95969   0.00000  Uiso   1.00
H997   H     0.52187   0.16899   0.90273   0.00000  Uiso   1.00
H998   H     0.35759   0.17026   0.56436   0.00000  Uiso   1.00
H999   H     0.35090   0.12618   0.53413   0.00000  Uiso   1.00
H1000  H     0.65459   0.16411   0.65314   0.00000  Uiso   1.00
H1001  H     0.66477   0.21979   0.66682   0.00000  Uiso   1.00
N1002  N     0.36508   0.15690   0.53482   0.00000  Uiso   1.00
N1003  N     0.64487   0.15314   0.80236   0.00000  Uiso   1.00
N1004  N     0.46021   0.33173   0.80091   0.00000  Uiso   1.00
N1005  N     0.40013   0.22305   0.90510   0.00000  Uiso   1.00
N1006  N     0.54248   0.10798   0.91368   0.00000  Uiso   1.00
O1007  O     0.50000   0.16667   0.75000   0.00000  Uiso   1.00
O1008  O     0.49027   0.12393   0.66625   0.00000  Uiso   1.00
O1009  O     0.46020   0.20646   0.83749   0.00000  Uiso   1.00
O1010  O     0.54421   0.17493   0.65877   0.00000  Uiso   1.00
O1011  O     0.50532   0.16135   0.83749   0.00000  Uiso   1.00
O1012  O     0.51182   0.08101   0.77821   0.00000  Uiso   1.00
O1013  O     0.47914   0.26136   0.76767   0.00000  Uiso   1.00
O1014  O     0.40785   0.13251   0.73607   0.00000  Uiso   1.00
O1015  O     0.60119   0.19179   0.71806   0.00000  Uiso   1.00
O1016  O     0.40323   0.18960   0.77820   0.00000  Uiso   1.00
O1017  O     0.58773   0.15277   0.76768   0.00000  Uiso   1.00
O1018  O     0.47133   0.06903   0.73607   0.00000  Uiso   1.00
O1019  O     0.53771   0.25527   0.71806   0.00000  Uiso   1.00
Zn1020 Zn    0.52577   0.14090   0.78278   0.00000  Uiso   1.00
Zn1021 Zn    0.46792   0.12378   0.72258   0.00000  Uiso   1.00
Zn1022 Zn    0.54500   0.19664   0.71188   0.00000  Uiso   1.00
Zn1023 Zn    0.46131   0.20535   0.78277   0.00000  Uiso   1.00
C1024  C     0.71935   0.16001   0.75923   0.00000  Uiso   1.00
C1025  C     0.86656   0.12084   0.95560   0.00000  Uiso   1.00
C1026  C     0.89316   0.10987   0.97632   0.00000  Uiso   1.00
C1027  C     0.94808   0.17244   0.74015   0.00000  Uiso   1.00
C1028  C     0.88307   0.11754   0.51773   0.00000  Uiso   1.00
C1029  C     0.84267   0.13105   0.53955   0.00000  Uiso   1.00
C1030  C     0.91298   0.11207   0.53757   0.00000  Uiso   1.00
C1031  C     0.90394   0.12172   0.57877   0.00000  Uiso   1.00
C1032  C     0.83501   0.14233   0.58086   0.00000  Uiso   1.00
C1033  C     0.99454   0.17080   0.73342   0.00000  Uiso   1.00
C1034  C     0.67415   0.15962   0.76346   0.00000  Uiso   1.00
C1035  C     0.75911   0.20574   0.92446   0.00000  Uiso   1.00
C1036  C     0.84501   0.32176   0.73438   0.00000  Uiso   1.00
C1037  C     0.81971   0.01290   0.76345   0.00000  Uiso   1.00
C1038  C     0.82247   0.05648   0.75950   0.00000  Uiso   1.00
C1039  C     0.84315   0.27769   0.74042   0.00000  Uiso   1.00
C1040  C     0.85479   0.14586   0.64371   0.00000  Uiso   1.00
C1041  C     0.81170   0.18731   0.85666   0.00000  Uiso   1.00
C1042  C     0.79785   0.19026   0.90109   0.00000  Uiso   1.00
C1043  C     0.86494   0.13682   0.60042   0.00000  Uiso   1.00
C1044  C     0.74570   0.20283   0.96643   0.00000  Uiso   1.00
C1045  C     0.69496   0.18031   0.69359   0.00000  Uiso   1.00
C1046  C     0.82272   0.17353   0.91993   0.00000  Uiso   1.00
C1047  C     0.67860   0.18968   0.65961   0.00000  Uiso   1.00
C1048  C     0.87418   0.00747   0.69629   0.00000  Uiso   1.00
C1049  C     0.90035   0.31195   0.66304   0.00000  Uiso   1.00
C1050  C     0.71427   0.23177   0.99410   0.00000  Uiso   1.00
C1051  C     0.73019   0.27771   0.98900   0.00000  Uiso   1.00
C1052  C     0.74401   0.10741   0.56826   0.00000  Uiso   1.00
C1053  C     0.73517   0.06424   0.54774   0.00000  Uiso   1.00
C1054  C     0.80576   0.16221   0.95922   0.00000  Uiso   1.00
C1055  C     0.76537   0.17538   0.98229   0.00000  Uiso   1.00
C1056  C     0.82883   0.14018   0.97701   0.00000  Uiso   1.00
C1057  C     0.81313   0.13695   0.51876   0.00000  Uiso   1.00
C1058  C     0.76819   0.13770   0.53721   0.00000  Uiso   1.00
C1059  C     0.74447   0.15797   0.51896   0.00000  Uiso   1.00
H1060  H     0.94361   0.10097   0.52111   0.00000  Uiso   1.00
H1061  H     0.70615   0.19238   0.63214   0.00000  Uiso   1.00
H1062  H     0.71814   0.20710   0.69935   0.00000  Uiso   1.00
H1063  H     0.71322   0.15298   0.68193   0.00000  Uiso   1.00
H1064  H     0.98162   0.12404   0.80960   0.00000  Uiso   1.00
H1065  H     0.98718   0.17562   0.82327   0.00000  Uiso   1.00
H1066  H     0.92554   0.30043   0.67283   0.00000  Uiso   1.00
H1067  H     0.87892   0.28572   0.65340   0.00000  Uiso   1.00
H1068  H     0.91706   0.32960   0.63676   0.00000  Uiso   1.00
H1069  H     0.85364   0.02157   0.68266   0.00000  Uiso   1.00
H1070  H     0.89721   0.03283   0.70491   0.00000  Uiso   1.00
H1071  H     0.80673   0.15723   0.59786   0.00000  Uiso   1.00
H1072  H     0.76195   0.00463   0.80508   0.00000  Uiso   1.00
H1073  H     0.80460   0.01544   0.82387   0.00000  Uiso   1.00
H1074  H     0.76461   0.28429   0.98859   0.00000  Uiso   1.00
H1075  H     0.72619   0.28704   0.96136   0.00000  Uiso   1.00
H1076  H     0.71096   0.29720   0.51445   0.00000  Uiso   1.00
H1077  H     0.68170   0.22409   0.98973   0.00000  Uiso   1.00
H1078  H     0.71089   0.22898   0.52588   0.00000  Uiso   1.00
H1079  H     0.74687   0.25345   0.89955   0.00000  Uiso   1.00
H1080  H     0.70153   0.22330   0.92266   0.00000  Uiso   1.00
H1081  H     0.71652   0.06527   0.52631   0.00000  Uiso   1.00
H1082  H     0.92728   0.11738   0.59376   0.00000  Uiso   1.00
H1083  H     0.76604   0.05156   0.53137   0.00000  Uiso   1.00
H1084  H     0.71634   0.04296   0.57053   0.00000  Uiso   1.00
H1085  H     0.76171   0.10353   0.58947   0.00000  Uiso   1.00
H1086  H     0.71313   0.11816   0.58727   0.00000  Uiso   1.00
H1087  H     0.87505   0.07563   0.90981   0.00000  Uiso   1.00
H1088  H     0.90717   0.12055   0.89958   0.00000  Uiso   1.00
H1089  H     0.92249   0.09638   0.95969   0.00000  Uiso   1.00
H1090  H     0.85521   0.16899   0.90273   0.00000  Uiso   1.00
H1091  H     0.69092   0.17026   0.56436   0.00000  Uiso   1.00
H1092  H     0.68423   0.12618   0.53413   0.00000  Uiso   1.00
H1093  H     0.98792   0.16411   0.65314   0.00000  Uiso   1.00
H1094  H     0.99811   0.21979   0.66682   0.00000  Uiso   1.00
N1095  N     0.69842   0.15690   0.53482   0.00000  Uiso   1.00
N1096  N     0.97820   0.15314   0.80236   0.00000  Uiso   1.00
N1097  N     0.79354   0.33173   0.80091   0.00000  Uiso   1.00
N1098  N     0.73346   0.22305   0.90510   0.00000  Uiso   1.00
N1099  N     0.87581   0.10798   0.91368   0.00000  Uiso   1.00
O1100  O     0.83333   0.16667   0.75000   0.00000  Uiso   1.00
O1101  O     0.82360   0.12393   0.66625   0.00000  Uiso   1.00
O1102  O     0.79354   0.20646   0.83749   0.00000  Uiso   1.00
O1103  O     0.87755   0.17493   0.65877   0.00000  Uiso   1.00
O1104  O     0.83865   0.16135   0.83749   0.00000  Uiso   1.00
O1105  O     0.84515   0.08101   0.77821   0.00000  Uiso   1.00
O1106  O     0.81247   0.26136   0.76767   0.00000  Uiso   1.00
O1107  O     0.74119   0.13251   0.73607   0.00000  Uiso   1.00
O1108  O     0.93452   0.19179   0.71806   0.00000  Uiso   1.00
O1109  O     0.73656   0.18960   0.77820   0.00000  Uiso   1.00
O1110  O     0.92106   0.15277   0.76768   0.00000  Uiso   1.00
O1111  O     0.80467   0.06903   0.73607   0.00000  Uiso   1.00
O1112  O     0.87104   0.25527   0.71806   0.00000  Uiso   1.00
Zn1113 Zn    0.85910   0.14090   0.78278   0.00000  Uiso   1.00
Zn1114 Zn    0.80125   0.12378   0.72258   0.00000  Uiso   1.00
Zn1115 Zn    0.87833   0.19664   0.71188   0.00000  Uiso   1.00
Zn1116 Zn    0.79465   0.20535   0.78277   0.00000  Uiso   1.00
C1117  C     0.05269   0.49334   0.75923   0.00000  Uiso   1.00
C1118  C     0.19989   0.45417   0.95560   0.00000  Uiso   1.00
C1119  C     0.22649   0.44320   0.97632   0.00000  Uiso   1.00
C1120  C     0.28142   0.50577   0.74015   0.00000  Uiso   1.00
C1121  C     0.21640   0.45087   0.51773   0.00000  Uiso   1.00
C1122  C     0.17601   0.46438   0.53955   0.00000  Uiso   1.00
C1123  C     0.24631   0.44540   0.53757   0.00000  Uiso   1.00
C1124  C     0.23727   0.45505   0.57877   0.00000  Uiso   1.00
C1125  C     0.16835   0.47567   0.58086   0.00000  Uiso   1.00
C1126  C     0.32787   0.50414   0.73342   0.00000  Uiso   1.00
C1127  C     0.00748   0.49295   0.76346   0.00000  Uiso   1.00
C1128  C     0.09245   0.53907   0.92446   0.00000  Uiso   1.00
C1129  C     0.17835   0.65510   0.73438   0.00000  Uiso   1.00
C1130  C     0.15304   0.34623   0.76345   0.00000  Uiso   1.00
C1131  C     0.15580   0.38981   0.75950   0.00000  Uiso   1.00
C1132  C     0.17648   0.61102   0.74042   0.00000  Uiso   1.00
C1133  C     0.18812   0.47919   0.64371   0.00000  Uiso   1.00
C1134  C     0.14503   0.52064   0.85666   0.00000  Uiso   1.00
C1135  C     0.13118   0.52359   0.90109   0.00000  Uiso   1.00
C1136  C     0.19828   0.47015   0.60042   0.00000  Uiso   1.00
C1137  C     0.07903   0.53616   0.96643   0.00000  Uiso   1.00
C1138  C     0.02829   0.51364   0.69359   0.00000  Uiso   1.00
C1139  C     0.15605   0.50686   0.91993   0.00000  Uiso   1.00
C1140  C     0.01193   0.52301   0.65961   0.00000  Uiso   1.00
C1141  C     0.20751   0.34080   0.69629   0.00000  Uiso   1.00
C1142  C     0.23369   0.64529   0.66304   0.00000  Uiso   1.00
C1143  C     0.04761   0.56510   0.99410   0.00000  Uiso   1.00
C1144  C     0.06352   0.61104   0.98900   0.00000  Uiso   1.00
C1145  C     0.07735   0.44075   0.56826   0.00000  Uiso   1.00
C1146  C     0.06850   0.39757   0.54774   0.00000  Uiso   1.00
C1147  C     0.13909   0.49554   0.95922   0.00000  Uiso   1.00
C1148  C     0.09870   0.50872   0.98229   0.00000  Uiso   1.00
C1149  C     0.16216   0.47351   0.97701   0.00000  Uiso   1.00
C1150  C     0.14646   0.47029   0.51876   0.00000  Uiso   1.00
C1151  C     0.10152   0.47103   0.53721   0.00000  Uiso   1.00
C1152  C     0.07780   0.49130   0.51896   0.00000  Uiso   1.00
H1153  H     0.27694   0.43431   0.52111   0.00000  Uiso   1.00
H1154  H     0.03949   0.52571   0.63214   0.00000  Uiso   1.00
H1155  H     0.05148   0.54044   0.69935   0.00000  Uiso   1.00
H1156  H     0.04655   0.48631   0.68193   0.00000  Uiso   1.00
H1157  H     0.31495   0.45738   0.80960   0.00000  Uiso   1.00
H1158  H     0.32051   0.50895   0.82327   0.00000  Uiso   1.00
H1159  H     0.25887   0.63376   0.67283   0.00000  Uiso   1.00
H1160  H     0.21225   0.61905   0.65340   0.00000  Uiso   1.00
H1161  H     0.25039   0.66293   0.63676   0.00000  Uiso   1.00
H1162  H     0.18697   0.35491   0.68266   0.00000  Uiso   1.00
H1163  H     0.23054   0.36616   0.70491   0.00000  Uiso   1.00
H1164  H     0.14006   0.49056   0.59786   0.00000  Uiso   1.00
H1165  H     0.09528   0.33796   0.80508   0.00000  Uiso   1.00
H1166  H     0.13793   0.34878   0.82387   0.00000  Uiso   1.00
H1167  H     0.09794   0.61763   0.98859   0.00000  Uiso   1.00
H1168  H     0.05953   0.62038   0.96136   0.00000  Uiso   1.00
H1169  H     0.04429   0.63054   0.51445   0.00000  Uiso   1.00
H1170  H     0.01504   0.55742   0.98973   0.00000  Uiso   1.00
H1171  H     0.04422   0.56231   0.52588   0.00000  Uiso   1.00
H1172  H     0.08020   0.58678   0.89955   0.00000  Uiso   1.00
H1173  H     0.03486   0.55664   0.92266   0.00000  Uiso   1.00
H1174  H     0.04985   0.39860   0.52631   0.00000  Uiso   1.00
H1175  H     0.26062   0.45072   0.59376   0.00000  Uiso   1.00
H1176  H     0.09938   0.38489   0.53137   0.00000  Uiso   1.00
H1177  H     0.04968   0.37629   0.57053   0.00000  Uiso   1.00
H1178  H     0.09504   0.43687   0.58947   0.00000  Uiso   1.00
H1179  H     0.04647   0.45149   0.58727   0.00000  Uiso   1.00
H1180  H     0.20838   0.40897   0.90981   0.00000  Uiso   1.00
H1181  H     0.24050   0.45389   0.89958   0.00000  Uiso   1.00
H1182  H     0.25582   0.42972   0.95969   0.00000  Uiso   1.00
H1183  H     0.18854   0.50232   0.90273   0.00000  Uiso   1.00
H1184  H     0.02426   0.50359   0.56436   0.00000  Uiso   1.00
H1185  H     0.01756   0.45951   0.53413   0.00000  Uiso   1.00
H1186  H     0.32125   0.49744   0.65314   0.00000  Uiso   1.00
H1187  H     0.33144   0.55312   0.66682   0.00000  Uiso   1.00
N1188  N     0.03175   0.49023   0.53482   0.00000  Uiso   1.00
N1189  N     0.31154   0.48647   0.80236   0.00000  Uiso   1.00
N1190  N     0.12687   0.66506   0.80091   0.00000  Uiso   1.00
N1191  N     0.06679   0.55638   0.90510   0.00000  Uiso   1.00
N1192  N     0.20915   0.44131   0.91368   0.00000  Uiso   1.00
O1193  O     0.16667   0.50000   0.75000   0.00000  Uiso   1.00
O1194  O     0.15693   0.45726   0.66625   0.00000  Uiso   1.00
O1195  O     0.12687   0.53979   0.83749   0.00000  Uiso   1.00
O1196  O     0.21088   0.50826   0.65877   0.00000  Uiso   1.00
O1197  O     0.17198   0.49468   0.83749   0.00000  Uiso   1.00
O1198  O     0.17849   0.41434   0.77821   0.00000  Uiso   1.00
O1199  O     0.14581   0.59469   0.76767   0.00000  Uiso   1.00
O1200  O     0.07452   0.46584   0.73607   0.00000  Uiso   1.00
O1201  O     0.26785   0.52512   0.71806   0.00000  Uiso   1.00
O1202  O     0.06990   0.52293   0.77820   0.00000  Uiso   1.00
O1203  O     0.25440   0.48610   0.76768   0.00000  Uiso   1.00
O1204  O     0.13800   0.40236   0.73607   0.00000  Uiso   1.00
O1205  O     0.20437   0.58860   0.71806   0.00000  Uiso   1.00
Zn1206 Zn    0.19244   0.47423   0.78278   0.00000  Uiso   1.00
Zn1207 Zn    0.13459   0.45711   0.72258   0.00000  Uiso   1.00
Zn1208 Zn    0.21166   0.52997   0.71188   0.00000  Uiso   1.00
Zn1209 Zn    0.12798   0.53868   0.78277   0.00000  Uiso   1.00
C1210  C     0.38602   0.49334   0.75923   0.00000  Uiso   1.00
C1211  C     0.53322   0.45417   0.95560   0.00000  Uiso   1.00
C1212  C     0.55983   0.44320   0.97632   0.00000  Uiso   1.00
C1213  C     0.61475   0.50577   0.74015   0.00000  Uiso   1.00
C1214  C     0.54973   0.45087   0.51773   0.00000  Uiso   1.00
C1215  C     0.50934   0.46438   0.53955   0.00000  Uiso   1.00
C1216  C     0.57964   0.44540   0.53757   0.00000  Uiso   1.00
C1217  C     0.57060   0.45505   0.57877   0.00000  Uiso   1.00
C1218  C     0.50168   0.47567   0.58086   0.00000  Uiso   1.00
C1219  C     0.66120   0.50414   0.73342   0.00000  Uiso   1.00
C1220  C     0.34082   0.49295   0.76346   0.00000  Uiso   1.00
C1221  C     0.42578   0.53907   0.92446   0.00000  Uiso   1.00
C1222  C     0.51168   0.65510   0.73438   0.00000  Uiso   1.00
C1223  C     0.48637   0.34623   0.76345   0.00000  Uiso   1.00
C1224  C     0.48913   0.38981   0.75950   0.00000  Uiso   1.00
C1225  C     0.50981   0.61102   0.74042   0.00000  Uiso   1.00
C1226  C     0.52145   0.47919   0.64371   0.00000  Uiso   1.00
C1227  C     0.47836   0.52064   0.85666   0.00000  Uiso   1.00
C1228  C     0.46451   0.52359   0.90109   0.00000  Uiso   1.00
C1229  C     0.53161   0.47015   0.60042   0.00000  Uiso   1.00
C1230  C     0.41236   0.53616   0.96643   0.00000  Uiso   1.00
C1231  C     0.36163   0.51364   0.69359   0.00000  Uiso   1.00
C1232  C     0.48938   0.50686   0.91993   0.00000  Uiso   1.00
C1233  C     0.34527   0.52301   0.65961   0.00000  Uiso   1.00
C1234  C     0.54084   0.34080   0.69629   0.00000  Uiso   1.00
C1235  C     0.56702   0.64529   0.66304   0.00000  Uiso   1.00
C1236  C     0.38094   0.56510   0.99410   0.00000  Uiso   1.00
C1237  C     0.39686   0.61104   0.98900   0.00000  Uiso   1.00
C1238  C     0.41068   0.44075   0.56826   0.00000  Uiso   1.00
C1239  C     0.40183   0.39757   0.54774   0.00000  Uiso   1.00
C1240  C     0.47243   0.49554   0.95922   0.00000  Uiso   1.00
C1241  C     0.43203   0.50872   0.98229   0.00000  Uiso   1.00
C1242  C     0.49549   0.47351   0.97701   0.00000  Uiso   1.00
C1243  C     0.47980   0.47029   0.51876   0.00000  Uiso   1.00
C1244  C     0.43485   0.47103   0.53721   0.00000  Uiso   1.00
C1245  C     0.41113   0.49130   0.51896   0.00000  Uiso   1.00
H1246  H     0.61027   0.43431   0.52111   0.00000  Uiso   1.00
H1247  H     0.37282   0.52571   0.63214   0.00000  Uiso   1.00
H1248  H     0.38481   0.54044   0.69935   0.00000  Uiso   1.00
H1249  H     0.37988   0.48631   0.68193   0.00000  Uiso   1.00
H1250  H     0.64829   0.45738   0.80960   0.00000  Uiso   1.00
H1251  H     0.65385   0.50895   0.82327   0.00000  Uiso   1.00
H1252  H     0.59221   0.63376   0.67283   0.00000  Uiso   1.00
H1253  H     0.54558   0.61905   0.65340   0.00000  Uiso   1.00
H1254  H     0.58372   0.66293   0.63676   0.00000  Uiso   1.00
H1255  H     0.52030   0.35491   0.68266   0.00000  Uiso   1.00
H1256  H     0.56388   0.36616   0.70491   0.00000  Uiso   1.00
H1257  H     0.47340   0.49056   0.59786   0.00000  Uiso   1.00
H1258  H     0.42861   0.33796   0.80508   0.00000  Uiso   1.00
H1259  H     0.47127   0.34878   0.82387   0.00000  Uiso   1.00
H1260  H     0.43127   0.61763   0.98859   0.00000  Uiso   1.00
H1261  H     0.39286   0.62038   0.96136   0.00000  Uiso   1.00
H1262  H     0.37762   0.63054   0.51445   0.00000  Uiso   1.00
H1263  H     0.34837   0.55742   0.98973   0.00000  Uiso   1.00
H1264  H     0.37756   0.56231   0.52588   0.00000  Uiso   1.00
H1265  H     0.41354   0.58678   0.89955   0.00000  Uiso   1.00
H1266  H     0.36819   0.55664   0.92266   0.00000  Uiso   1.00
H1267  H     0.38318   0.39860   0.52631   0.00000  Uiso   1.00
H1268  H     0.59395   0.45072   0.59376   0.00000  Uiso   1.00
H1269  H     0.43271   0.38489   0.53137   0.00000  Uiso   1.00
H1270  H     0.38301   0.37629   0.57053   0.00000  Uiso   1.00
H1271  H     0.42838   0.43687   0.58947   0.00000  Uiso   1.00
H1272  H     0.37980   0.45149   0.58727   0.00000  Uiso   1.00
H1273  H     0.54172   0.40897   0.90981   0.00000  Uiso   1.00
H1274  H     0.57384   0.45389   0.89958   0.00000  Uiso   1.00
H1275  H     0.58915   0.42972   0.95969   0.00000  Uiso   1.00
H1276  H     0.52187   0.50232   0.90273   0.00000  Uiso   1.00
H1277  H     0.35759   0.50359   0.56436   0.00000  Uiso   1.00
H1278  H     0.35090   0.45951   0.53413   0.00000  Uiso   1.00
H1279  H     0.65459   0.49744   0.65314   0.00000  Uiso   1.00
H1280  H     0.66477   0.55312   0.66682   0.00000  Uiso   1.00
N1281  N     0.36508   0.49023   0.53482   0.00000  Uiso   1.00
N1282  N     0.64487   0.48647   0.80236   0.00000  Uiso   1.00
N1283  N     0.46021   0.66506   0.80091   0.00000  Uiso   1.00
N1284  N     0.40013   0.55638   0.90510   0.00000  Uiso   1.00
N1285  N     0.54248   0.44131   0.91368   0.00000  Uiso   1.00
O1286  O     0.50000   0.50000   0.75000   0.00000  Uiso   1.00
O1287  O     0.49027   0.45726   0.66625   0.00000  Uiso   1.00
O1288  O     0.46020   0.53979   0.83749   0.00000  Uiso   1.00
O1289  O     0.54421   0.50826   0.65877   0.00000  Uiso   1.00
O1290  O     0.50532   0.49468   0.83749   0.00000  Uiso   1.00
O1291  O     0.51182   0.41434   0.77821   0.00000  Uiso   1.00
O1292  O     0.47914   0.59469   0.76767   0.00000  Uiso   1.00
O1293  O     0.40785   0.46584   0.73607   0.00000  Uiso   1.00
O1294  O     0.60119   0.52512   0.71806   0.00000  Uiso   1.00
O1295  O     0.40323   0.52293   0.77820   0.00000  Uiso   1.00
O1296  O     0.58773   0.48610   0.76768   0.00000  Uiso   1.00
O1297  O     0.47133   0.40236   0.73607   0.00000  Uiso   1.00
O1298  O     0.53771   0.58860   0.71806   0.00000  Uiso   1.00
Zn1299 Zn    0.52577   0.47423   0.78278   0.00000  Uiso   1.00
Zn1300 Zn    0.46792   0.45711   0.72258   0.00000  Uiso   1.00
Zn1301 Zn    0.54500   0.52997   0.71188   0.00000  Uiso   1.00
Zn1302 Zn    0.46131   0.53868   0.78277   0.00000  Uiso   1.00
C1303  C     0.71935   0.49334   0.75923   0.00000  Uiso   1.00
C1304  C     0.86656   0.45417   0.95560   0.00000  Uiso   1.00
C1305  C     0.89316   0.44320   0.97632   0.00000  Uiso   1.00
C1306  C     0.94808   0.50577   0.74015   0.00000  Uiso   1.00
C1307  C     0.88307   0.45087   0.51773   0.00000  Uiso   1.00
C1308  C     0.84267   0.46438   0.53955   0.00000  Uiso   1.00
C1309  C     0.91298   0.44540   0.53757   0.00000  Uiso   1.00
C1310  C     0.90394   0.45505   0.57877   0.00000  Uiso   1.00
C1311  C     0.83501   0.47567   0.58086   0.00000  Uiso   1.00
C1312  C     0.99454   0.50414   0.73342   0.00000  Uiso   1.00
C1313  C     0.67415   0.49295   0.76346   0.00000  Uiso   1.00
C1314  C     0.75911   0.53907   0.92446   0.00000  Uiso   1.00
C1315  C     0.84501   0.65510   0.73438   0.00000  Uiso   1.00
C1316  C     0.81971   0.34623   0.76345   0.00000  Uiso   1.00
C1317  C     0.82247   0.38981   0.75950   0.00000  Uiso   1.00
C1318  C     0.84315   0.61102   0.74042   0.00000  Uiso   1.00
C1319  C     0.85479   0.47919   0.64371   0.00000  Uiso   1.00
C1320  C     0.81170   0.52064   0.85666   0.00000  Uiso   1.00
C1321  C     0.79785   0.52359   0.90109   0.00000  Uiso   1.00
C1322  C     0.86494   0.47015   0.60042   0.00000  Uiso   1.00
C1323  C     0.74570   0.53616   0.96643   0.00000  Uiso   1.00
C1324  C     0.69496   0.51364   0.69359   0.00000  Uiso   1.00
C1325  C     0.82272   0.50686   0.91993   0.00000  Uiso   1.00
C1326  C     0.67860   0.52301   0.65961   0.00000  Uiso   1.00
C1327  C     0.87418   0.34080   0.69629   0.00000  Uiso   1.00
C1328  C     0.90035   0.64529   0.66304   0.00000  Uiso   1.00
C1329  C     0.71427   0.56510   0.99410   0.00000  Uiso   1.00
C1330  C     0.73019   0.61104   0.98900   0.00000  Uiso   1.00
C1331  C     0.74401   0.44075   0.56826   0.00000  Uiso   1.00
C1332  C     0.73517   0.39757   0.54774   0.00000  Uiso   1.00
C1333  C     0.80576   0.49554   0.95922   0.00000  Uiso   1.00
C1334  C     0.76537   0.50872   0.98229   0.00000  Uiso   1.00
C1335  C     0.82883   0.47351   0.97701   0.00000  Uiso   1.00
C1336  C     0.81313   0.47029   0.51876   0.00000  Uiso   1.00
C1337  C     0.76819   0.47103   0.53721   0.00000  Uiso   1.00
C1338  C     0.74447   0.49130   0.51896   0.00000  Uiso   1.00
H1339  H     0.94361   0.43431   0.52111   0.00000  Uiso   1.00
H1340  H     0.70615   0.52571   0.63214   0.00000  Uiso   1.00
H1341  H     0.71814   0.54044   0.69935   0.00000  Uiso   1.00
H1342  H     0.71322   0.48631   0.68193   0.00000  Uiso   1.00
H1343  H     0.98162   0.45738   0.80960   0.00000  Uiso   1.00
H1344  H     0.98718   0.50895   0.82327   0.00000  Uiso   1.00
H1345  H     0.92554   0.63376   0.67283   0.00000  Uiso   1.00
H1346  H     0.87892   0.61905   0.65340   0.00000  Uiso   1.00
H1347  H     0.91706   0.66293   0.63676   0.00000  Uiso   1.00
H1348  H     0.85364   0.35491   0.68266   0.00000  Uiso   1.00
H1349  H     0.89721   0.36616   0.70491   0.00000  Uiso   1.00
H1350  H     0.80673   0.49056   0.59786   0.00000  Uiso   1.00
H1351  H     0.76195   0.33796   0.80508   0.00000  Uiso   1.00
H1352  H     0.80460   0.34878   0.82387   0.00000  Uiso   1.00
H1353  H     0.76461   0.61763   0.98859   0.00000  Uiso   1.00
H1354  H     0.72619   0.62038   0.96136   0.00000  Uiso   1.00
H1355  H     0.71096   0.63054   0.51445   0.00000  Uiso   1.00
H1356  H     0.68170   0.55742   0.98973   0.00000  Uiso   1.00
H1357  H     0.71089   0.56231   0.52588   0.00000  Uiso   1.00
H1358  H     0.74687   0.58678   0.89955   0.00000  Uiso   1.00
H1359  H     0.70153   0.55664   0.92266   0.00000  Uiso   1.00
H1360  H     0.71652   0.39860   0.52631   0.00000  Uiso   1.00
H1361  H     0.92728   0.45072   0.59376   0.00000  Uiso   1.00
H1362  H     0.76604   0.38489   0.53137   0.00000  Uiso   1.00
H1363  H     0.71634   0.37629   0.57053   0.00000  Uiso   1.00
H1364  H     0.76171   0.43687   0.58947   0.00000  Uiso   1.00
H1365  H     0.71313   0.45149   0.58727   0.00000  Uiso   1.00
H1366  H     0.87505   0.40897   0.90981   0.00000  Uiso   1.00
H1367  H     0.90717   0.45389   0.89958   0.00000  Uiso   1.00
H1368  H     0.92249   0.42972   0.95969   0.00000  Uiso   1.00
H1369  H     0.85521   0.50232   0.90273   0.00000  Uiso   1.00
H1370  H     0.69092   0.50359   0.56436   0.00000  Uiso   1.00
H1371  H     0.68423   0.45951   0.53413   0.00000  Uiso   1.00
H1372  H     0.98792   0.49744   0.65314   0.00000  Uiso   1.00
H1373  H     0.99811   0.55312   0.66682   0.00000  Uiso   1.00
N1374  N     0.69842   0.49023   0.53482   0.00000  Uiso   1.00
N1375  N     0.97820   0.48647   0.80236   0.00000  Uiso   1.00
N1376  N     0.79354   0.66506   0.80091   0.00000  Uiso   1.00
N1377  N     0.73346   0.55638   0.90510   0.00000  Uiso   1.00
N1378  N     0.87581   0.44131   0.91368   0.00000  Uiso   1.00
O1379  O     0.83333   0.50000   0.75000   0.00000  Uiso   1.00
O1380  O     0.82360   0.45726   0.66625   0.00000  Uiso   1.00
O1381  O     0.79354   0.53979   0.83749   0.00000  Uiso   1.00
O1382  O     0.87755   0.50826   0.65877   0.00000  Uiso   1.00
O1383  O     0.83865   0.49468   0.83749   0.00000  Uiso   1.00
O1384  O     0.84515   0.41434   0.77821   0.00000  Uiso   1.00
O1385  O     0.81247   0.59469   0.76767   0.00000  Uiso   1.00
O1386  O     0.74119   0.46584   0.73607   0.00000  Uiso   1.00
O1387  O     0.93452   0.52512   0.71806   0.00000  Uiso   1.00
O1388  O     0.73656   0.52293   0.77820   0.00000  Uiso   1.00
O1389  O     0.92106   0.48610   0.76768   0.00000  Uiso   1.00
O1390  O     0.80467   0.40236   0.73607   0.00000  Uiso   1.00
O1391  O     0.87104   0.58860   0.71806   0.00000  Uiso   1.00
Zn1392 Zn    0.85910   0.47423   0.78278   0.00000  Uiso   1.00
Zn1393 Zn    0.80125   0.45711   0.72258   0.00000  Uiso   1.00
Zn1394 Zn    0.87833   0.52997   0.71188   0.00000  Uiso   1.00
Zn1395 Zn    0.79465   0.53868   0.78277   0.00000  Uiso   1.00
C1396  C     0.05269   0.82667   0.75923   0.00000  Uiso   1.00
C1397  C     0.19989   0.78751   0.95560   0.00000  Uiso   1.00
C1398  C     0.22649   0.77654   0.97632   0.00000  Uiso   1.00
C1399  C     0.28142   0.83910   0.74015   0.00000  Uiso   1.00
C1400  C     0.21640   0.78421   0.51773   0.00000  Uiso   1.00
C1401  C     0.17601   0.79771   0.53955   0.00000  Uiso   1.00
C1402  C     0.24631   0.77873   0.53757   0.00000  Uiso   1.00
C1403  C     0.23727   0.78838   0.57877   0.00000  Uiso   1.00
C1404  C     0.16835   0.80900   0.58086   0.00000  Uiso   1.00
C1405  C     0.32787   0.83747   0.73342   0.00000  Uiso   1.00
C1406  C     0.00748   0.82629   0.76346   0.00000  Uiso   1.00
C1407  C     0.09245   0.87240   0.92446   0.00000  Uiso   1.00
C1408  C     0.17835   0.98843   0.73438   0.00000  Uiso   1.00
C1409  C     0.15304   0.67956   0.76345   0.00000  Uiso   1.00
C1410  C     0.15580   0.72314   0.75950   0.00000  Uiso   1.00
C1411  C     0.17648   0.94436   0.74042   0.00000  Uiso   1.00
C1412  C     0.18812   0.81252   0.64371   0.00000  Uiso   1.00
C1413  C     0.14503   0.85398   0.85666   0.00000  Uiso   1.00
C1414  C     0.13118   0.85692   0.90109   0.00000  Uiso   1.00
C1415  C     0.19828   0.80349   0.60042   0.00000  Uiso   1.00
C1416  C     0.07903   0.86950   0.96643   0.00000  Uiso   1.00
C1417  C     0.02829   0.84698   0.69359   0.00000  Uiso   1.00
C1418  C     0.15605   0.84019   0.91993   0.00000  Uiso   1.00
C1419  C     0.01193   0.85634   0.65961   0.00000  Uiso   1.00
C1420  C     0.20751   0.67414   0.69629   0.00000  Uiso   1.00
C1421  C     0.23369   0.97862   0.66304   0.00000  Uiso   1.00
C1422  C     0.04761   0.89843   0.99410   0.00000  Uiso   1.00
C1423  C     0.06352   0.94437   0.98900   0.00000  Uiso   1.00
C1424  C     0.07735   0.77408   0.56826   0.00000  Uiso   1.00
C1425  C     0.06850   0.73090   0.54774   0.00000  Uiso   1.00
C1426  C     0.13909   0.82888   0.95922   0.00000  Uiso   1.00
C1427  C     0.09870   0.84205   0.98229   0.00000  Uiso   1.00
C1428  C     0.16216   0.80685   0.97701   0.00000  Uiso   1.00
C1429  C     0.14646   0.80362   0.51876   0.00000  Uiso   1.00
C1430  C     0.10152   0.80437   0.53721   0.00000  Uiso   1.00
C1431  C     0.07780   0.82463   0.51896   0.00000  Uiso   1.00
H1432  H     0.27694   0.76764   0.52111   0.00000  Uiso   1.00
H1433  H     0.03949   0.85904   0.63214   0.00000  Uiso   1.00
H1434  H     0.05148   0.87377   0.69935   0.00000  Uiso   1.00
H1435  H     0.04655   0.81965   0.68193   0.00000  Uiso   1.00
H1436  H     0.31495   0.79071   0.80960   0.00000  Uiso   1.00
H1437  H     0.32051   0.84228   0.82327   0.00000  Uiso   1.00
H1438  H     0.25887   0.96710   0.67283   0.00000  Uiso   1.00
H1439  H     0.21225   0.95239   0.65340   0.00000  Uiso   1.00
H1440  H     0.25039   0.99627   0.63676   0.00000  Uiso   1.00
H1441  H     0.18697   0.68824   0.68266   0.00000  Uiso   1.00
H1442  H     0.23054   0.69949   0.70491   0.00000  Uiso   1.00
H1443  H     0.14006   0.82389   0.59786   0.00000  Uiso   1.00
H1444  H     0.09528   0.67130   0.80508   0.00000  Uiso   1.00
H1445  H     0.13793   0.68211   0.82387   0.00000  Uiso   1.00
H1446  H     0.09794   0.95096   0.98859   0.00000  Uiso   1.00
H1447  H     0.05953   0.95371   0.96136   0.00000  Uiso   1.00
H1448  H     0.04429   0.96387   0.51445   0.00000  Uiso   1.00
H1449  H     0.01504   0.89075   0.98973   0.00000  Uiso   1.00
H1450  H     0.04422   0.89564   0.52588   0.00000  Uiso   1.00
H1451  H     0.08020   0.92012   0.89955   0.00000  Uiso   1.00
H1452  H     0.03486   0.88997   0.92266   0.00000  Uiso   1.00
H1453  H     0.04985   0.73194   0.52631   0.00000  Uiso   1.00
H1454  H     0.26062   0.78405   0.59376   0.00000  Uiso   1.00
H1455  H     0.09938   0.71822   0.53137   0.00000  Uiso   1.00
H1456  H     0.04968   0.70962   0.57053   0.00000  Uiso   1.00
H1457  H     0.09504   0.77020   0.58947   0.00000  Uiso   1.00
H1458  H     0.04647   0.78483   0.58727   0.00000  Uiso   1.00
H1459  H     0.20838   0.74230   0.90981   0.00000  Uiso   1.00
H1460  H     0.24050   0.78722   0.89958   0.00000  Uiso   1.00
H1461  H     0.25582   0.76305   0.95969   0.00000  Uiso   1.00
H1462  H     0.18854   0.83565   0.90273   0.00000  Uiso   1.00
H1463  H     0.02426   0.83692   0.56436   0.00000  Uiso   1.00
H1464  H     0.01756   0.79284   0.53413   0.00000  Uiso   1.00
H1465  H     0.32125   0.83077   0.65314   0.00000  Uiso   1.00
H1466  H     0.33144   0.88645   0.66682   0.00000  Uiso   1.00
N1467  N     0.03175   0.82356   0.53482   0.00000  Uiso   1.00
N1468  N     0.31154   0.81981   0.80236   0.00000  Uiso   1.00
N1469  N     0.12687   0.99839   0.80091   0.00000  Uiso   1.00
N1470  N     0.06679   0.88971   0.90510   0.00000  Uiso   1.00
N1471  N     0.20915   0.77465   0.91368   0.00000  Uiso   1.00
O1472  O     0.16667   0.83333   0.75000   0.00000  Uiso   1.00
O1473  O     0.15693   0.79060   0.66625   0.00000  Uiso   1.00
O1474  O     0.12687   0.87313   0.83749   0.00000  Uiso   1.00
O1475  O     0.21088   0.84159   0.65877   0.00000  Uiso   1.00
O1476  O     0.17198   0.82802   0.83749   0.00000  Uiso   1.00
O1477  O     0.17849   0.74768   0.77821   0.00000  Uiso   1.00
O1478  O     0.14581   0.92803   0.76767   0.00000  Uiso   1.00
O1479  O     0.07452   0.79917   0.73607   0.00000  Uiso   1.00
O1480  O     0.26785   0.85845   0.71806   0.00000  Uiso   1.00
O1481  O     0.06990   0.85627   0.77820   0.00000  Uiso   1.00
O1482  O     0.25440   0.81944   0.76768   0.00000  Uiso   1.00
O1483  O     0.13800   0.73570   0.73607   0.00000  Uiso   1.00
O1484  O     0.20437   0.92193   0.71806   0.00000  Uiso   1.00
Zn1485 Zn    0.19244   0.80756   0.78278   0.00000  Uiso   1.00
Zn1486 Zn    0.13459   0.79044   0.72258   0.00000  Uiso   1.00
Zn1487 Zn    0.21166   0.86331   0.71188   0.00000  Uiso   1.00
Zn1488 Zn    0.12798   0.87202   0.78277   0.00000  Uiso   1.00
C1489  C     0.38602   0.82667   0.75923   0.00000  Uiso   1.00
C1490  C     0.53322   0.78751   0.95560   0.00000  Uiso   1.00
C1491  C     0.55983   0.77654   0.97632   0.00000  Uiso   1.00
C1492  C     0.61475   0.83910   0.74015   0.00000  Uiso   1.00
C1493  C     0.54973   0.78421   0.51773   0.00000  Uiso   1.00
C1494  C     0.50934   0.79771   0.53955   0.00000  Uiso   1.00
C1495  C     0.57964   0.77873   0.53757   0.00000  Uiso   1.00
C1496  C     0.57060   0.78838   0.57877   0.00000  Uiso   1.00
C1497  C     0.50168   0.80900   0.58086   0.00000  Uiso   1.00
C1498  C     0.66120   0.83747   0.73342   0.00000  Uiso   1.00
C1499  C     0.34082   0.82629   0.76346   0.00000  Uiso   1.00
C1500  C     0.42578   0.87240   0.92446   0.00000  Uiso   1.00
C1501  C     0.51168   0.98843   0.73438   0.00000  Uiso   1.00
C1502  C     0.48637   0.67956   0.76345   0.00000  Uiso   1.00
C1503  C     0.48913   0.72314   0.75950   0.00000  Uiso   1.00
C1504  C     0.50981   0.94436   0.74042   0.00000  Uiso   1.00
C1505  C     0.52145   0.81252   0.64371   0.00000  Uiso   1.00
C1506  C     0.47836   0.85398   0.85666   0.00000  Uiso   1.00
C1507  C     0.46451   0.85692   0.90109   0.00000  Uiso   1.00
C1508  C     0.53161   0.80349   0.60042   0.00000  Uiso   1.00
C1509  C     0.41236   0.86950   0.96643   0.00000  Uiso   1.00
C1510  C     0.36163   0.84698   0.69359   0.00000  Uiso   1.00
C1511  C     0.48938   0.84019   0.91993   0.00000  Uiso   1.00
C1512  C     0.34527   0.85634   0.65961   0.00000  Uiso   1.00
C1513  C     0.54084   0.67414   0.69629   0.00000  Uiso   1.00
C1514  C     0.56702   0.97862   0.66304   0.00000  Uiso   1.00
C1515  C     0.38094   0.89843   0.99410   0.00000  Uiso   1.00
C1516  C     0.39686   0.94437   0.98900   0.00000  Uiso   1.00
C1517  C     0.41068   0.77408   0.56826   0.00000  Uiso   1.00
C1518  C     0.40183   0.73090   0.54774   0.00000  Uiso   1.00
C1519  C     0.47243   0.82888   0.95922   0.00000  Uiso   1.00
C1520  C     0.43203   0.84205   0.98229   0.00000  Uiso   1.00
C1521  C     0.49549   0.80685   0.97701   0.00000  Uiso   1.00
C1522  C     0.47980   0.80362   0.51876   0.00000  Uiso   1.00
C1523  C     0.43485   0.80437   0.53721   0.00000  Uiso   1.00
C1524  C     0.41113   0.82463   0.51896   0.00000  Uiso   1.00
H1525  H     0.61027   0.76764   0.52111   0.00000  Uiso   1.00
H1526  H     0.37282   0.85904   0.63214   0.00000  Uiso   1.00
H1527  H     0.38481   0.87377   0.69935   0.00000  Uiso   1.00
H1528  H     0.37988   0.81965   0.68193   0.00000  Uiso   1.00
H1529  H     0.64829   0.79071   0.80960   0.00000  Uiso   1.00
H1530  H     0.65385   0.84228   0.82327   0.00000  Uiso   1.00
H1531  H     0.59221   0.96710   0.67283   0.00000  Uiso   1.00
H1532  H     0.54558   0.95239   0.65340   0.00000  Uiso   1.00
H1533  H     0.58372   0.99627   0.63676   0.00000  Uiso   1.00
H1534  H     0.52030   0.68824   0.68266   0.00000  Uiso   1.00
H1535  H     0.56388   0.69949   0.70491   0.00000  Uiso   1.00
H1536  H     0.47340   0.82389   0.59786   0.00000  Uiso   1.00
H1537  H     0.42861   0.67130   0.80508   0.00000  Uiso   1.00
H1538  H     0.47127   0.68211   0.82387   0.00000  Uiso   1.00
H1539  H     0.43127   0.95096   0.98859   0.00000  Uiso   1.00
H1540  H     0.39286   0.95371   0.96136   0.00000  Uiso   1.00
H1541  H     0.37762   0.96387   0.51445   0.00000  Uiso   1.00
H1542  H     0.34837   0.89075   0.98973   0.00000  Uiso   1.00
H1543  H     0.37756   0.89564   0.52588   0.00000  Uiso   1.00
H1544  H     0.41354   0.92012   0.89955   0.00000  Uiso   1.00
H1545  H     0.36819   0.88997   0.92266   0.00000  Uiso   1.00
H1546  H     0.38318   0.73194   0.52631   0.00000  Uiso   1.00
H1547  H     0.59395   0.78405   0.59376   0.00000  Uiso   1.00
H1548  H     0.43271   0.71822   0.53137   0.00000  Uiso   1.00
H1549  H     0.38301   0.70962   0.57053   0.00000  Uiso   1.00
H1550  H     0.42838   0.77020   0.58947   0.00000  Uiso   1.00
H1551  H     0.37980   0.78483   0.58727   0.00000  Uiso   1.00
H1552  H     0.54172   0.74230   0.90981   0.00000  Uiso   1.00
H1553  H     0.57384   0.78722   0.89958   0.00000  Uiso   1.00
H1554  H     0.58915   0.76305   0.95969   0.00000  Uiso   1.00
H1555  H     0.52187   0.83565   0.90273   0.00000  Uiso   1.00
H1556  H     0.35759   0.83692   0.56436   0.00000  Uiso   1.00
H1557  H     0.35090   0.79284   0.53413   0.00000  Uiso   1.00
H1558  H     0.65459   0.83077   0.65314   0.00000  Uiso   1.00
H1559  H     0.66477   0.88645   0.66682   0.00000  Uiso   1.00
N1560  N     0.36508   0.82356   0.53482   0.00000  Uiso   1.00
N1561  N     0.64487   0.81981   0.80236   0.00000  Uiso   1.00
N1562  N     0.46021   0.99839   0.80091   0.00000  Uiso   1.00
N1563  N     0.40013   0.88971   0.90510   0.00000  Uiso   1.00
N1564  N     0.54248   0.77465   0.91368   0.00000  Uiso   1.00
O1565  O     0.50000   0.83333   0.75000   0.00000  Uiso   1.00
O1566  O     0.49027   0.79060   0.66625   0.00000  Uiso   1.00
O1567  O     0.46020   0.87313   0.83749   0.00000  Uiso   1.00
O1568  O     0.54421   0.84159   0.65877   0.00000  Uiso   1.00
O1569  O     0.50532   0.82802   0.83749   0.00000  Uiso   1.00
O1570  O     0.51182   0.74768   0.77821   0.00000  Uiso   1.00
O1571  O     0.47914   0.92803   0.76767   0.00000  Uiso   1.00
O1572  O     0.40785   0.79917   0.73607   0.00000  Uiso   1.00
O1573  O     0.60119   0.85845   0.71806   0.00000  Uiso   1.00
O1574  O     0.40323   0.85627   0.77820   0.00000  Uiso   1.00
O1575  O     0.58773   0.81944   0.76768   0.00000  Uiso   1.00
O1576  O     0.47133   0.73570   0.73607   0.00000  Uiso   1.00
O1577  O     0.53771   0.92193   0.71806   0.00000  Uiso   1.00
Zn1578 Zn    0.52577   0.80756   0.78278   0.00000  Uiso   1.00
Zn1579 Zn    0.46792   0.79044   0.72258   0.00000  Uiso   1.00
Zn1580 Zn    0.54500   0.86331   0.71188   0.00000  Uiso   1.00
Zn1581 Zn    0.46131   0.87202   0.78277   0.00000  Uiso   1.00
C1582  C     0.71935   0.82667   0.75923   0.00000  Uiso   1.00
C1583  C     0.86656   0.78751   0.95560   0.00000  Uiso   1.00
C1584  C     0.89316   0.77654   0.97632   0.00000  Uiso   1.00
C1585  C     0.94808   0.83910   0.74015   0.00000  Uiso   1.00
C1586  C     0.88307   0.78421   0.51773   0.00000  Uiso   1.00
C1587  C     0.84267   0.79771   0.53955   0.00000  Uiso   1.00
C1588  C     0.91298   0.77873   0.53757   0.00000  Uiso   1.00
C1589  C     0.90394   0.78838   0.57877   0.00000  Uiso   1.00
C1590  C     0.83501   0.80900   0.58086   0.00000  Uiso   1.00
C1591  C     0.99454   0.83747   0.73342   0.00000  Uiso   1.00
C1592  C     0.67415   0.82629   0.76346   0.00000  Uiso   1.00
C1593  C     0.75911   0.87240   0.92446   0.00000  Uiso   1.00
C1594  C     0.84501   0.98843   0.73438   0.00000  Uiso   1.00
C1595  C     0.81971   0.67956   0.76345   0.00000  Uiso   1.00
C1596  C     0.82247   0.72314   0.75950   0.00000  Uiso   1.00
C1597  C     0.84315   0.94436   0.74042   0.00000  Uiso   1.00
C1598  C     0.85479   0.81252   0.64371   0.00000  Uiso   1.00
C1599  C     0.81170   0.85398   0.85666   0.00000  Uiso   1.00
C1600  C     0.79785   0.85692   0.90109   0.00000  Uiso   1.00
C1601  C     0.86494   0.80349   0.60042   0.00000  Uiso   1.00
C1602  C     0.74570   0.86950   0.96643   0.00000  Uiso   1.00
C1603  C     0.69496   0.84698   0.69359   0.00000  Uiso   1.00
C1604  C     0.82272   0.84019   0.91993   0.00000  Uiso   1.00
C1605  C     0.67860   0.85634   0.65961   0.00000  Uiso   1.00
C1606  C     0.87418   0.67414   0.69629   0.00000  Uiso   1.00
C1607  C     0.90035   0.97862   0.66304   0.00000  Uiso   1.00
C1608  C     0.71427   0.89843   0.99410   0.00000  Uiso   1.00
C1609  C     0.73019   0.94437   0.98900   0.00000  Uiso   1.00
C1610  C     0.74401   0.77408   0.56826   0.00000  Uiso   1.00
C1611  C     0.73517   0.73090   0.54774   0.00000  Uiso   1.00
C1612  C     0.80576   0.82888   0.95922   0.00000  Uiso   1.00
C1613  C     0.76537   0.84205   0.98229   0.00000  Uiso   1.00
C1614  C     0.82883   0.80685   0.97701   0.00000  Uiso   1.00
C1615  C     0.81313   0.80362   0.51876   0.00000  Uiso   1.00
C1616  C     0.76819   0.80437   0.53721   0.00000  Uiso   1.00
C1617  C     0.74447   0.82463   0.51896   0.00000  Uiso   1.00
H1618  H     0.94361   0.76764   0.52111   0.00000  Uiso   1.00
H1619  H     0.70615   0.85904   0.63214   0.00000  Uiso   1.00
H1620  H     0.71814   0.87377   0.69935   0.00000  Uiso   1.00
H1621  H     0.71322   0.81965   0.68193   0.00000  Uiso   1.00
H1622  H     0.98162   0.79071   0.80960   0.00000  Uiso   1.00
H1623  H     0.98718   0.84228   0.82327   0.00000  Uiso   1.00
H1624  H     0.92554   0.96710   0.67283   0.00000  Uiso   1.00
H1625  H     0.87892   0.95239   0.65340   0.00000  Uiso   1.00
H1626  H     0.91706   0.99627   0.63676   0.00000  Uiso   1.00
H1627  H     0.85364   0.68824   0.68266   0.00000  Uiso   1.00
H1628  H     0.89721   0.69949   0.70491   0.00000  Uiso   1.00
H1629  H     0.80673   0.82389   0.59786   0.00000  Uiso   1.00
H1630  H     0.76195   0.67130   0.80508   0.00000  Uiso   1.00
H1631  H     0.80460   0.68211   0.82387   0.00000  Uiso   1.00
H1632  H     0.76461   0.95096   0.98859   0.00000  Uiso   1.00
H1633  H     0.72619   0.95371   0.96136   0.00000  Uiso   1.00
H1634  H     0.71096   0.96387   0.51445   0.00000  Uiso   1.00
H1635  H     0.68170   0.89075   0.98973   0.00000  Uiso   1.00
H1636  H     0.71089   0.89564   0.52588   0.00000  Uiso   1.00
H1637  H     0.74687   0.92012   0.89955   0.00000  Uiso   1.00
H1638  H     0.70153   0.88997   0.92266   0.00000  Uiso   1.00
H1639  H     0.71652   0.73194   0.52631   0.00000  Uiso   1.00
H1640  H     0.92728   0.78405   0.59376   0.00000  Uiso   1.00
H1641  H     0.76604   0.71822   0.53137   0.00000  Uiso   1.00
H1642  H     0.71634   0.70962   0.57053   0.00000  Uiso   1.00
H1643  H     0.76171   0.77020   0.58947   0.00000  Uiso   1.00
H1644  H     0.71313   0.78483   0.58727   0.00000  Uiso   1.00
H1645  H     0.87505   0.74230   0.90981   0.00000  Uiso   1.00
H1646  H     0.90717   0.78722   0.89958   0.00000  Uiso   1.00
H1647  H     0.92249   0.76305   0.95969   0.00000  Uiso   1.00
H1648  H     0.85521   0.83565   0.90273   0.00000  Uiso   1.00
H1649  H     0.69092   0.83692   0.56436   0.00000  Uiso   1.00
H1650  H     0.68423   0.79284   0.53413   0.00000  Uiso   1.00
H1651  H     0.98792   0.83077   0.65314   0.00000  Uiso   1.00
H1652  H     0.99811   0.88645   0.66682   0.00000  Uiso   1.00
N1653  N     0.69842   0.82356   0.53482   0.00000  Uiso   1.00
N1654  N     0.97820   0.81981   0.80236   0.00000  Uiso   1.00
N1655  N     0.79354   0.99839   0.80091   0.00000  Uiso   1.00
N1656  N     0.73346   0.88971   0.90510   0.00000  Uiso   1.00
N1657  N     0.87581   0.77465   0.91368   0.00000  Uiso   1.00
O1658  O     0.83333   0.83333   0.75000   0.00000  Uiso   1.00
O1659  O     0.82360   0.79060   0.66625   0.00000  Uiso   1.00
O1660  O     0.79354   0.87313   0.83749   0.00000  Uiso   1.00
O1661  O     0.87755   0.84159   0.65877   0.00000  Uiso   1.00
O1662  O     0.83865   0.82802   0.83749   0.00000  Uiso   1.00
O1663  O     0.84515   0.74768   0.77821   0.00000  Uiso   1.00
O1664  O     0.81247   0.92803   0.76767   0.00000  Uiso   1.00
O1665  O     0.74119   0.79917   0.73607   0.00000  Uiso   1.00
O1666  O     0.93452   0.85845   0.71806   0.00000  Uiso   1.00
O1667  O     0.73656   0.85627   0.77820   0.00000  Uiso   1.00
O1668  O     0.92106   0.81944   0.76768   0.00000  Uiso   1.00
O1669  O     0.80467   0.73570   0.73607   0.00000  Uiso   1.00
O1670  O     0.87104   0.92193   0.71806   0.00000  Uiso   1.00
Zn1671 Zn    0.85910   0.80756   0.78278   0.00000  Uiso   1.00
Zn1672 Zn    0.80125   0.79044   0.72258   0.00000  Uiso   1.00
Zn1673 Zn    0.87833   0.86331   0.71188   0.00000  Uiso   1.00
Zn1674 Zn    0.79465   0.87202   0.78277   0.00000  Uiso   1.00
loop_
_geom_bond_atom_site_label_1
_geom_bond_atom_site_label_2
_geom_bond_distance
_geom_bond_site_symmetry_2
_ccdc_geom_bond_type
C1     C11     1.439   .     S
C1     O84     1.276   .     A
C1     O86     1.263   .     A
C2     C33     1.427   .     A
C2     N76     1.433   .     S
C2     C3      1.399   .     A
C3     H66     1.085   .     S
C3     C842    1.393   .     S
C4     O87     1.273   .     A
C4     O85     1.272   .     A
C4     C10     1.474   .     S
C5     C6      1.416   .     A
C5     C7      1.403   .     A
C5     C840    1.393   1_554 S
C6     C9      1.408   .     A
C6     C34     1.422   .     A
C7     C8      1.394   .     A
C7     H37     1.084   .     S
C8     C20     1.398   .     A
C8     H59     1.084   .     S
C9     C20     1.397   .     A
C9     H48     1.084   .     S
C10    C104    1.359   .     S
C10    C115    1.540   .     S
C11    C196    1.359   1_455 S
C11    N259    1.439   1_455 S
C12    C21     1.422   .     A
C12    C19     1.411   .     A
C12    N75     1.438   .     S
C13    C16     1.473   .     S
C13    C293    1.357   .     S
C13    C304    1.542   .     S
C14    C15     1.437   .     S
C14    C571    1.357   1_545 S
C14    N632    1.438   1_545 S
C15    O82     1.268   .     A
C15    O88     1.278   .     A
C16    O89     1.266   .     A
C16    O83     1.271   .     A
C17    C20     1.459   .     S
C17    O78     1.280   .     A
C17    O80     1.280   .     A
C18    O81     1.290   .     A
C18    O79     1.288   .     A
C18    C19     1.487   .     S
C19    C23     1.396   .     A
C21    C27     1.530   .     S
C21    C32     1.430   .     A
C22    H40     1.111   .     S
C22    C24     1.529   .     S
C22    H39     1.112   .     S
C22    C196    1.540   1_455 S
C23    H67     1.075   .     S
C23    C31     1.405   .     A
C24    H38     1.111   .     S
C24    H256    1.111   1_455 S
C24    H257    1.110   1_455 S
C25    H47     1.112   .     S
C25    H46     1.111   .     S
C25    C571    1.542   1_545 S
C25    C584    1.529   1_545 S
C26    H45     1.111   .     S
C26    H43     1.110   .     S
C26    H44     1.111   .     S
C26    C304    1.529   .     S
C27    H54     1.110   .     S
C27    C28     1.532   .     S
C27    H892    1.106   .     S
C28    H51     1.111   .     S
C28    H52     1.106   .     S
C28    H890    1.111   .     S
C29    H63     1.108   .     S
C29    C30     1.529   .     S
C29    H62     1.102   .     S
C29    C35     1.530   .     S
C30    H60     1.111   .     S
C30    H58     1.110   .     S
C30    H61     1.111   .     S
C31    C33     1.428   .     A
C31    C32     1.422   .     A
C32    C873    1.418   .     S
C33    C871    1.418   .     S
C34    C35     1.421   .     A
C34    C870    1.418   1_554 S
C35    C36     1.419   .     A
C36    N72     1.438   .     S
C36    C869    1.418   1_554 S
H41    N73     1.046   .     S
H42    N73     1.046   .     S
H49    N632    1.046   1_545 S
H50    N632    1.046   1_545 S
H53    C865    1.111   1_554 S
H55    C864    1.106   1_554 S
H56    N75     1.045   .     S
H57    N75     1.043   .     S
H64    N76     1.046   .     S
H65    N76     1.046   .     S
H68    N72     1.045   .     S
H69    N72     1.044   .     S
H70    C117    1.111   .     S
H71    C117    1.110   .     S
N73    C104    1.439   .     S
N74    C293    1.438   .     S
N74    H328    1.046   .     S
N74    H329    1.046   .     S
O77    Zn92    1.917   .     S
O77    Zn90    1.948   .     S
O77    Zn91    1.955   .     S
O77    Zn93    1.934   .     S
O78    Zn91    1.898   .     S
O79    Zn93    1.912   .     S
O80    Zn92    1.918   .     S
O81    Zn90    1.905   .     S
O82    Zn90    1.941   .     S
O83    Zn93    1.933   .     S
O84    Zn91    1.933   .     S
O85    Zn92    1.945   .     S
O86    Zn93    1.944   .     S
O87    Zn90    1.929   .     S
O88    Zn91    1.937   .     S
O89    Zn92    1.941   .     S
C94    C104    1.439   .     S
C94    O177    1.276   .     A
C94    O179    1.263   .     A
C95    C126    1.427   .     A
C95    N169    1.433   .     S
C95    C96     1.399   .     A
C96    H159    1.085   .     S
C96    C935    1.393   .     S
C97    O180    1.273   .     A
C97    O178    1.272   .     A
C97    C103    1.474   .     S
C98    C99     1.416   .     A
C98    C100    1.403   .     A
C98    C933    1.393   1_554 S
C99    C102    1.408   .     A
C99    C127    1.422   .     A
C100   C101    1.394   .     A
C100   H130    1.084   .     S
C101   C113    1.398   .     A
C101   H152    1.084   .     S
C102   C113    1.397   .     A
C102   H141    1.084   .     S
C103   C197    1.359   .     S
C103   C208    1.540   .     S
C105   C114    1.422   .     A
C105   C112    1.411   .     A
C105   N168    1.438   .     S
C106   C109    1.473   .     S
C106   C386    1.357   .     S
C106   C397    1.542   .     S
C107   C108    1.437   .     S
C107   C664    1.357   1_545 S
C107   N725    1.438   1_545 S
C108   O175    1.268   .     A
C108   O181    1.278   .     A
C109   O182    1.266   .     A
C109   O176    1.271   .     A
C110   C113    1.459   .     S
C110   O171    1.280   .     A
C110   O173    1.280   .     A
C111   O174    1.290   .     A
C111   O172    1.288   .     A
C111   C112    1.487   .     S
C112   C116    1.396   .     A
C114   C120    1.530   .     S
C114   C125    1.430   .     A
C115   H133    1.111   .     S
C115   C117    1.529   .     S
C115   H132    1.112   .     S
C116   H160    1.075   .     S
C116   C124    1.405   .     A
C117   H131    1.111   .     S
C118   H140    1.112   .     S
C118   H139    1.111   .     S
C118   C664    1.542   1_545 S
C118   C677    1.529   1_545 S
C119   H138    1.111   .     S
C119   H136    1.110   .     S
C119   H137    1.111   .     S
C119   C397    1.529   .     S
C120   H147    1.110   .     S
C120   C121    1.532   .     S
C120   H985    1.106   .     S
C121   H144    1.111   .     S
C121   H145    1.106   .     S
C121   H983    1.111   .     S
C122   H156    1.108   .     S
C122   C123    1.529   .     S
C122   H155    1.102   .     S
C122   C128    1.530   .     S
C123   H153    1.111   .     S
C123   H151    1.110   .     S
C123   H154    1.111   .     S
C124   C126    1.428   .     A
C124   C125    1.422   .     A
C125   C966    1.418   .     S
C126   C964    1.418   .     S
C127   C128    1.421   .     A
C127   C963    1.418   1_554 S
C128   C129    1.419   .     A
C129   N165    1.438   .     S
C129   C962    1.418   1_554 S
H134   N166    1.046   .     S
H135   N166    1.046   .     S
H142   N725    1.046   1_545 S
H143   N725    1.046   1_545 S
H146   C958    1.111   1_554 S
H148   C957    1.106   1_554 S
H149   N168    1.045   .     S
H150   N168    1.043   .     S
H157   N169    1.046   .     S
H158   N169    1.046   .     S
H161   N165    1.045   .     S
H162   N165    1.044   .     S
H163   C210    1.111   .     S
H164   C210    1.110   .     S
N166   C197    1.439   .     S
N167   C386    1.438   .     S
N167   H421    1.046   .     S
N167   H422    1.046   .     S
O170   Zn185   1.917   .     S
O170   Zn183   1.948   .     S
O170   Zn184   1.955   .     S
O170   Zn186   1.934   .     S
O171   Zn184   1.898   .     S
O172   Zn186   1.912   .     S
O173   Zn185   1.918   .     S
O174   Zn183   1.905   .     S
O175   Zn183   1.941   .     S
O176   Zn186   1.933   .     S
O177   Zn184   1.933   .     S
O178   Zn185   1.945   .     S
O179   Zn186   1.944   .     S
O180   Zn183   1.929   .     S
O181   Zn184   1.937   .     S
O182   Zn185   1.941   .     S
C187   C197    1.439   .     S
C187   O270    1.276   .     A
C187   O272    1.263   .     A
C188   C219    1.427   .     A
C188   N262    1.433   .     S
C188   C189    1.399   .     A
C189   H252    1.085   .     S
C189   C1028   1.393   .     S
C190   O273    1.273   .     A
C190   O271    1.272   .     A
C190   C196    1.474   .     S
C191   C192    1.416   .     A
C191   C193    1.403   .     A
C191   C1026   1.393   1_554 S
C192   C195    1.408   .     A
C192   C220    1.422   .     A
C193   C194    1.394   .     A
C193   H223    1.084   .     S
C194   C206    1.398   .     A
C194   H245    1.084   .     S
C195   C206    1.397   .     A
C195   H234    1.084   .     S
C196   C11     1.359   1_655 S
C196   C22     1.540   1_655 S
C198   C207    1.422   .     A
C198   C205    1.411   .     A
C198   N261    1.438   .     S
C199   C202    1.473   .     S
C199   C479    1.357   .     S
C199   C490    1.542   .     S
C200   C201    1.437   .     S
C200   C757    1.357   1_545 S
C200   N818    1.438   1_545 S
C201   O268    1.268   .     A
C201   O274    1.278   .     A
C202   O275    1.266   .     A
C202   O269    1.271   .     A
C203   C206    1.459   .     S
C203   O264    1.280   .     A
C203   O266    1.280   .     A
C204   O267    1.290   .     A
C204   O265    1.288   .     A
C204   C205    1.487   .     S
C205   C209    1.396   .     A
C207   C213    1.530   .     S
C207   C218    1.430   .     A
C208   H226    1.111   .     S
C208   C210    1.529   .     S
C208   H225    1.112   .     S
C209   H253    1.075   .     S
C209   C217    1.405   .     A
C210   H224    1.111   .     S
C211   H233    1.112   .     S
C211   H232    1.111   .     S
C211   C757    1.542   1_545 S
C211   C770    1.529   1_545 S
C212   H231    1.111   .     S
C212   H229    1.110   .     S
C212   H230    1.111   .     S
C212   C490    1.529   .     S
C213   H240    1.110   .     S
C213   C214    1.532   .     S
C213   H1078   1.106   .     S
C214   H237    1.111   .     S
C214   H238    1.106   .     S
C214   H1076   1.111   .     S
C215   H249    1.108   .     S
C215   C216    1.529   .     S
C215   H248    1.102   .     S
C215   C221    1.530   .     S
C216   H246    1.111   .     S
C216   H244    1.110   .     S
C216   H247    1.111   .     S
C217   C219    1.428   .     A
C217   C218    1.422   .     A
C218   C1059   1.418   .     S
C219   C1057   1.418   .     S
C220   C221    1.421   .     A
C220   C1056   1.418   1_554 S
C221   C222    1.419   .     A
C222   N258    1.438   .     S
C222   C1055   1.418   1_554 S
H227   N259    1.046   .     S
H228   N259    1.046   .     S
H235   N818    1.046   1_545 S
H236   N818    1.046   1_545 S
H239   C1051   1.111   1_554 S
H241   C1050   1.106   1_554 S
H242   N261    1.045   .     S
H243   N261    1.043   .     S
H250   N262    1.046   .     S
H251   N262    1.046   .     S
H254   N258    1.045   .     S
H255   N258    1.044   .     S
H256   C24     1.111   1_655 S
H257   C24     1.110   1_655 S
N259   C11     1.439   1_655 S
N260   C479    1.438   .     S
N260   H514    1.046   .     S
N260   H515    1.046   .     S
O263   Zn278   1.917   .     S
O263   Zn276   1.948   .     S
O263   Zn277   1.955   .     S
O263   Zn279   1.934   .     S
O264   Zn277   1.898   .     S
O265   Zn279   1.912   .     S
O266   Zn278   1.918   .     S
O267   Zn276   1.905   .     S
O268   Zn276   1.941   .     S
O269   Zn279   1.933   .     S
O270   Zn277   1.933   .     S
O271   Zn278   1.945   .     S
O272   Zn279   1.944   .     S
O273   Zn276   1.929   .     S
O274   Zn277   1.937   .     S
O275   Zn278   1.941   .     S
C280   C290    1.439   .     S
C280   O363    1.276   .     A
C280   O365    1.263   .     A
C281   C312    1.427   .     A
C281   N355    1.433   .     S
C281   C282    1.399   .     A
C282   H345    1.085   .     S
C282   C1121   1.393   .     S
C283   O366    1.273   .     A
C283   O364    1.272   .     A
C283   C289    1.474   .     S
C284   C285    1.416   .     A
C284   C286    1.403   .     A
C284   C1119   1.393   1_554 S
C285   C288    1.408   .     A
C285   C313    1.422   .     A
C286   C287    1.394   .     A
C286   H316    1.084   .     S
C287   C299    1.398   .     A
C287   H338    1.084   .     S
C288   C299    1.397   .     A
C288   H327    1.084   .     S
C289   C383    1.359   .     S
C289   C394    1.540   .     S
C290   C475    1.359   1_455 S
C290   N538    1.439   1_455 S
C291   C300    1.422   .     A
C291   C298    1.411   .     A
C291   N354    1.438   .     S
C292   C295    1.473   .     S
C292   C572    1.357   .     S
C292   C583    1.542   .     S
C293   C294    1.437   .     S
C294   O361    1.268   .     A
C294   O367    1.278   .     A
C295   O368    1.266   .     A
C295   O362    1.271   .     A
C296   C299    1.459   .     S
C296   O357    1.280   .     A
C296   O359    1.280   .     A
C297   O360    1.290   .     A
C297   O358    1.288   .     A
C297   C298    1.487   .     S
C298   C302    1.396   .     A
C300   C306    1.530   .     S
C300   C311    1.430   .     A
C301   H319    1.111   .     S
C301   C303    1.529   .     S
C301   H318    1.112   .     S
C301   C475    1.540   1_455 S
C302   H346    1.075   .     S
C302   C310    1.405   .     A
C303   H317    1.111   .     S
C303   H535    1.111   1_455 S
C303   H536    1.110   1_455 S
C304   H326    1.112   .     S
C304   H325    1.111   .     S
C305   H324    1.111   .     S
C305   H322    1.110   .     S
C305   H323    1.111   .     S
C305   C583    1.529   .     S
C306   H333    1.110   .     S
C306   C307    1.532   .     S
C306   H1171   1.106   .     S
C307   H330    1.111   .     S
C307   H331    1.106   .     S
C307   H1169   1.111   .     S
C308   H342    1.108   .     S
C308   C309    1.529   .     S
C308   H341    1.102   .     S
C308   C314    1.530   .     S
C309   H339    1.111   .     S
C309   H337    1.110   .     S
C309   H340    1.111   .     S
C310   C312    1.428   .     A
C310   C311    1.422   .     A
C311   C1152   1.418   .     S
C312   C1150   1.418   .     S
C313   C314    1.421   .     A
C313   C1149   1.418   1_554 S
C314   C315    1.419   .     A
C315   N351    1.438   .     S
C315   C1148   1.418   1_554 S
H320   N352    1.046   .     S
H321   N352    1.046   .     S
H332   C1144   1.111   1_554 S
H334   C1143   1.106   1_554 S
H335   N354    1.045   .     S
H336   N354    1.043   .     S
H343   N355    1.046   .     S
H344   N355    1.046   .     S
H347   N351    1.045   .     S
H348   N351    1.044   .     S
H349   C396    1.111   .     S
H350   C396    1.110   .     S
N352   C383    1.439   .     S
N353   C572    1.438   .     S
N353   H607    1.046   .     S
N353   H608    1.046   .     S
O356   Zn371   1.917   .     S
O356   Zn369   1.948   .     S
O356   Zn370   1.955   .     S
O356   Zn372   1.934   .     S
O357   Zn370   1.898   .     S
O358   Zn372   1.912   .     S
O359   Zn371   1.918   .     S
O360   Zn369   1.905   .     S
O361   Zn369   1.941   .     S
O362   Zn372   1.933   .     S
O363   Zn370   1.933   .     S
O364   Zn371   1.945   .     S
O365   Zn372   1.944   .     S
O366   Zn369   1.929   .     S
O367   Zn370   1.937   .     S
O368   Zn371   1.941   .     S
C373   C383    1.439   .     S
C373   O456    1.276   .     A
C373   O458    1.263   .     A
C374   C405    1.427   .     A
C374   N448    1.433   .     S
C374   C375    1.399   .     A
C375   H438    1.085   .     S
C375   C1214   1.393   .     S
C376   O459    1.273   .     A
C376   O457    1.272   .     A
C376   C382    1.474   .     S
C377   C378    1.416   .     A
C377   C379    1.403   .     A
C377   C1212   1.393   1_554 S
C378   C381    1.408   .     A
C378   C406    1.422   .     A
C379   C380    1.394   .     A
C379   H409    1.084   .     S
C380   C392    1.398   .     A
C380   H431    1.084   .     S
C381   C392    1.397   .     A
C381   H420    1.084   .     S
C382   C476    1.359   .     S
C382   C487    1.540   .     S
C384   C393    1.422   .     A
C384   C391    1.411   .     A
C384   N447    1.438   .     S
C385   C388    1.473   .     S
C385   C665    1.357   .     S
C385   C676    1.542   .     S
C386   C387    1.437   .     S
C387   O454    1.268   .     A
C387   O460    1.278   .     A
C388   O461    1.266   .     A
C388   O455    1.271   .     A
C389   C392    1.459   .     S
C389   O450    1.280   .     A
C389   O452    1.280   .     A
C390   O453    1.290   .     A
C390   O451    1.288   .     A
C390   C391    1.487   .     S
C391   C395    1.396   .     A
C393   C399    1.530   .     S
C393   C404    1.430   .     A
C394   H412    1.111   .     S
C394   C396    1.529   .     S
C394   H411    1.112   .     S
C395   H439    1.075   .     S
C395   C403    1.405   .     A
C396   H410    1.111   .     S
C397   H419    1.112   .     S
C397   H418    1.111   .     S
C398   H417    1.111   .     S
C398   H415    1.110   .     S
C398   H416    1.111   .     S
C398   C676    1.529   .     S
C399   H426    1.110   .     S
C399   C400    1.532   .     S
C399   H1264   1.106   .     S
C400   H423    1.111   .     S
C400   H424    1.106   .     S
C400   H1262   1.111   .     S
C401   H435    1.108   .     S
C401   C402    1.529   .     S
C401   H434    1.102   .     S
C401   C407    1.530   .     S
C402   H432    1.111   .     S
C402   H430    1.110   .     S
C402   H433    1.111   .     S
C403   C405    1.428   .     A
C403   C404    1.422   .     A
C404   C1245   1.418   .     S
C405   C1243   1.418   .     S
C406   C407    1.421   .     A
C406   C1242   1.418   1_554 S
C407   C408    1.419   .     A
C408   N444    1.438   .     S
C408   C1241   1.418   1_554 S
H413   N445    1.046   .     S
H414   N445    1.046   .     S
H425   C1237   1.111   1_554 S
H427   C1236   1.106   1_554 S
H428   N447    1.045   .     S
H429   N447    1.043   .     S
H436   N448    1.046   .     S
H437   N448    1.046   .     S
H440   N444    1.045   .     S
H441   N444    1.044   .     S
H442   C489    1.111   .     S
H443   C489    1.110   .     S
N445   C476    1.439   .     S
N446   C665    1.438   .     S
N446   H700    1.046   .     S
N446   H701    1.046   .     S
O449   Zn464   1.917   .     S
O449   Zn462   1.948   .     S
O449   Zn463   1.955   .     S
O449   Zn465   1.934   .     S
O450   Zn463   1.898   .     S
O451   Zn465   1.912   .     S
O452   Zn464   1.918   .     S
O453   Zn462   1.905   .     S
O454   Zn462   1.941   .     S
O455   Zn465   1.933   .     S
O456   Zn463   1.933   .     S
O457   Zn464   1.945   .     S
O458   Zn465   1.944   .     S
O459   Zn462   1.929   .     S
O460   Zn463   1.937   .     S
O461   Zn464   1.941   .     S
C466   C476    1.439   .     S
C466   O549    1.276   .     A
C466   O551    1.263   .     A
C467   C498    1.427   .     A
C467   N541    1.433   .     S
C467   C468    1.399   .     A
C468   H531    1.085   .     S
C468   C1307   1.393   .     S
C469   O552    1.273   .     A
C469   O550    1.272   .     A
C469   C475    1.474   .     S
C470   C471    1.416   .     A
C470   C472    1.403   .     A
C470   C1305   1.393   1_554 S
C471   C474    1.408   .     A
C471   C499    1.422   .     A
C472   C473    1.394   .     A
C472   H502    1.084   .     S
C473   C485    1.398   .     A
C473   H524    1.084   .     S
C474   C485    1.397   .     A
C474   H513    1.084   .     S
C475   C290    1.359   1_655 S
C475   C301    1.540   1_655 S
C477   C486    1.422   .     A
C477   C484    1.411   .     A
C477   N540    1.438   .     S
C478   C481    1.473   .     S
C478   C758    1.357   .     S
C478   C769    1.542   .     S
C479   C480    1.437   .     S
C480   O547    1.268   .     A
C480   O553    1.278   .     A
C481   O554    1.266   .     A
C481   O548    1.271   .     A
C482   C485    1.459   .     S
C482   O543    1.280   .     A
C482   O545    1.280   .     A
C483   O546    1.290   .     A
C483   O544    1.288   .     A
C483   C484    1.487   .     S
C484   C488    1.396   .     A
C486   C492    1.530   .     S
C486   C497    1.430   .     A
C487   H505    1.111   .     S
C487   C489    1.529   .     S
C487   H504    1.112   .     S
C488   H532    1.075   .     S
C488   C496    1.405   .     A
C489   H503    1.111   .     S
C490   H512    1.112   .     S
C490   H511    1.111   .     S
C491   H510    1.111   .     S
C491   H508    1.110   .     S
C491   H509    1.111   .     S
C491   C769    1.529   .     S
C492   H519    1.110   .     S
C492   C493    1.532   .     S
C492   H1357   1.106   .     S
C493   H516    1.111   .     S
C493   H517    1.106   .     S
C493   H1355   1.111   .     S
C494   H528    1.108   .     S
C494   C495    1.529   .     S
C494   H527    1.102   .     S
C494   C500    1.530   .     S
C495   H525    1.111   .     S
C495   H523    1.110   .     S
C495   H526    1.111   .     S
C496   C498    1.428   .     A
C496   C497    1.422   .     A
C497   C1338   1.418   .     S
C498   C1336   1.418   .     S
C499   C500    1.421   .     A
C499   C1335   1.418   1_554 S
C500   C501    1.419   .     A
C501   N537    1.438   .     S
C501   C1334   1.418   1_554 S
H506   N538    1.046   .     S
H507   N538    1.046   .     S
H518   C1330   1.111   1_554 S
H520   C1329   1.106   1_554 S
H521   N540    1.045   .     S
H522   N540    1.043   .     S
H529   N541    1.046   .     S
H530   N541    1.046   .     S
H533   N537    1.045   .     S
H534   N537    1.044   .     S
H535   C303    1.111   1_655 S
H536   C303    1.110   1_655 S
N538   C290    1.439   1_655 S
N539   C758    1.438   .     S
N539   H793    1.046   .     S
N539   H794    1.046   .     S
O542   Zn557   1.917   .     S
O542   Zn555   1.948   .     S
O542   Zn556   1.955   .     S
O542   Zn558   1.934   .     S
O543   Zn556   1.898   .     S
O544   Zn558   1.912   .     S
O545   Zn557   1.918   .     S
O546   Zn555   1.905   .     S
O547   Zn555   1.941   .     S
O548   Zn558   1.933   .     S
O549   Zn556   1.933   .     S
O550   Zn557   1.945   .     S
O551   Zn558   1.944   .     S
O552   Zn555   1.929   .     S
O553   Zn556   1.937   .     S
O554   Zn557   1.941   .     S
C559   C569    1.439   .     S
C559   O642    1.276   .     A
C559   O644    1.263   .     A
C560   C591    1.427   .     A
C560   N634    1.433   .     S
C560   C561    1.399   .     A
C561   H624    1.085   .     S
C561   C1400   1.393   .     S
C562   O645    1.273   .     A
C562   O643    1.272   .     A
C562   C568    1.474   .     S
C563   C564    1.416   .     A
C563   C565    1.403   .     A
C563   C1398   1.393   1_554 S
C564   C567    1.408   .     A
C564   C592    1.422   .     A
C565   C566    1.394   .     A
C565   H595    1.084   .     S
C566   C578    1.398   .     A
C566   H617    1.084   .     S
C567   C578    1.397   .     A
C567   H606    1.084   .     S
C568   C662    1.359   .     S
C568   C673    1.540   .     S
C569   C754    1.359   1_455 S
C569   N817    1.439   1_455 S
C570   C579    1.422   .     A
C570   C577    1.411   .     A
C570   N633    1.438   .     S
C571   C574    1.473   .     S
C571   C14     1.357   1_565 S
C571   C25     1.542   1_565 S
C572   C573    1.437   .     S
C573   O640    1.268   .     A
C573   O646    1.278   .     A
C574   O647    1.266   .     A
C574   O641    1.271   .     A
C575   C578    1.459   .     S
C575   O636    1.280   .     A
C575   O638    1.280   .     A
C576   O639    1.290   .     A
C576   O637    1.288   .     A
C576   C577    1.487   .     S
C577   C581    1.396   .     A
C579   C585    1.530   .     S
C579   C590    1.430   .     A
C580   H598    1.111   .     S
C580   C582    1.529   .     S
C580   H597    1.112   .     S
C580   C754    1.540   1_455 S
C581   H625    1.075   .     S
C581   C589    1.405   .     A
C582   H596    1.111   .     S
C582   H814    1.111   1_455 S
C582   H815    1.110   1_455 S
C583   H605    1.112   .     S
C583   H604    1.111   .     S
C584   H603    1.111   .     S
C584   H601    1.110   .     S
C584   H602    1.111   .     S
C584   C25     1.529   1_565 S
C585   H612    1.110   .     S
C585   C586    1.532   .     S
C585   H1450   1.106   .     S
C586   H609    1.111   .     S
C586   H610    1.106   .     S
C586   H1448   1.111   .     S
C587   H621    1.108   .     S
C587   C588    1.529   .     S
C587   H620    1.102   .     S
C587   C593    1.530   .     S
C588   H618    1.111   .     S
C588   H616    1.110   .     S
C588   H619    1.111   .     S
C589   C591    1.428   .     A
C589   C590    1.422   .     A
C590   C1431   1.418   .     S
C591   C1429   1.418   .     S
C592   C593    1.421   .     A
C592   C1428   1.418   1_554 S
C593   C594    1.419   .     A
C594   N630    1.438   .     S
C594   C1427   1.418   1_554 S
H599   N631    1.046   .     S
H600   N631    1.046   .     S
H611   C1423   1.111   1_554 S
H613   C1422   1.106   1_554 S
H614   N633    1.045   .     S
H615   N633    1.043   .     S
H622   N634    1.046   .     S
H623   N634    1.046   .     S
H626   N630    1.045   .     S
H627   N630    1.044   .     S
H628   C675    1.111   .     S
H629   C675    1.110   .     S
N631   C662    1.439   .     S
N632   C14     1.438   1_565 S
N632   H49     1.046   1_565 S
N632   H50     1.046   1_565 S
O635   Zn650   1.917   .     S
O635   Zn648   1.948   .     S
O635   Zn649   1.955   .     S
O635   Zn651   1.934   .     S
O636   Zn649   1.898   .     S
O637   Zn651   1.912   .     S
O638   Zn650   1.918   .     S
O639   Zn648   1.905   .     S
O640   Zn648   1.941   .     S
O641   Zn651   1.933   .     S
O642   Zn649   1.933   .     S
O643   Zn650   1.945   .     S
O644   Zn651   1.944   .     S
O645   Zn648   1.929   .     S
O646   Zn649   1.937   .     S
O647   Zn650   1.941   .     S
C652   C662    1.439   .     S
C652   O735    1.276   .     A
C652   O737    1.263   .     A
C653   C684    1.427   .     A
C653   N727    1.433   .     S
C653   C654    1.399   .     A
C654   H717    1.085   .     S
C654   C1493   1.393   .     S
C655   O738    1.273   .     A
C655   O736    1.272   .     A
C655   C661    1.474   .     S
C656   C657    1.416   .     A
C656   C658    1.403   .     A
C656   C1491   1.393   1_554 S
C657   C660    1.408   .     A
C657   C685    1.422   .     A
C658   C659    1.394   .     A
C658   H688    1.084   .     S
C659   C671    1.398   .     A
C659   H710    1.084   .     S
C660   C671    1.397   .     A
C660   H699    1.084   .     S
C661   C755    1.359   .     S
C661   C766    1.540   .     S
C663   C672    1.422   .     A
C663   C670    1.411   .     A
C663   N726    1.438   .     S
C664   C667    1.473   .     S
C664   C107    1.357   1_565 S
C664   C118    1.542   1_565 S
C665   C666    1.437   .     S
C666   O733    1.268   .     A
C666   O739    1.278   .     A
C667   O740    1.266   .     A
C667   O734    1.271   .     A
C668   C671    1.459   .     S
C668   O729    1.280   .     A
C668   O731    1.280   .     A
C669   O732    1.290   .     A
C669   O730    1.288   .     A
C669   C670    1.487   .     S
C670   C674    1.396   .     A
C672   C678    1.530   .     S
C672   C683    1.430   .     A
C673   H691    1.111   .     S
C673   C675    1.529   .     S
C673   H690    1.112   .     S
C674   H718    1.075   .     S
C674   C682    1.405   .     A
C675   H689    1.111   .     S
C676   H698    1.112   .     S
C676   H697    1.111   .     S
C677   H696    1.111   .     S
C677   H694    1.110   .     S
C677   H695    1.111   .     S
C677   C118    1.529   1_565 S
C678   H705    1.110   .     S
C678   C679    1.532   .     S
C678   H1543   1.106   .     S
C679   H702    1.111   .     S
C679   H703    1.106   .     S
C679   H1541   1.111   .     S
C680   H714    1.108   .     S
C680   C681    1.529   .     S
C680   H713    1.102   .     S
C680   C686    1.530   .     S
C681   H711    1.111   .     S
C681   H709    1.110   .     S
C681   H712    1.111   .     S
C682   C684    1.428   .     A
C682   C683    1.422   .     A
C683   C1524   1.418   .     S
C684   C1522   1.418   .     S
C685   C686    1.421   .     A
C685   C1521   1.418   1_554 S
C686   C687    1.419   .     A
C687   N723    1.438   .     S
C687   C1520   1.418   1_554 S
H692   N724    1.046   .     S
H693   N724    1.046   .     S
H704   C1516   1.111   1_554 S
H706   C1515   1.106   1_554 S
H707   N726    1.045   .     S
H708   N726    1.043   .     S
H715   N727    1.046   .     S
H716   N727    1.046   .     S
H719   N723    1.045   .     S
H720   N723    1.044   .     S
H721   C768    1.111   .     S
H722   C768    1.110   .     S
N724   C755    1.439   .     S
N725   C107    1.438   1_565 S
N725   H142    1.046   1_565 S
N725   H143    1.046   1_565 S
O728   Zn743   1.917   .     S
O728   Zn741   1.948   .     S
O728   Zn742   1.955   .     S
O728   Zn744   1.934   .     S
O729   Zn742   1.898   .     S
O730   Zn744   1.912   .     S
O731   Zn743   1.918   .     S
O732   Zn741   1.905   .     S
O733   Zn741   1.941   .     S
O734   Zn744   1.933   .     S
O735   Zn742   1.933   .     S
O736   Zn743   1.945   .     S
O737   Zn744   1.944   .     S
O738   Zn741   1.929   .     S
O739   Zn742   1.937   .     S
O740   Zn743   1.941   .     S
C745   C755    1.439   .     S
C745   O828    1.276   .     A
C745   O830    1.263   .     A
C746   C777    1.427   .     A
C746   N820    1.433   .     S
C746   C747    1.399   .     A
C747   H810    1.085   .     S
C747   C1586   1.393   .     S
C748   O831    1.273   .     A
C748   O829    1.272   .     A
C748   C754    1.474   .     S
C749   C750    1.416   .     A
C749   C751    1.403   .     A
C749   C1584   1.393   1_554 S
C750   C753    1.408   .     A
C750   C778    1.422   .     A
C751   C752    1.394   .     A
C751   H781    1.084   .     S
C752   C764    1.398   .     A
C752   H803    1.084   .     S
C753   C764    1.397   .     A
C753   H792    1.084   .     S
C754   C569    1.359   1_655 S
C754   C580    1.540   1_655 S
C756   C765    1.422   .     A
C756   C763    1.411   .     A
C756   N819    1.438   .     S
C757   C760    1.473   .     S
C757   C200    1.357   1_565 S
C757   C211    1.542   1_565 S
C758   C759    1.437   .     S
C759   O826    1.268   .     A
C759   O832    1.278   .     A
C760   O833    1.266   .     A
C760   O827    1.271   .     A
C761   C764    1.459   .     S
C761   O822    1.280   .     A
C761   O824    1.280   .     A
C762   O825    1.290   .     A
C762   O823    1.288   .     A
C762   C763    1.487   .     S
C763   C767    1.396   .     A
C765   C771    1.530   .     S
C765   C776    1.430   .     A
C766   H784    1.111   .     S
C766   C768    1.529   .     S
C766   H783    1.112   .     S
C767   H811    1.075   .     S
C767   C775    1.405   .     A
C768   H782    1.111   .     S
C769   H791    1.112   .     S
C769   H790    1.111   .     S
C770   H789    1.111   .     S
C770   H787    1.110   .     S
C770   H788    1.111   .     S
C770   C211    1.529   1_565 S
C771   H798    1.110   .     S
C771   C772    1.532   .     S
C771   H1636   1.106   .     S
C772   H795    1.111   .     S
C772   H796    1.106   .     S
C772   H1634   1.111   .     S
C773   H807    1.108   .     S
C773   C774    1.529   .     S
C773   H806    1.102   .     S
C773   C779    1.530   .     S
C774   H804    1.111   .     S
C774   H802    1.110   .     S
C774   H805    1.111   .     S
C775   C777    1.428   .     A
C775   C776    1.422   .     A
C776   C1617   1.418   .     S
C777   C1615   1.418   .     S
C778   C779    1.421   .     A
C778   C1614   1.418   1_554 S
C779   C780    1.419   .     A
C780   N816    1.438   .     S
C780   C1613   1.418   1_554 S
H785   N817    1.046   .     S
H786   N817    1.046   .     S
H797   C1609   1.111   1_554 S
H799   C1608   1.106   1_554 S
H800   N819    1.045   .     S
H801   N819    1.043   .     S
H808   N820    1.046   .     S
H809   N820    1.046   .     S
H812   N816    1.045   .     S
H813   N816    1.044   .     S
H814   C582    1.111   1_655 S
H815   C582    1.110   1_655 S
N817   C569    1.439   1_655 S
N818   C200    1.438   1_565 S
N818   H235    1.046   1_565 S
N818   H236    1.046   1_565 S
O821   Zn836   1.917   .     S
O821   Zn834   1.948   .     S
O821   Zn835   1.955   .     S
O821   Zn837   1.934   .     S
O822   Zn835   1.898   .     S
O823   Zn837   1.912   .     S
O824   Zn836   1.918   .     S
O825   Zn834   1.905   .     S
O826   Zn834   1.941   .     S
O827   Zn837   1.933   .     S
O828   Zn835   1.933   .     S
O829   Zn836   1.945   .     S
O830   Zn837   1.944   .     S
O831   Zn834   1.929   .     S
O832   Zn835   1.937   .     S
O833   Zn836   1.941   .     S
C838   C848    1.439   .     S
C838   O921    1.276   .     A
C838   O923    1.263   .     A
C839   C870    1.427   .     A
C839   N913    1.433   .     S
C839   C840    1.399   .     A
C840   H903    1.085   .     S
C840   C5      1.393   1_556 S
C841   O924    1.273   .     A
C841   O922    1.272   .     A
C841   C847    1.474   .     S
C842   C843    1.416   .     A
C842   C844    1.403   .     A
C843   C846    1.408   .     A
C843   C871    1.422   .     A
C844   C845    1.394   .     A
C844   H874    1.084   .     S
C845   C857    1.398   .     A
C845   H896    1.084   .     S
C846   C857    1.397   .     A
C846   H885    1.084   .     S
C847   C941    1.359   .     S
C847   C952    1.540   .     S
C848   C1033   1.359   1_455 S
C848   N1096   1.439   1_455 S
C849   C858    1.422   .     A
C849   C856    1.411   .     A
C849   N912    1.438   .     S
C850   C853    1.473   .     S
C850   C1130   1.357   .     S
C850   C1141   1.542   .     S
C851   C852    1.437   .     S
C851   C1408   1.357   1_545 S
C851   N1469   1.438   1_545 S
C852   O919    1.268   .     A
C852   O925    1.278   .     A
C853   O926    1.266   .     A
C853   O920    1.271   .     A
C854   C857    1.459   .     S
C854   O915    1.280   .     A
C854   O917    1.280   .     A
C855   O918    1.290   .     A
C855   O916    1.288   .     A
C855   C856    1.487   .     S
C856   C860    1.396   .     A
C858   C864    1.530   .     S
C858   C869    1.430   .     A
C859   H877    1.111   .     S
C859   C861    1.529   .     S
C859   H876    1.112   .     S
C859   C1033   1.540   1_455 S
C860   H904    1.075   .     S
C860   C868    1.405   .     A
C861   H875    1.111   .     S
C861   H1093   1.111   1_455 S
C861   H1094   1.110   1_455 S
C862   H884    1.112   .     S
C862   H883    1.111   .     S
C862   C1408   1.542   1_545 S
C862   C1421   1.529   1_545 S
C863   H882    1.111   .     S
C863   H880    1.110   .     S
C863   H881    1.111   .     S
C863   C1141   1.529   .     S
C864   H891    1.110   .     S
C864   C865    1.532   .     S
C864   H55     1.106   1_556 S
C865   H888    1.111   .     S
C865   H889    1.106   .     S
C865   H53     1.111   1_556 S
C866   H900    1.108   .     S
C866   C867    1.529   .     S
C866   H899    1.102   .     S
C866   C872    1.530   .     S
C867   H897    1.111   .     S
C867   H895    1.110   .     S
C867   H898    1.111   .     S
C868   C870    1.428   .     A
C868   C869    1.422   .     A
C869   C36     1.418   1_556 S
C870   C34     1.418   1_556 S
C871   C872    1.421   .     A
C872   C873    1.419   .     A
C873   N909    1.438   .     S
H878   N910    1.046   .     S
H879   N910    1.046   .     S
H886   N1469   1.046   1_545 S
H887   N1469   1.046   1_545 S
H893   N912    1.045   .     S
H894   N912    1.043   .     S
H901   N913    1.046   .     S
H902   N913    1.046   .     S
H905   N909    1.045   .     S
H906   N909    1.044   .     S
H907   C954    1.111   .     S
H908   C954    1.110   .     S
N910   C941    1.439   .     S
N911   C1130   1.438   .     S
N911   H1165   1.046   .     S
N911   H1166   1.046   .     S
O914   Zn929   1.917   .     S
O914   Zn927   1.948   .     S
O914   Zn928   1.955   .     S
O914   Zn930   1.934   .     S
O915   Zn928   1.898   .     S
O916   Zn930   1.912   .     S
O917   Zn929   1.918   .     S
O918   Zn927   1.905   .     S
O919   Zn927   1.941   .     S
O920   Zn930   1.933   .     S
O921   Zn928   1.933   .     S
O922   Zn929   1.945   .     S
O923   Zn930   1.944   .     S
O924   Zn927   1.929   .     S
O925   Zn928   1.937   .     S
O926   Zn929   1.941   .     S
C931   C941    1.439   .     S
C931   O1014   1.276   .     A
C931   O1016   1.263   .     A
C932   C963    1.427   .     A
C932   N1006   1.433   .     S
C932   C933    1.399   .     A
C933   H996    1.085   .     S
C933   C98     1.393   1_556 S
C934   O1017   1.273   .     A
C934   O1015   1.272   .     A
C934   C940    1.474   .     S
C935   C936    1.416   .     A
C935   C937    1.403   .     A
C936   C939    1.408   .     A
C936   C964    1.422   .     A
C937   C938    1.394   .     A
C937   H967    1.084   .     S
C938   C950    1.398   .     A
C938   H989    1.084   .     S
C939   C950    1.397   .     A
C939   H978    1.084   .     S
C940   C1034   1.359   .     S
C940   C1045   1.540   .     S
C942   C951    1.422   .     A
C942   C949    1.411   .     A
C942   N1005   1.438   .     S
C943   C946    1.473   .     S
C943   C1223   1.357   .     S
C943   C1234   1.542   .     S
C944   C945    1.437   .     S
C944   C1501   1.357   1_545 S
C944   N1562   1.438   1_545 S
C945   O1012   1.268   .     A
C945   O1018   1.278   .     A
C946   O1019   1.266   .     A
C946   O1013   1.271   .     A
C947   C950    1.459   .     S
C947   O1008   1.280   .     A
C947   O1010   1.280   .     A
C948   O1011   1.290   .     A
C948   O1009   1.288   .     A
C948   C949    1.487   .     S
C949   C953    1.396   .     A
C951   C957    1.530   .     S
C951   C962    1.430   .     A
C952   H970    1.111   .     S
C952   C954    1.529   .     S
C952   H969    1.112   .     S
C953   H997    1.075   .     S
C953   C961    1.405   .     A
C954   H968    1.111   .     S
C955   H977    1.112   .     S
C955   H976    1.111   .     S
C955   C1501   1.542   1_545 S
C955   C1514   1.529   1_545 S
C956   H975    1.111   .     S
C956   H973    1.110   .     S
C956   H974    1.111   .     S
C956   C1234   1.529   .     S
C957   H984    1.110   .     S
C957   C958    1.532   .     S
C957   H148    1.106   1_556 S
C958   H981    1.111   .     S
C958   H982    1.106   .     S
C958   H146    1.111   1_556 S
C959   H993    1.108   .     S
C959   C960    1.529   .     S
C959   H992    1.102   .     S
C959   C965    1.530   .     S
C960   H990    1.111   .     S
C960   H988    1.110   .     S
C960   H991    1.111   .     S
C961   C963    1.428   .     A
C961   C962    1.422   .     A
C962   C129    1.418   1_556 S
C963   C127    1.418   1_556 S
C964   C965    1.421   .     A
C965   C966    1.419   .     A
C966   N1002   1.438   .     S
H971   N1003   1.046   .     S
H972   N1003   1.046   .     S
H979   N1562   1.046   1_545 S
H980   N1562   1.046   1_545 S
H986   N1005   1.045   .     S
H987   N1005   1.043   .     S
H994   N1006   1.046   .     S
H995   N1006   1.046   .     S
H998   N1002   1.045   .     S
H999   N1002   1.044   .     S
H1000  C1047   1.111   .     S
H1001  C1047   1.110   .     S
N1003  C1034   1.439   .     S
N1004  C1223   1.438   .     S
N1004  H1258   1.046   .     S
N1004  H1259   1.046   .     S
O1007  Zn1022  1.917   .     S
O1007  Zn1020  1.948   .     S
O1007  Zn1021  1.955   .     S
O1007  Zn1023  1.934   .     S
O1008  Zn1021  1.898   .     S
O1009  Zn1023  1.912   .     S
O1010  Zn1022  1.918   .     S
O1011  Zn1020  1.905   .     S
O1012  Zn1020  1.941   .     S
O1013  Zn1023  1.933   .     S
O1014  Zn1021  1.933   .     S
O1015  Zn1022  1.945   .     S
O1016  Zn1023  1.944   .     S
O1017  Zn1020  1.929   .     S
O1018  Zn1021  1.937   .     S
O1019  Zn1022  1.941   .     S
C1024  C1034   1.439   .     S
C1024  O1107   1.276   .     A
C1024  O1109   1.263   .     A
C1025  C1056   1.427   .     A
C1025  N1099   1.433   .     S
C1025  C1026   1.399   .     A
C1026  H1089   1.085   .     S
C1026  C191    1.393   1_556 S
C1027  O1110   1.273   .     A
C1027  O1108   1.272   .     A
C1027  C1033   1.474   .     S
C1028  C1029   1.416   .     A
C1028  C1030   1.403   .     A
C1029  C1032   1.408   .     A
C1029  C1057   1.422   .     A
C1030  C1031   1.394   .     A
C1030  H1060   1.084   .     S
C1031  C1043   1.398   .     A
C1031  H1082   1.084   .     S
C1032  C1043   1.397   .     A
C1032  H1071   1.084   .     S
C1033  C848    1.359   1_655 S
C1033  C859    1.540   1_655 S
C1035  C1044   1.422   .     A
C1035  C1042   1.411   .     A
C1035  N1098   1.438   .     S
C1036  C1039   1.473   .     S
C1036  C1316   1.357   .     S
C1036  C1327   1.542   .     S
C1037  C1038   1.437   .     S
C1037  C1594   1.357   1_545 S
C1037  N1655   1.438   1_545 S
C1038  O1105   1.268   .     A
C1038  O1111   1.278   .     A
C1039  O1112   1.266   .     A
C1039  O1106   1.271   .     A
C1040  C1043   1.459   .     S
C1040  O1101   1.280   .     A
C1040  O1103   1.280   .     A
C1041  O1104   1.290   .     A
C1041  O1102   1.288   .     A
C1041  C1042   1.487   .     S
C1042  C1046   1.396   .     A
C1044  C1050   1.530   .     S
C1044  C1055   1.430   .     A
C1045  H1063   1.111   .     S
C1045  C1047   1.529   .     S
C1045  H1062   1.112   .     S
C1046  H1090   1.075   .     S
C1046  C1054   1.405   .     A
C1047  H1061   1.111   .     S
C1048  H1070   1.112   .     S
C1048  H1069   1.111   .     S
C1048  C1594   1.542   1_545 S
C1048  C1607   1.529   1_545 S
C1049  H1068   1.111   .     S
C1049  H1066   1.110   .     S
C1049  H1067   1.111   .     S
C1049  C1327   1.529   .     S
C1050  H1077   1.110   .     S
C1050  C1051   1.532   .     S
C1050  H241    1.106   1_556 S
C1051  H1074   1.111   .     S
C1051  H1075   1.106   .     S
C1051  H239    1.111   1_556 S
C1052  H1086   1.108   .     S
C1052  C1053   1.529   .     S
C1052  H1085   1.102   .     S
C1052  C1058   1.530   .     S
C1053  H1083   1.111   .     S
C1053  H1081   1.110   .     S
C1053  H1084   1.111   .     S
C1054  C1056   1.428   .     A
C1054  C1055   1.422   .     A
C1055  C222    1.418   1_556 S
C1056  C220    1.418   1_556 S
C1057  C1058   1.421   .     A
C1058  C1059   1.419   .     A
C1059  N1095   1.438   .     S
H1064  N1096   1.046   .     S
H1065  N1096   1.046   .     S
H1072  N1655   1.046   1_545 S
H1073  N1655   1.046   1_545 S
H1079  N1098   1.045   .     S
H1080  N1098   1.043   .     S
H1087  N1099   1.046   .     S
H1088  N1099   1.046   .     S
H1091  N1095   1.045   .     S
H1092  N1095   1.044   .     S
H1093  C861    1.111   1_655 S
H1094  C861    1.110   1_655 S
N1096  C848    1.439   1_655 S
N1097  C1316   1.438   .     S
N1097  H1351   1.046   .     S
N1097  H1352   1.046   .     S
O1100  Zn1115  1.917   .     S
O1100  Zn1113  1.948   .     S
O1100  Zn1114  1.955   .     S
O1100  Zn1116  1.934   .     S
O1101  Zn1114  1.898   .     S
O1102  Zn1116  1.912   .     S
O1103  Zn1115  1.918   .     S
O1104  Zn1113  1.905   .     S
O1105  Zn1113  1.941   .     S
O1106  Zn1116  1.933   .     S
O1107  Zn1114  1.933   .     S
O1108  Zn1115  1.945   .     S
O1109  Zn1116  1.944   .     S
O1110  Zn1113  1.929   .     S
O1111  Zn1114  1.937   .     S
O1112  Zn1115  1.941   .     S
C1117  C1127   1.439   .     S
C1117  O1200   1.276   .     A
C1117  O1202   1.263   .     A
C1118  C1149   1.427   .     A
C1118  N1192   1.433   .     S
C1118  C1119   1.399   .     A
C1119  H1182   1.085   .     S
C1119  C284    1.393   1_556 S
C1120  O1203   1.273   .     A
C1120  O1201   1.272   .     A
C1120  C1126   1.474   .     S
C1121  C1122   1.416   .     A
C1121  C1123   1.403   .     A
C1122  C1125   1.408   .     A
C1122  C1150   1.422   .     A
C1123  C1124   1.394   .     A
C1123  H1153   1.084   .     S
C1124  C1136   1.398   .     A
C1124  H1175   1.084   .     S
C1125  C1136   1.397   .     A
C1125  H1164   1.084   .     S
C1126  C1220   1.359   .     S
C1126  C1231   1.540   .     S
C1127  C1312   1.359   1_455 S
C1127  N1375   1.439   1_455 S
C1128  C1137   1.422   .     A
C1128  C1135   1.411   .     A
C1128  N1191   1.438   .     S
C1129  C1132   1.473   .     S
C1129  C1409   1.357   .     S
C1129  C1420   1.542   .     S
C1130  C1131   1.437   .     S
C1131  O1198   1.268   .     A
C1131  O1204   1.278   .     A
C1132  O1205   1.266   .     A
C1132  O1199   1.271   .     A
C1133  C1136   1.459   .     S
C1133  O1194   1.280   .     A
C1133  O1196   1.280   .     A
C1134  O1197   1.290   .     A
C1134  O1195   1.288   .     A
C1134  C1135   1.487   .     S
C1135  C1139   1.396   .     A
C1137  C1143   1.530   .     S
C1137  C1148   1.430   .     A
C1138  H1156   1.111   .     S
C1138  C1140   1.529   .     S
C1138  H1155   1.112   .     S
C1138  C1312   1.540   1_455 S
C1139  H1183   1.075   .     S
C1139  C1147   1.405   .     A
C1140  H1154   1.111   .     S
C1140  H1372   1.111   1_455 S
C1140  H1373   1.110   1_455 S
C1141  H1163   1.112   .     S
C1141  H1162   1.111   .     S
C1142  H1161   1.111   .     S
C1142  H1159   1.110   .     S
C1142  H1160   1.111   .     S
C1142  C1420   1.529   .     S
C1143  H1170   1.110   .     S
C1143  C1144   1.532   .     S
C1143  H334    1.106   1_556 S
C1144  H1167   1.111   .     S
C1144  H1168   1.106   .     S
C1144  H332    1.111   1_556 S
C1145  H1179   1.108   .     S
C1145  C1146   1.529   .     S
C1145  H1178   1.102   .     S
C1145  C1151   1.530   .     S
C1146  H1176   1.111   .     S
C1146  H1174   1.110   .     S
C1146  H1177   1.111   .     S
C1147  C1149   1.428   .     A
C1147  C1148   1.422   .     A
C1148  C315    1.418   1_556 S
C1149  C313    1.418   1_556 S
C1150  C1151   1.421   .     A
C1151  C1152   1.419   .     A
C1152  N1188   1.438   .     S
H1157  N1189   1.046   .     S
H1158  N1189   1.046   .     S
H1172  N1191   1.045   .     S
H1173  N1191   1.043   .     S
H1180  N1192   1.046   .     S
H1181  N1192   1.046   .     S
H1184  N1188   1.045   .     S
H1185  N1188   1.044   .     S
H1186  C1233   1.111   .     S
H1187  C1233   1.110   .     S
N1189  C1220   1.439   .     S
N1190  C1409   1.438   .     S
N1190  H1444   1.046   .     S
N1190  H1445   1.046   .     S
O1193  Zn1208  1.917   .     S
O1193  Zn1206  1.948   .     S
O1193  Zn1207  1.955   .     S
O1193  Zn1209  1.934   .     S
O1194  Zn1207  1.898   .     S
O1195  Zn1209  1.912   .     S
O1196  Zn1208  1.918   .     S
O1197  Zn1206  1.905   .     S
O1198  Zn1206  1.941   .     S
O1199  Zn1209  1.933   .     S
O1200  Zn1207  1.933   .     S
O1201  Zn1208  1.945   .     S
O1202  Zn1209  1.944   .     S
O1203  Zn1206  1.929   .     S
O1204  Zn1207  1.937   .     S
O1205  Zn1208  1.941   .     S
C1210  C1220   1.439   .     S
C1210  O1293   1.276   .     A
C1210  O1295   1.263   .     A
C1211  C1242   1.427   .     A
C1211  N1285   1.433   .     S
C1211  C1212   1.399   .     A
C1212  H1275   1.085   .     S
C1212  C377    1.393   1_556 S
C1213  O1296   1.273   .     A
C1213  O1294   1.272   .     A
C1213  C1219   1.474   .     S
C1214  C1215   1.416   .     A
C1214  C1216   1.403   .     A
C1215  C1218   1.408   .     A
C1215  C1243   1.422   .     A
C1216  C1217   1.394   .     A
C1216  H1246   1.084   .     S
C1217  C1229   1.398   .     A
C1217  H1268   1.084   .     S
C1218  C1229   1.397   .     A
C1218  H1257   1.084   .     S
C1219  C1313   1.359   .     S
C1219  C1324   1.540   .     S
C1221  C1230   1.422   .     A
C1221  C1228   1.411   .     A
C1221  N1284   1.438   .     S
C1222  C1225   1.473   .     S
C1222  C1502   1.357   .     S
C1222  C1513   1.542   .     S
C1223  C1224   1.437   .     S
C1224  O1291   1.268   .     A
C1224  O1297   1.278   .     A
C1225  O1298   1.266   .     A
C1225  O1292   1.271   .     A
C1226  C1229   1.459   .     S
C1226  O1287   1.280   .     A
C1226  O1289   1.280   .     A
C1227  O1290   1.290   .     A
C1227  O1288   1.288   .     A
C1227  C1228   1.487   .     S
C1228  C1232   1.396   .     A
C1230  C1236   1.530   .     S
C1230  C1241   1.430   .     A
C1231  H1249   1.111   .     S
C1231  C1233   1.529   .     S
C1231  H1248   1.112   .     S
C1232  H1276   1.075   .     S
C1232  C1240   1.405   .     A
C1233  H1247   1.111   .     S
C1234  H1256   1.112   .     S
C1234  H1255   1.111   .     S
C1235  H1254   1.111   .     S
C1235  H1252   1.110   .     S
C1235  H1253   1.111   .     S
C1235  C1513   1.529   .     S
C1236  H1263   1.110   .     S
C1236  C1237   1.532   .     S
C1236  H427    1.106   1_556 S
C1237  H1260   1.111   .     S
C1237  H1261   1.106   .     S
C1237  H425    1.111   1_556 S
C1238  H1272   1.108   .     S
C1238  C1239   1.529   .     S
C1238  H1271   1.102   .     S
C1238  C1244   1.530   .     S
C1239  H1269   1.111   .     S
C1239  H1267   1.110   .     S
C1239  H1270   1.111   .     S
C1240  C1242   1.428   .     A
C1240  C1241   1.422   .     A
C1241  C408    1.418   1_556 S
C1242  C406    1.418   1_556 S
C1243  C1244   1.421   .     A
C1244  C1245   1.419   .     A
C1245  N1281   1.438   .     S
H1250  N1282   1.046   .     S
H1251  N1282   1.046   .     S
H1265  N1284   1.045   .     S
H1266  N1284   1.043   .     S
H1273  N1285   1.046   .     S
H1274  N1285   1.046   .     S
H1277  N1281   1.045   .     S
H1278  N1281   1.044   .     S
H1279  C1326   1.111   .     S
H1280  C1326   1.110   .     S
N1282  C1313   1.439   .     S
N1283  C1502   1.438   .     S
N1283  H1537   1.046   .     S
N1283  H1538   1.046   .     S
O1286  Zn1301  1.917   .     S
O1286  Zn1299  1.948   .     S
O1286  Zn1300  1.955   .     S
O1286  Zn1302  1.934   .     S
O1287  Zn1300  1.898   .     S
O1288  Zn1302  1.912   .     S
O1289  Zn1301  1.918   .     S
O1290  Zn1299  1.905   .     S
O1291  Zn1299  1.941   .     S
O1292  Zn1302  1.933   .     S
O1293  Zn1300  1.933   .     S
O1294  Zn1301  1.945   .     S
O1295  Zn1302  1.944   .     S
O1296  Zn1299  1.929   .     S
O1297  Zn1300  1.937   .     S
O1298  Zn1301  1.941   .     S
C1303  C1313   1.439   .     S
C1303  O1386   1.276   .     A
C1303  O1388   1.263   .     A
C1304  C1335   1.427   .     A
C1304  N1378   1.433   .     S
C1304  C1305   1.399   .     A
C1305  H1368   1.085   .     S
C1305  C470    1.393   1_556 S
C1306  O1389   1.273   .     A
C1306  O1387   1.272   .     A
C1306  C1312   1.474   .     S
C1307  C1308   1.416   .     A
C1307  C1309   1.403   .     A
C1308  C1311   1.408   .     A
C1308  C1336   1.422   .     A
C1309  C1310   1.394   .     A
C1309  H1339   1.084   .     S
C1310  C1322   1.398   .     A
C1310  H1361   1.084   .     S
C1311  C1322   1.397   .     A
C1311  H1350   1.084   .     S
C1312  C1127   1.359   1_655 S
C1312  C1138   1.540   1_655 S
C1314  C1323   1.422   .     A
C1314  C1321   1.411   .     A
C1314  N1377   1.438   .     S
C1315  C1318   1.473   .     S
C1315  C1595   1.357   .     S
C1315  C1606   1.542   .     S
C1316  C1317   1.437   .     S
C1317  O1384   1.268   .     A
C1317  O1390   1.278   .     A
C1318  O1391   1.266   .     A
C1318  O1385   1.271   .     A
C1319  C1322   1.459   .     S
C1319  O1380   1.280   .     A
C1319  O1382   1.280   .     A
C1320  O1383   1.290   .     A
C1320  O1381   1.288   .     A
C1320  C1321   1.487   .     S
C1321  C1325   1.396   .     A
C1323  C1329   1.530   .     S
C1323  C1334   1.430   .     A
C1324  H1342   1.111   .     S
C1324  C1326   1.529   .     S
C1324  H1341   1.112   .     S
C1325  H1369   1.075   .     S
C1325  C1333   1.405   .     A
C1326  H1340   1.111   .     S
C1327  H1349   1.112   .     S
C1327  H1348   1.111   .     S
C1328  H1347   1.111   .     S
C1328  H1345   1.110   .     S
C1328  H1346   1.111   .     S
C1328  C1606   1.529   .     S
C1329  H1356   1.110   .     S
C1329  C1330   1.532   .     S
C1329  H520    1.106   1_556 S
C1330  H1353   1.111   .     S
C1330  H1354   1.106   .     S
C1330  H518    1.111   1_556 S
C1331  H1365   1.108   .     S
C1331  C1332   1.529   .     S
C1331  H1364   1.102   .     S
C1331  C1337   1.530   .     S
C1332  H1362   1.111   .     S
C1332  H1360   1.110   .     S
C1332  H1363   1.111   .     S
C1333  C1335   1.428   .     A
C1333  C1334   1.422   .     A
C1334  C501    1.418   1_556 S
C1335  C499    1.418   1_556 S
C1336  C1337   1.421   .     A
C1337  C1338   1.419   .     A
C1338  N1374   1.438   .     S
H1343  N1375   1.046   .     S
H1344  N1375   1.046   .     S
H1358  N1377   1.045   .     S
H1359  N1377   1.043   .     S
H1366  N1378   1.046   .     S
H1367  N1378   1.046   .     S
H1370  N1374   1.045   .     S
H1371  N1374   1.044   .     S
H1372  C1140   1.111   1_655 S
H1373  C1140   1.110   1_655 S
N1375  C1127   1.439   1_655 S
N1376  C1595   1.438   .     S
N1376  H1630   1.046   .     S
N1376  H1631   1.046   .     S
O1379  Zn1394  1.917   .     S
O1379  Zn1392  1.948   .     S
O1379  Zn1393  1.955   .     S
O1379  Zn1395  1.934   .     S
O1380  Zn1393  1.898   .     S
O1381  Zn1395  1.912   .     S
O1382  Zn1394  1.918   .     S
O1383  Zn1392  1.905   .     S
O1384  Zn1392  1.941   .     S
O1385  Zn1395  1.933   .     S
O1386  Zn1393  1.933   .     S
O1387  Zn1394  1.945   .     S
O1388  Zn1395  1.944   .     S
O1389  Zn1392  1.929   .     S
O1390  Zn1393  1.937   .     S
O1391  Zn1394  1.941   .     S
C1396  C1406   1.439   .     S
C1396  O1479   1.276   .     A
C1396  O1481   1.263   .     A
C1397  C1428   1.427   .     A
C1397  N1471   1.433   .     S
C1397  C1398   1.399   .     A
C1398  H1461   1.085   .     S
C1398  C563    1.393   1_556 S
C1399  O1482   1.273   .     A
C1399  O1480   1.272   .     A
C1399  C1405   1.474   .     S
C1400  C1401   1.416   .     A
C1400  C1402   1.403   .     A
C1401  C1404   1.408   .     A
C1401  C1429   1.422   .     A
C1402  C1403   1.394   .     A
C1402  H1432   1.084   .     S
C1403  C1415   1.398   .     A
C1403  H1454   1.084   .     S
C1404  C1415   1.397   .     A
C1404  H1443   1.084   .     S
C1405  C1499   1.359   .     S
C1405  C1510   1.540   .     S
C1406  C1591   1.359   1_455 S
C1406  N1654   1.439   1_455 S
C1407  C1416   1.422   .     A
C1407  C1414   1.411   .     A
C1407  N1470   1.438   .     S
C1408  C1411   1.473   .     S
C1408  C851    1.357   1_565 S
C1408  C862    1.542   1_565 S
C1409  C1410   1.437   .     S
C1410  O1477   1.268   .     A
C1410  O1483   1.278   .     A
C1411  O1484   1.266   .     A
C1411  O1478   1.271   .     A
C1412  C1415   1.459   .     S
C1412  O1473   1.280   .     A
C1412  O1475   1.280   .     A
C1413  O1476   1.290   .     A
C1413  O1474   1.288   .     A
C1413  C1414   1.487   .     S
C1414  C1418   1.396   .     A
C1416  C1422   1.530   .     S
C1416  C1427   1.430   .     A
C1417  H1435   1.111   .     S
C1417  C1419   1.529   .     S
C1417  H1434   1.112   .     S
C1417  C1591   1.540   1_455 S
C1418  H1462   1.075   .     S
C1418  C1426   1.405   .     A
C1419  H1433   1.111   .     S
C1419  H1651   1.111   1_455 S
C1419  H1652   1.110   1_455 S
C1420  H1442   1.112   .     S
C1420  H1441   1.111   .     S
C1421  H1440   1.111   .     S
C1421  H1438   1.110   .     S
C1421  H1439   1.111   .     S
C1421  C862    1.529   1_565 S
C1422  H1449   1.110   .     S
C1422  C1423   1.532   .     S
C1422  H613    1.106   1_556 S
C1423  H1446   1.111   .     S
C1423  H1447   1.106   .     S
C1423  H611    1.111   1_556 S
C1424  H1458   1.108   .     S
C1424  C1425   1.529   .     S
C1424  H1457   1.102   .     S
C1424  C1430   1.530   .     S
C1425  H1455   1.111   .     S
C1425  H1453   1.110   .     S
C1425  H1456   1.111   .     S
C1426  C1428   1.428   .     A
C1426  C1427   1.422   .     A
C1427  C594    1.418   1_556 S
C1428  C592    1.418   1_556 S
C1429  C1430   1.421   .     A
C1430  C1431   1.419   .     A
C1431  N1467   1.438   .     S
H1436  N1468   1.046   .     S
H1437  N1468   1.046   .     S
H1451  N1470   1.045   .     S
H1452  N1470   1.043   .     S
H1459  N1471   1.046   .     S
H1460  N1471   1.046   .     S
H1463  N1467   1.045   .     S
H1464  N1467   1.044   .     S
H1465  C1512   1.111   .     S
H1466  C1512   1.110   .     S
N1468  C1499   1.439   .     S
N1469  C851    1.438   1_565 S
N1469  H886    1.046   1_565 S
N1469  H887    1.046   1_565 S
O1472  Zn1487  1.917   .     S
O1472  Zn1485  1.948   .     S
O1472  Zn1486  1.955   .     S
O1472  Zn1488  1.934   .     S
O1473  Zn1486  1.898   .     S
O1474  Zn1488  1.912   .     S
O1475  Zn1487  1.918   .     S
O1476  Zn1485  1.905   .     S
O1477  Zn1485  1.941   .     S
O1478  Zn1488  1.933   .     S
O1479  Zn1486  1.933   .     S
O1480  Zn1487  1.945   .     S
O1481  Zn1488  1.944   .     S
O1482  Zn1485  1.929   .     S
O1483  Zn1486  1.937   .     S
O1484  Zn1487  1.941   .     S
C1489  C1499   1.439   .     S
C1489  O1572   1.276   .     A
C1489  O1574   1.263   .     A
C1490  C1521   1.427   .     A
C1490  N1564   1.433   .     S
C1490  C1491   1.399   .     A
C1491  H1554   1.085   .     S
C1491  C656    1.393   1_556 S
C1492  O1575   1.273   .     A
C1492  O1573   1.272   .     A
C1492  C1498   1.474   .     S
C1493  C1494   1.416   .     A
C1493  C1495   1.403   .     A
C1494  C1497   1.408   .     A
C1494  C1522   1.422   .     A
C1495  C1496   1.394   .     A
C1495  H1525   1.084   .     S
C1496  C1508   1.398   .     A
C1496  H1547   1.084   .     S
C1497  C1508   1.397   .     A
C1497  H1536   1.084   .     S
C1498  C1592   1.359   .     S
C1498  C1603   1.540   .     S
C1500  C1509   1.422   .     A
C1500  C1507   1.411   .     A
C1500  N1563   1.438   .     S
C1501  C1504   1.473   .     S
C1501  C944    1.357   1_565 S
C1501  C955    1.542   1_565 S
C1502  C1503   1.437   .     S
C1503  O1570   1.268   .     A
C1503  O1576   1.278   .     A
C1504  O1577   1.266   .     A
C1504  O1571   1.271   .     A
C1505  C1508   1.459   .     S
C1505  O1566   1.280   .     A
C1505  O1568   1.280   .     A
C1506  O1569   1.290   .     A
C1506  O1567   1.288   .     A
C1506  C1507   1.487   .     S
C1507  C1511   1.396   .     A
C1509  C1515   1.530   .     S
C1509  C1520   1.430   .     A
C1510  H1528   1.111   .     S
C1510  C1512   1.529   .     S
C1510  H1527   1.112   .     S
C1511  H1555   1.075   .     S
C1511  C1519   1.405   .     A
C1512  H1526   1.111   .     S
C1513  H1535   1.112   .     S
C1513  H1534   1.111   .     S
C1514  H1533   1.111   .     S
C1514  H1531   1.110   .     S
C1514  H1532   1.111   .     S
C1514  C955    1.529   1_565 S
C1515  H1542   1.110   .     S
C1515  C1516   1.532   .     S
C1515  H706    1.106   1_556 S
C1516  H1539   1.111   .     S
C1516  H1540   1.106   .     S
C1516  H704    1.111   1_556 S
C1517  H1551   1.108   .     S
C1517  C1518   1.529   .     S
C1517  H1550   1.102   .     S
C1517  C1523   1.530   .     S
C1518  H1548   1.111   .     S
C1518  H1546   1.110   .     S
C1518  H1549   1.111   .     S
C1519  C1521   1.428   .     A
C1519  C1520   1.422   .     A
C1520  C687    1.418   1_556 S
C1521  C685    1.418   1_556 S
C1522  C1523   1.421   .     A
C1523  C1524   1.419   .     A
C1524  N1560   1.438   .     S
H1529  N1561   1.046   .     S
H1530  N1561   1.046   .     S
H1544  N1563   1.045   .     S
H1545  N1563   1.043   .     S
H1552  N1564   1.046   .     S
H1553  N1564   1.046   .     S
H1556  N1560   1.045   .     S
H1557  N1560   1.044   .     S
H1558  C1605   1.111   .     S
H1559  C1605   1.110   .     S
N1561  C1592   1.439   .     S
N1562  C944    1.438   1_565 S
N1562  H979    1.046   1_565 S
N1562  H980    1.046   1_565 S
O1565  Zn1580  1.917   .     S
O1565  Zn1578  1.948   .     S
O1565  Zn1579  1.955   .     S
O1565  Zn1581  1.934   .     S
O1566  Zn1579  1.898   .     S
O1567  Zn1581  1.912   .     S
O1568  Zn1580  1.918   .     S
O1569  Zn1578  1.905   .     S
O1570  Zn1578  1.941   .     S
O1571  Zn1581  1.933   .     S
O1572  Zn1579  1.933   .     S
O1573  Zn1580  1.945   .     S
O1574  Zn1581  1.944   .     S
O1575  Zn1578  1.929   .     S
O1576  Zn1579  1.937   .     S
O1577  Zn1580  1.941   .     S
C1582  C1592   1.439   .     S
C1582  O1665   1.276   .     A
C1582  O1667   1.263   .     A
C1583  C1614   1.427   .     A
C1583  N1657   1.433   .     S
C1583  C1584   1.399   .     A
C1584  H1647   1.085   .     S
C1584  C749    1.393   1_556 S
C1585  O1668   1.273   .     A
C1585  O1666   1.272   .     A
C1585  C1591   1.474   .     S
C1586  C1587   1.416   .     A
C1586  C1588   1.403   .     A
C1587  C1590   1.408   .     A
C1587  C1615   1.422   .     A
C1588  C1589   1.394   .     A
C1588  H1618   1.084   .     S
C1589  C1601   1.398   .     A
C1589  H1640   1.084   .     S
C1590  C1601   1.397   .     A
C1590  H1629   1.084   .     S
C1591  C1406   1.359   1_655 S
C1591  C1417   1.540   1_655 S
C1593  C1602   1.422   .     A
C1593  C1600   1.411   .     A
C1593  N1656   1.438   .     S
C1594  C1597   1.473   .     S
C1594  C1037   1.357   1_565 S
C1594  C1048   1.542   1_565 S
C1595  C1596   1.437   .     S
C1596  O1663   1.268   .     A
C1596  O1669   1.278   .     A
C1597  O1670   1.266   .     A
C1597  O1664   1.271   .     A
C1598  C1601   1.459   .     S
C1598  O1659   1.280   .     A
C1598  O1661   1.280   .     A
C1599  O1662   1.290   .     A
C1599  O1660   1.288   .     A
C1599  C1600   1.487   .     S
C1600  C1604   1.396   .     A
C1602  C1608   1.530   .     S
C1602  C1613   1.430   .     A
C1603  H1621   1.111   .     S
C1603  C1605   1.529   .     S
C1603  H1620   1.112   .     S
C1604  H1648   1.075   .     S
C1604  C1612   1.405   .     A
C1605  H1619   1.111   .     S
C1606  H1628   1.112   .     S
C1606  H1627   1.111   .     S
C1607  H1626   1.111   .     S
C1607  H1624   1.110   .     S
C1607  H1625   1.111   .     S
C1607  C1048   1.529   1_565 S
C1608  H1635   1.110   .     S
C1608  C1609   1.532   .     S
C1608  H799    1.106   1_556 S
C1609  H1632   1.111   .     S
C1609  H1633   1.106   .     S
C1609  H797    1.111   1_556 S
C1610  H1644   1.108   .     S
C1610  C1611   1.529   .     S
C1610  H1643   1.102   .     S
C1610  C1616   1.530   .     S
C1611  H1641   1.111   .     S
C1611  H1639   1.110   .     S
C1611  H1642   1.111   .     S
C1612  C1614   1.428   .     A
C1612  C1613   1.422   .     A
C1613  C780    1.418   1_556 S
C1614  C778    1.418   1_556 S
C1615  C1616   1.421   .     A
C1616  C1617   1.419   .     A
C1617  N1653   1.438   .     S
H1622  N1654   1.046   .     S
H1623  N1654   1.046   .     S
H1637  N1656   1.045   .     S
H1638  N1656   1.043   .     S
H1645  N1657   1.046   .     S
H1646  N1657   1.046   .     S
H1649  N1653   1.045   .     S
H1650  N1653   1.044   .     S
H1651  C1419   1.111   1_655 S
H1652  C1419   1.110   1_655 S
N1654  C1406   1.439   1_655 S
N1655  C1037   1.438   1_565 S
N1655  H1072   1.046   1_565 S
N1655  H1073   1.046   1_565 S
O1658  Zn1673  1.917   .     S
O1658  Zn1671  1.948   .     S
O1658  Zn1672  1.955   .     S
O1658  Zn1674  1.934   .     S
O1659  Zn1672  1.898   .     S
O1660  Zn1674  1.912   .     S
O1661  Zn1673  1.918   .     S
O1662  Zn1671  1.905   .     S
O1663  Zn1671  1.941   .     S
O1664  Zn1674  1.933   .     S
O1665  Zn1672  1.933   .     S
O1666  Zn1673  1.945   .     S
O1667  Zn1674  1.944   .     S
O1668  Zn1671  1.929   .     S
O1669  Zn1672  1.937   .     S
O1670  Zn1673  1.941   .     S
