data_str_m3_o1_o10_pcu_sym.161
_audit_creation_date              2020-01-03
_audit_creation_method            'Materials Studio'
_symmetry_space_group_name_H-M    'P1'
_symmetry_Int_Tables_number       1
_symmetry_cell_setting            triclinic
loop_
_symmetry_equiv_pos_as_xyz
  x,y,z
_cell_length_a                    25.8708
_cell_length_b                    32.1025
_cell_length_c                    29.8691
_cell_angle_alpha                 90.4021
_cell_angle_beta                  98.6840
_cell_angle_gamma                 92.2315
loop_
_atom_site_label
_atom_site_type_symbol
_atom_site_fract_x
_atom_site_fract_y
_atom_site_fract_z
_atom_site_U_iso_or_equiv
_atom_site_adp_type
_atom_site_occupancy
C1     C     0.16682   0.08676   0.16656   0.00000  Uiso   1.00
C2     C     0.16651   0.24657   0.16677   0.00000  Uiso   1.00
C3     C     0.06728   0.16625   0.15493   0.00000  Uiso   1.00
C4     C     0.26605   0.16708   0.17841   0.00000  Uiso   1.00
C5     C     0.01272   0.15879   0.15037   0.00000  Uiso   1.00
C6     C     0.32062   0.17453   0.18297   0.00000  Uiso   1.00
C7     C     0.15120   0.02054   0.12602   0.00000  Uiso   1.00
C8     C     0.18213   0.31279   0.20732   0.00000  Uiso   1.00
C9     C     0.15050   0.31118   0.12618   0.00000  Uiso   1.00
C10    C     0.18283   0.02215   0.20715   0.00000  Uiso   1.00
C11    C     0.16619   0.29077   0.16683   0.00000  Uiso   1.00
C12    C     0.16714   0.04256   0.16651   0.00000  Uiso   1.00
C13    C     0.19750   0.19490   0.02856   0.00000  Uiso   1.00
C14    C     0.13584   0.13843   0.30478   0.00000  Uiso   1.00
C15    C     0.19707   0.19553   0.31374   0.00000  Uiso   1.00
C16    C     0.13627   0.13781   0.01959   0.00000  Uiso   1.00
H17    H     0.13883   0.03615   0.09451   0.00000  Uiso   1.00
H18    H     0.19451   0.29718   0.23882   0.00000  Uiso   1.00
H19    H     0.13740   0.29426   0.09474   0.00000  Uiso   1.00
H20    H     0.19593   0.03907   0.23859   0.00000  Uiso   1.00
N21    N     0.16665   0.16666   0.28573   0.00000  Uiso   1.00
N22    N     0.16668   0.16668   0.04760   0.00000  Uiso   1.00
O23    O     0.16666   0.10558   0.20487   0.00000  Uiso   1.00
O24    O     0.16667   0.22775   0.12846   0.00000  Uiso   1.00
O25    O     0.16666   0.10559   0.12843   0.00000  Uiso   1.00
O26    O     0.16667   0.22774   0.20490   0.00000  Uiso   1.00
O27    O     0.09058   0.16666   0.19595   0.00000  Uiso   1.00
O28    O     0.24275   0.16667   0.13739   0.00000  Uiso   1.00
O29    O     0.09058   0.16667   0.11950   0.00000  Uiso   1.00
O30    O     0.24275   0.16666   0.21383   0.00000  Uiso   1.00
Zn31   Zn    0.16667   0.16666   0.21771   0.00000  Uiso   1.00
Zn32   Zn    0.16667   0.16667   0.11563   0.00000  Uiso   1.00
C33    C     0.32422   0.12589   0.11626   0.00000  Uiso   1.00
H34    H     0.00298   0.12579   0.08305   0.00000  Uiso   1.00
O35    O     0.29487   0.09768   0.12577   0.00000  Uiso   1.00
C36    C     0.00911   0.20744   0.21707   0.00000  Uiso   1.00
H37    H     0.33038   0.20753   0.25030   0.00000  Uiso   1.00
O38    O     0.03844   0.23566   0.20755   0.00000  Uiso   1.00
C39    C     0.23420   0.22241   0.05897   0.00000  Uiso   1.00
H40    H     0.27115   0.21079   0.07502   0.00000  Uiso   1.00
O41    O     0.22390   0.25853   0.06547   0.00000  Uiso   1.00
C42    C     0.09914   0.11092   0.27436   0.00000  Uiso   1.00
H43    H     0.06219   0.12254   0.25830   0.00000  Uiso   1.00
O44    O     0.10943   0.07480   0.26787   0.00000  Uiso   1.00
C45    C     0.22953   0.22747   0.29364   0.00000  Uiso   1.00
H46    H     0.24270   0.22201   0.26196   0.00000  Uiso   1.00
O47    O     0.24137   0.26135   0.31185   0.00000  Uiso   1.00
C48    C     0.10381   0.10587   0.03969   0.00000  Uiso   1.00
H49    H     0.09064   0.11132   0.07137   0.00000  Uiso   1.00
O50    O     0.09196   0.07199   0.02148   0.00000  Uiso   1.00
C51    C     0.50016   0.08676   0.16656   0.00000  Uiso   1.00
C52    C     0.49984   0.24657   0.16677   0.00000  Uiso   1.00
C53    C     0.40062   0.16625   0.15493   0.00000  Uiso   1.00
C54    C     0.59938   0.16708   0.17841   0.00000  Uiso   1.00
C55    C     0.34605   0.15879   0.15037   0.00000  Uiso   1.00
C56    C     0.65395   0.17453   0.18297   0.00000  Uiso   1.00
C57    C     0.48454   0.02054   0.12602   0.00000  Uiso   1.00
C58    C     0.51546   0.31279   0.20732   0.00000  Uiso   1.00
C59    C     0.48383   0.31118   0.12618   0.00000  Uiso   1.00
C60    C     0.51616   0.02215   0.20715   0.00000  Uiso   1.00
C61    C     0.49953   0.29077   0.16683   0.00000  Uiso   1.00
C62    C     0.50047   0.04256   0.16651   0.00000  Uiso   1.00
C63    C     0.53083   0.19490   0.02856   0.00000  Uiso   1.00
C64    C     0.46917   0.13843   0.30478   0.00000  Uiso   1.00
C65    C     0.53040   0.19553   0.31374   0.00000  Uiso   1.00
C66    C     0.46960   0.13781   0.01959   0.00000  Uiso   1.00
H67    H     0.47216   0.03615   0.09451   0.00000  Uiso   1.00
H68    H     0.52784   0.29718   0.23882   0.00000  Uiso   1.00
H69    H     0.47073   0.29426   0.09474   0.00000  Uiso   1.00
H70    H     0.52927   0.03907   0.23859   0.00000  Uiso   1.00
N71    N     0.49999   0.16666   0.28573   0.00000  Uiso   1.00
N72    N     0.50001   0.16668   0.04760   0.00000  Uiso   1.00
O73    O     0.50000   0.10558   0.20487   0.00000  Uiso   1.00
O74    O     0.50000   0.22775   0.12846   0.00000  Uiso   1.00
O75    O     0.50000   0.10559   0.12843   0.00000  Uiso   1.00
O76    O     0.50000   0.22774   0.20490   0.00000  Uiso   1.00
O77    O     0.42392   0.16666   0.19595   0.00000  Uiso   1.00
O78    O     0.57608   0.16667   0.13739   0.00000  Uiso   1.00
O79    O     0.42392   0.16667   0.11950   0.00000  Uiso   1.00
O80    O     0.57608   0.16666   0.21383   0.00000  Uiso   1.00
Zn81   Zn    0.50000   0.16666   0.21771   0.00000  Uiso   1.00
Zn82   Zn    0.50000   0.16667   0.11563   0.00000  Uiso   1.00
C83    C     0.65756   0.12589   0.11626   0.00000  Uiso   1.00
H84    H     0.33631   0.12579   0.08305   0.00000  Uiso   1.00
O85    O     0.62821   0.09768   0.12577   0.00000  Uiso   1.00
C86    C     0.34244   0.20744   0.21707   0.00000  Uiso   1.00
H87    H     0.66371   0.20753   0.25030   0.00000  Uiso   1.00
O88    O     0.37177   0.23566   0.20755   0.00000  Uiso   1.00
C89    C     0.56754   0.22241   0.05897   0.00000  Uiso   1.00
H90    H     0.60448   0.21079   0.07502   0.00000  Uiso   1.00
O91    O     0.55724   0.25853   0.06547   0.00000  Uiso   1.00
C92    C     0.43247   0.11092   0.27436   0.00000  Uiso   1.00
H93    H     0.39553   0.12254   0.25830   0.00000  Uiso   1.00
O94    O     0.44277   0.07480   0.26787   0.00000  Uiso   1.00
C95    C     0.56286   0.22747   0.29364   0.00000  Uiso   1.00
H96    H     0.57604   0.22201   0.26196   0.00000  Uiso   1.00
O97    O     0.57470   0.26135   0.31185   0.00000  Uiso   1.00
C98    C     0.43714   0.10587   0.03969   0.00000  Uiso   1.00
H99    H     0.42397   0.11132   0.07137   0.00000  Uiso   1.00
O100   O     0.42529   0.07199   0.02148   0.00000  Uiso   1.00
C101   C     0.83349   0.08676   0.16656   0.00000  Uiso   1.00
C102   C     0.83318   0.24657   0.16677   0.00000  Uiso   1.00
C103   C     0.73395   0.16625   0.15493   0.00000  Uiso   1.00
C104   C     0.93272   0.16708   0.17841   0.00000  Uiso   1.00
C105   C     0.67938   0.15879   0.15037   0.00000  Uiso   1.00
C106   C     0.98728   0.17453   0.18297   0.00000  Uiso   1.00
C107   C     0.81787   0.02054   0.12602   0.00000  Uiso   1.00
C108   C     0.84880   0.31279   0.20732   0.00000  Uiso   1.00
C109   C     0.81717   0.31118   0.12618   0.00000  Uiso   1.00
C110   C     0.84950   0.02215   0.20715   0.00000  Uiso   1.00
C111   C     0.83286   0.29077   0.16683   0.00000  Uiso   1.00
C112   C     0.83381   0.04256   0.16651   0.00000  Uiso   1.00
C113   C     0.86416   0.19490   0.02856   0.00000  Uiso   1.00
C114   C     0.80250   0.13843   0.30478   0.00000  Uiso   1.00
C115   C     0.86373   0.19553   0.31374   0.00000  Uiso   1.00
C116   C     0.80293   0.13781   0.01959   0.00000  Uiso   1.00
H117   H     0.80549   0.03615   0.09451   0.00000  Uiso   1.00
H118   H     0.86117   0.29718   0.23882   0.00000  Uiso   1.00
H119   H     0.80406   0.29426   0.09474   0.00000  Uiso   1.00
H120   H     0.86260   0.03907   0.23859   0.00000  Uiso   1.00
N121   N     0.83332   0.16666   0.28573   0.00000  Uiso   1.00
N122   N     0.83335   0.16668   0.04760   0.00000  Uiso   1.00
O123   O     0.83333   0.10558   0.20487   0.00000  Uiso   1.00
O124   O     0.83334   0.22775   0.12846   0.00000  Uiso   1.00
O125   O     0.83333   0.10559   0.12843   0.00000  Uiso   1.00
O126   O     0.83334   0.22774   0.20490   0.00000  Uiso   1.00
O127   O     0.75725   0.16666   0.19595   0.00000  Uiso   1.00
O128   O     0.90942   0.16667   0.13739   0.00000  Uiso   1.00
O129   O     0.75725   0.16667   0.11950   0.00000  Uiso   1.00
O130   O     0.90942   0.16666   0.21383   0.00000  Uiso   1.00
Zn131  Zn    0.83333   0.16666   0.21771   0.00000  Uiso   1.00
Zn132  Zn    0.83333   0.16667   0.11563   0.00000  Uiso   1.00
C133   C     0.99089   0.12589   0.11626   0.00000  Uiso   1.00
H134   H     0.66964   0.12579   0.08305   0.00000  Uiso   1.00
O135   O     0.96154   0.09768   0.12577   0.00000  Uiso   1.00
C136   C     0.67578   0.20744   0.21707   0.00000  Uiso   1.00
H137   H     0.99705   0.20753   0.25030   0.00000  Uiso   1.00
O138   O     0.70511   0.23566   0.20755   0.00000  Uiso   1.00
C139   C     0.90087   0.22241   0.05897   0.00000  Uiso   1.00
H140   H     0.93782   0.21079   0.07502   0.00000  Uiso   1.00
O141   O     0.89057   0.25853   0.06547   0.00000  Uiso   1.00
C142   C     0.76580   0.11092   0.27436   0.00000  Uiso   1.00
H143   H     0.72886   0.12254   0.25830   0.00000  Uiso   1.00
O144   O     0.77610   0.07480   0.26787   0.00000  Uiso   1.00
C145   C     0.89619   0.22747   0.29364   0.00000  Uiso   1.00
H146   H     0.90937   0.22201   0.26196   0.00000  Uiso   1.00
O147   O     0.90804   0.26135   0.31185   0.00000  Uiso   1.00
C148   C     0.77047   0.10587   0.03969   0.00000  Uiso   1.00
H149   H     0.75730   0.11132   0.07137   0.00000  Uiso   1.00
O150   O     0.75862   0.07199   0.02148   0.00000  Uiso   1.00
C151   C     0.16682   0.42009   0.16656   0.00000  Uiso   1.00
C152   C     0.16651   0.57991   0.16677   0.00000  Uiso   1.00
C153   C     0.06728   0.49959   0.15493   0.00000  Uiso   1.00
C154   C     0.26605   0.50041   0.17841   0.00000  Uiso   1.00
C155   C     0.01272   0.49213   0.15037   0.00000  Uiso   1.00
C156   C     0.32062   0.50787   0.18297   0.00000  Uiso   1.00
C157   C     0.15120   0.35388   0.12602   0.00000  Uiso   1.00
C158   C     0.18213   0.64612   0.20732   0.00000  Uiso   1.00
C159   C     0.15050   0.64451   0.12618   0.00000  Uiso   1.00
C160   C     0.18283   0.35549   0.20715   0.00000  Uiso   1.00
C161   C     0.16619   0.62410   0.16683   0.00000  Uiso   1.00
C162   C     0.16714   0.37590   0.16651   0.00000  Uiso   1.00
C163   C     0.19750   0.52823   0.02856   0.00000  Uiso   1.00
C164   C     0.13584   0.47177   0.30478   0.00000  Uiso   1.00
C165   C     0.19707   0.52886   0.31374   0.00000  Uiso   1.00
C166   C     0.13627   0.47114   0.01959   0.00000  Uiso   1.00
H167   H     0.13883   0.36949   0.09451   0.00000  Uiso   1.00
H168   H     0.19451   0.63051   0.23882   0.00000  Uiso   1.00
H169   H     0.13740   0.62759   0.09474   0.00000  Uiso   1.00
H170   H     0.19593   0.37241   0.23859   0.00000  Uiso   1.00
N171   N     0.16665   0.49999   0.28573   0.00000  Uiso   1.00
N172   N     0.16668   0.50001   0.04760   0.00000  Uiso   1.00
O173   O     0.16666   0.43892   0.20487   0.00000  Uiso   1.00
O174   O     0.16667   0.56108   0.12846   0.00000  Uiso   1.00
O175   O     0.16666   0.43893   0.12843   0.00000  Uiso   1.00
O176   O     0.16667   0.56107   0.20490   0.00000  Uiso   1.00
O177   O     0.09058   0.50000   0.19595   0.00000  Uiso   1.00
O178   O     0.24275   0.50000   0.13739   0.00000  Uiso   1.00
O179   O     0.09058   0.50000   0.11950   0.00000  Uiso   1.00
O180   O     0.24275   0.50000   0.21383   0.00000  Uiso   1.00
Zn181  Zn    0.16667   0.49999   0.21771   0.00000  Uiso   1.00
Zn182  Zn    0.16667   0.50001   0.11563   0.00000  Uiso   1.00
C183   C     0.32422   0.45923   0.11626   0.00000  Uiso   1.00
H184   H     0.00298   0.45912   0.08305   0.00000  Uiso   1.00
O185   O     0.29487   0.43101   0.12577   0.00000  Uiso   1.00
C186   C     0.00911   0.54077   0.21707   0.00000  Uiso   1.00
H187   H     0.33038   0.54086   0.25030   0.00000  Uiso   1.00
O188   O     0.03844   0.56899   0.20755   0.00000  Uiso   1.00
C189   C     0.23420   0.55575   0.05897   0.00000  Uiso   1.00
H190   H     0.27115   0.54412   0.07502   0.00000  Uiso   1.00
O191   O     0.22390   0.59186   0.06547   0.00000  Uiso   1.00
C192   C     0.09914   0.44425   0.27436   0.00000  Uiso   1.00
H193   H     0.06219   0.45587   0.25830   0.00000  Uiso   1.00
O194   O     0.10943   0.40814   0.26787   0.00000  Uiso   1.00
C195   C     0.22953   0.56080   0.29364   0.00000  Uiso   1.00
H196   H     0.24270   0.55534   0.26196   0.00000  Uiso   1.00
O197   O     0.24137   0.59468   0.31185   0.00000  Uiso   1.00
C198   C     0.10381   0.43920   0.03969   0.00000  Uiso   1.00
H199   H     0.09064   0.44465   0.07137   0.00000  Uiso   1.00
O200   O     0.09196   0.40532   0.02148   0.00000  Uiso   1.00
C201   C     0.50016   0.42009   0.16656   0.00000  Uiso   1.00
C202   C     0.49984   0.57991   0.16677   0.00000  Uiso   1.00
C203   C     0.40062   0.49959   0.15493   0.00000  Uiso   1.00
C204   C     0.59938   0.50041   0.17841   0.00000  Uiso   1.00
C205   C     0.34605   0.49213   0.15037   0.00000  Uiso   1.00
C206   C     0.65395   0.50787   0.18297   0.00000  Uiso   1.00
C207   C     0.48454   0.35388   0.12602   0.00000  Uiso   1.00
C208   C     0.51546   0.64612   0.20732   0.00000  Uiso   1.00
C209   C     0.48383   0.64451   0.12618   0.00000  Uiso   1.00
C210   C     0.51616   0.35549   0.20715   0.00000  Uiso   1.00
C211   C     0.49953   0.62410   0.16683   0.00000  Uiso   1.00
C212   C     0.50047   0.37590   0.16651   0.00000  Uiso   1.00
C213   C     0.53083   0.52823   0.02856   0.00000  Uiso   1.00
C214   C     0.46917   0.47177   0.30478   0.00000  Uiso   1.00
C215   C     0.53040   0.52886   0.31374   0.00000  Uiso   1.00
C216   C     0.46960   0.47114   0.01959   0.00000  Uiso   1.00
H217   H     0.47216   0.36949   0.09451   0.00000  Uiso   1.00
H218   H     0.52784   0.63051   0.23882   0.00000  Uiso   1.00
H219   H     0.47073   0.62759   0.09474   0.00000  Uiso   1.00
H220   H     0.52927   0.37241   0.23859   0.00000  Uiso   1.00
N221   N     0.49999   0.49999   0.28573   0.00000  Uiso   1.00
N222   N     0.50001   0.50001   0.04760   0.00000  Uiso   1.00
O223   O     0.50000   0.43892   0.20487   0.00000  Uiso   1.00
O224   O     0.50000   0.56108   0.12846   0.00000  Uiso   1.00
O225   O     0.50000   0.43893   0.12843   0.00000  Uiso   1.00
O226   O     0.50000   0.56107   0.20490   0.00000  Uiso   1.00
O227   O     0.42392   0.50000   0.19595   0.00000  Uiso   1.00
O228   O     0.57608   0.50000   0.13739   0.00000  Uiso   1.00
O229   O     0.42392   0.50000   0.11950   0.00000  Uiso   1.00
O230   O     0.57608   0.50000   0.21383   0.00000  Uiso   1.00
Zn231  Zn    0.50000   0.49999   0.21771   0.00000  Uiso   1.00
Zn232  Zn    0.50000   0.50001   0.11563   0.00000  Uiso   1.00
C233   C     0.65756   0.45923   0.11626   0.00000  Uiso   1.00
H234   H     0.33631   0.45912   0.08305   0.00000  Uiso   1.00
O235   O     0.62821   0.43101   0.12577   0.00000  Uiso   1.00
C236   C     0.34244   0.54077   0.21707   0.00000  Uiso   1.00
H237   H     0.66371   0.54086   0.25030   0.00000  Uiso   1.00
O238   O     0.37177   0.56899   0.20755   0.00000  Uiso   1.00
C239   C     0.56754   0.55575   0.05897   0.00000  Uiso   1.00
H240   H     0.60448   0.54412   0.07502   0.00000  Uiso   1.00
O241   O     0.55724   0.59186   0.06547   0.00000  Uiso   1.00
C242   C     0.43247   0.44425   0.27436   0.00000  Uiso   1.00
H243   H     0.39553   0.45587   0.25830   0.00000  Uiso   1.00
O244   O     0.44277   0.40814   0.26787   0.00000  Uiso   1.00
C245   C     0.56286   0.56080   0.29364   0.00000  Uiso   1.00
H246   H     0.57604   0.55534   0.26196   0.00000  Uiso   1.00
O247   O     0.57470   0.59468   0.31185   0.00000  Uiso   1.00
C248   C     0.43714   0.43920   0.03969   0.00000  Uiso   1.00
H249   H     0.42397   0.44465   0.07137   0.00000  Uiso   1.00
O250   O     0.42529   0.40532   0.02148   0.00000  Uiso   1.00
C251   C     0.83349   0.42009   0.16656   0.00000  Uiso   1.00
C252   C     0.83318   0.57991   0.16677   0.00000  Uiso   1.00
C253   C     0.73395   0.49959   0.15493   0.00000  Uiso   1.00
C254   C     0.93272   0.50041   0.17841   0.00000  Uiso   1.00
C255   C     0.67938   0.49213   0.15037   0.00000  Uiso   1.00
C256   C     0.98728   0.50787   0.18297   0.00000  Uiso   1.00
C257   C     0.81787   0.35388   0.12602   0.00000  Uiso   1.00
C258   C     0.84880   0.64612   0.20732   0.00000  Uiso   1.00
C259   C     0.81717   0.64451   0.12618   0.00000  Uiso   1.00
C260   C     0.84950   0.35549   0.20715   0.00000  Uiso   1.00
C261   C     0.83286   0.62410   0.16683   0.00000  Uiso   1.00
C262   C     0.83381   0.37590   0.16651   0.00000  Uiso   1.00
C263   C     0.86416   0.52823   0.02856   0.00000  Uiso   1.00
C264   C     0.80250   0.47177   0.30478   0.00000  Uiso   1.00
C265   C     0.86373   0.52886   0.31374   0.00000  Uiso   1.00
C266   C     0.80293   0.47114   0.01959   0.00000  Uiso   1.00
H267   H     0.80549   0.36949   0.09451   0.00000  Uiso   1.00
H268   H     0.86117   0.63051   0.23882   0.00000  Uiso   1.00
H269   H     0.80406   0.62759   0.09474   0.00000  Uiso   1.00
H270   H     0.86260   0.37241   0.23859   0.00000  Uiso   1.00
N271   N     0.83332   0.49999   0.28573   0.00000  Uiso   1.00
N272   N     0.83335   0.50001   0.04760   0.00000  Uiso   1.00
O273   O     0.83333   0.43892   0.20487   0.00000  Uiso   1.00
O274   O     0.83334   0.56108   0.12846   0.00000  Uiso   1.00
O275   O     0.83333   0.43893   0.12843   0.00000  Uiso   1.00
O276   O     0.83334   0.56107   0.20490   0.00000  Uiso   1.00
O277   O     0.75725   0.50000   0.19595   0.00000  Uiso   1.00
O278   O     0.90942   0.50000   0.13739   0.00000  Uiso   1.00
O279   O     0.75725   0.50000   0.11950   0.00000  Uiso   1.00
O280   O     0.90942   0.50000   0.21383   0.00000  Uiso   1.00
Zn281  Zn    0.83333   0.49999   0.21771   0.00000  Uiso   1.00
Zn282  Zn    0.83333   0.50001   0.11563   0.00000  Uiso   1.00
C283   C     0.99089   0.45923   0.11626   0.00000  Uiso   1.00
H284   H     0.66964   0.45912   0.08305   0.00000  Uiso   1.00
O285   O     0.96154   0.43101   0.12577   0.00000  Uiso   1.00
C286   C     0.67578   0.54077   0.21707   0.00000  Uiso   1.00
H287   H     0.99705   0.54086   0.25030   0.00000  Uiso   1.00
O288   O     0.70511   0.56899   0.20755   0.00000  Uiso   1.00
C289   C     0.90087   0.55575   0.05897   0.00000  Uiso   1.00
H290   H     0.93782   0.54412   0.07502   0.00000  Uiso   1.00
O291   O     0.89057   0.59186   0.06547   0.00000  Uiso   1.00
C292   C     0.76580   0.44425   0.27436   0.00000  Uiso   1.00
H293   H     0.72886   0.45587   0.25830   0.00000  Uiso   1.00
O294   O     0.77610   0.40814   0.26787   0.00000  Uiso   1.00
C295   C     0.89619   0.56080   0.29364   0.00000  Uiso   1.00
H296   H     0.90937   0.55534   0.26196   0.00000  Uiso   1.00
O297   O     0.90804   0.59468   0.31185   0.00000  Uiso   1.00
C298   C     0.77047   0.43920   0.03969   0.00000  Uiso   1.00
H299   H     0.75730   0.44465   0.07137   0.00000  Uiso   1.00
O300   O     0.75862   0.40532   0.02148   0.00000  Uiso   1.00
C301   C     0.16682   0.75343   0.16656   0.00000  Uiso   1.00
C302   C     0.16651   0.91324   0.16677   0.00000  Uiso   1.00
C303   C     0.06728   0.83292   0.15493   0.00000  Uiso   1.00
C304   C     0.26605   0.83375   0.17841   0.00000  Uiso   1.00
C305   C     0.01272   0.82546   0.15037   0.00000  Uiso   1.00
C306   C     0.32062   0.84120   0.18297   0.00000  Uiso   1.00
C307   C     0.15120   0.68721   0.12602   0.00000  Uiso   1.00
C308   C     0.18213   0.97946   0.20732   0.00000  Uiso   1.00
C309   C     0.15050   0.97785   0.12618   0.00000  Uiso   1.00
C310   C     0.18283   0.68882   0.20715   0.00000  Uiso   1.00
C311   C     0.16619   0.95744   0.16683   0.00000  Uiso   1.00
C312   C     0.16714   0.70923   0.16651   0.00000  Uiso   1.00
C313   C     0.19750   0.86157   0.02856   0.00000  Uiso   1.00
C314   C     0.13584   0.80510   0.30478   0.00000  Uiso   1.00
C315   C     0.19707   0.86219   0.31374   0.00000  Uiso   1.00
C316   C     0.13627   0.80447   0.01959   0.00000  Uiso   1.00
H317   H     0.13883   0.70282   0.09451   0.00000  Uiso   1.00
H318   H     0.19451   0.96385   0.23882   0.00000  Uiso   1.00
H319   H     0.13740   0.96092   0.09474   0.00000  Uiso   1.00
H320   H     0.19593   0.70574   0.23859   0.00000  Uiso   1.00
N321   N     0.16665   0.83332   0.28573   0.00000  Uiso   1.00
N322   N     0.16668   0.83334   0.04760   0.00000  Uiso   1.00
O323   O     0.16666   0.77225   0.20487   0.00000  Uiso   1.00
O324   O     0.16667   0.89442   0.12846   0.00000  Uiso   1.00
O325   O     0.16666   0.77226   0.12843   0.00000  Uiso   1.00
O326   O     0.16667   0.89441   0.20490   0.00000  Uiso   1.00
O327   O     0.09058   0.83333   0.19595   0.00000  Uiso   1.00
O328   O     0.24275   0.83334   0.13739   0.00000  Uiso   1.00
O329   O     0.09058   0.83334   0.11950   0.00000  Uiso   1.00
O330   O     0.24275   0.83333   0.21383   0.00000  Uiso   1.00
Zn331  Zn    0.16667   0.83333   0.21771   0.00000  Uiso   1.00
Zn332  Zn    0.16667   0.83334   0.11563   0.00000  Uiso   1.00
C333   C     0.32422   0.79256   0.11626   0.00000  Uiso   1.00
H334   H     0.00298   0.79245   0.08305   0.00000  Uiso   1.00
O335   O     0.29487   0.76435   0.12577   0.00000  Uiso   1.00
C336   C     0.00911   0.87410   0.21707   0.00000  Uiso   1.00
H337   H     0.33038   0.87419   0.25030   0.00000  Uiso   1.00
O338   O     0.03844   0.90233   0.20755   0.00000  Uiso   1.00
C339   C     0.23420   0.88908   0.05897   0.00000  Uiso   1.00
H340   H     0.27115   0.87746   0.07502   0.00000  Uiso   1.00
O341   O     0.22390   0.92519   0.06547   0.00000  Uiso   1.00
C342   C     0.09914   0.77758   0.27436   0.00000  Uiso   1.00
H343   H     0.06219   0.78921   0.25830   0.00000  Uiso   1.00
O344   O     0.10943   0.74147   0.26787   0.00000  Uiso   1.00
C345   C     0.22953   0.89413   0.29364   0.00000  Uiso   1.00
H346   H     0.24270   0.88868   0.26196   0.00000  Uiso   1.00
O347   O     0.24137   0.92802   0.31185   0.00000  Uiso   1.00
C348   C     0.10381   0.77253   0.03969   0.00000  Uiso   1.00
H349   H     0.09064   0.77799   0.07137   0.00000  Uiso   1.00
O350   O     0.09196   0.73865   0.02148   0.00000  Uiso   1.00
C351   C     0.50016   0.75343   0.16656   0.00000  Uiso   1.00
C352   C     0.49984   0.91324   0.16677   0.00000  Uiso   1.00
C353   C     0.40062   0.83292   0.15493   0.00000  Uiso   1.00
C354   C     0.59938   0.83375   0.17841   0.00000  Uiso   1.00
C355   C     0.34605   0.82546   0.15037   0.00000  Uiso   1.00
C356   C     0.65395   0.84120   0.18297   0.00000  Uiso   1.00
C357   C     0.48454   0.68721   0.12602   0.00000  Uiso   1.00
C358   C     0.51546   0.97946   0.20732   0.00000  Uiso   1.00
C359   C     0.48383   0.97785   0.12618   0.00000  Uiso   1.00
C360   C     0.51616   0.68882   0.20715   0.00000  Uiso   1.00
C361   C     0.49953   0.95744   0.16683   0.00000  Uiso   1.00
C362   C     0.50047   0.70923   0.16651   0.00000  Uiso   1.00
C363   C     0.53083   0.86157   0.02856   0.00000  Uiso   1.00
C364   C     0.46917   0.80510   0.30478   0.00000  Uiso   1.00
C365   C     0.53040   0.86219   0.31374   0.00000  Uiso   1.00
C366   C     0.46960   0.80447   0.01959   0.00000  Uiso   1.00
H367   H     0.47216   0.70282   0.09451   0.00000  Uiso   1.00
H368   H     0.52784   0.96385   0.23882   0.00000  Uiso   1.00
H369   H     0.47073   0.96092   0.09474   0.00000  Uiso   1.00
H370   H     0.52927   0.70574   0.23859   0.00000  Uiso   1.00
N371   N     0.49999   0.83332   0.28573   0.00000  Uiso   1.00
N372   N     0.50001   0.83334   0.04760   0.00000  Uiso   1.00
O373   O     0.50000   0.77225   0.20487   0.00000  Uiso   1.00
O374   O     0.50000   0.89442   0.12846   0.00000  Uiso   1.00
O375   O     0.50000   0.77226   0.12843   0.00000  Uiso   1.00
O376   O     0.50000   0.89441   0.20490   0.00000  Uiso   1.00
O377   O     0.42392   0.83333   0.19595   0.00000  Uiso   1.00
O378   O     0.57608   0.83334   0.13739   0.00000  Uiso   1.00
O379   O     0.42392   0.83334   0.11950   0.00000  Uiso   1.00
O380   O     0.57608   0.83333   0.21383   0.00000  Uiso   1.00
Zn381  Zn    0.50000   0.83333   0.21771   0.00000  Uiso   1.00
Zn382  Zn    0.50000   0.83334   0.11563   0.00000  Uiso   1.00
C383   C     0.65756   0.79256   0.11626   0.00000  Uiso   1.00
H384   H     0.33631   0.79245   0.08305   0.00000  Uiso   1.00
O385   O     0.62821   0.76435   0.12577   0.00000  Uiso   1.00
C386   C     0.34244   0.87410   0.21707   0.00000  Uiso   1.00
H387   H     0.66371   0.87419   0.25030   0.00000  Uiso   1.00
O388   O     0.37177   0.90233   0.20755   0.00000  Uiso   1.00
C389   C     0.56754   0.88908   0.05897   0.00000  Uiso   1.00
H390   H     0.60448   0.87746   0.07502   0.00000  Uiso   1.00
O391   O     0.55724   0.92519   0.06547   0.00000  Uiso   1.00
C392   C     0.43247   0.77758   0.27436   0.00000  Uiso   1.00
H393   H     0.39553   0.78921   0.25830   0.00000  Uiso   1.00
O394   O     0.44277   0.74147   0.26787   0.00000  Uiso   1.00
C395   C     0.56286   0.89413   0.29364   0.00000  Uiso   1.00
H396   H     0.57604   0.88868   0.26196   0.00000  Uiso   1.00
O397   O     0.57470   0.92802   0.31185   0.00000  Uiso   1.00
C398   C     0.43714   0.77253   0.03969   0.00000  Uiso   1.00
H399   H     0.42397   0.77799   0.07137   0.00000  Uiso   1.00
O400   O     0.42529   0.73865   0.02148   0.00000  Uiso   1.00
C401   C     0.83349   0.75343   0.16656   0.00000  Uiso   1.00
C402   C     0.83318   0.91324   0.16677   0.00000  Uiso   1.00
C403   C     0.73395   0.83292   0.15493   0.00000  Uiso   1.00
C404   C     0.93272   0.83375   0.17841   0.00000  Uiso   1.00
C405   C     0.67938   0.82546   0.15037   0.00000  Uiso   1.00
C406   C     0.98728   0.84120   0.18297   0.00000  Uiso   1.00
C407   C     0.81787   0.68721   0.12602   0.00000  Uiso   1.00
C408   C     0.84880   0.97946   0.20732   0.00000  Uiso   1.00
C409   C     0.81717   0.97785   0.12618   0.00000  Uiso   1.00
C410   C     0.84950   0.68882   0.20715   0.00000  Uiso   1.00
C411   C     0.83286   0.95744   0.16683   0.00000  Uiso   1.00
C412   C     0.83381   0.70923   0.16651   0.00000  Uiso   1.00
C413   C     0.86416   0.86157   0.02856   0.00000  Uiso   1.00
C414   C     0.80250   0.80510   0.30478   0.00000  Uiso   1.00
C415   C     0.86373   0.86219   0.31374   0.00000  Uiso   1.00
C416   C     0.80293   0.80447   0.01959   0.00000  Uiso   1.00
H417   H     0.80549   0.70282   0.09451   0.00000  Uiso   1.00
H418   H     0.86117   0.96385   0.23882   0.00000  Uiso   1.00
H419   H     0.80406   0.96092   0.09474   0.00000  Uiso   1.00
H420   H     0.86260   0.70574   0.23859   0.00000  Uiso   1.00
N421   N     0.83332   0.83332   0.28573   0.00000  Uiso   1.00
N422   N     0.83335   0.83334   0.04760   0.00000  Uiso   1.00
O423   O     0.83333   0.77225   0.20487   0.00000  Uiso   1.00
O424   O     0.83334   0.89442   0.12846   0.00000  Uiso   1.00
O425   O     0.83333   0.77226   0.12843   0.00000  Uiso   1.00
O426   O     0.83334   0.89441   0.20490   0.00000  Uiso   1.00
O427   O     0.75725   0.83333   0.19595   0.00000  Uiso   1.00
O428   O     0.90942   0.83334   0.13739   0.00000  Uiso   1.00
O429   O     0.75725   0.83334   0.11950   0.00000  Uiso   1.00
O430   O     0.90942   0.83333   0.21383   0.00000  Uiso   1.00
Zn431  Zn    0.83333   0.83333   0.21771   0.00000  Uiso   1.00
Zn432  Zn    0.83333   0.83334   0.11563   0.00000  Uiso   1.00
C433   C     0.99089   0.79256   0.11626   0.00000  Uiso   1.00
H434   H     0.66964   0.79245   0.08305   0.00000  Uiso   1.00
O435   O     0.96154   0.76435   0.12577   0.00000  Uiso   1.00
C436   C     0.67578   0.87410   0.21707   0.00000  Uiso   1.00
H437   H     0.99705   0.87419   0.25030   0.00000  Uiso   1.00
O438   O     0.70511   0.90233   0.20755   0.00000  Uiso   1.00
C439   C     0.90087   0.88908   0.05897   0.00000  Uiso   1.00
H440   H     0.93782   0.87746   0.07502   0.00000  Uiso   1.00
O441   O     0.89057   0.92519   0.06547   0.00000  Uiso   1.00
C442   C     0.76580   0.77758   0.27436   0.00000  Uiso   1.00
H443   H     0.72886   0.78921   0.25830   0.00000  Uiso   1.00
O444   O     0.77610   0.74147   0.26787   0.00000  Uiso   1.00
C445   C     0.89619   0.89413   0.29364   0.00000  Uiso   1.00
H446   H     0.90937   0.88868   0.26196   0.00000  Uiso   1.00
O447   O     0.90804   0.92802   0.31185   0.00000  Uiso   1.00
C448   C     0.77047   0.77253   0.03969   0.00000  Uiso   1.00
H449   H     0.75730   0.77799   0.07137   0.00000  Uiso   1.00
O450   O     0.75862   0.73865   0.02148   0.00000  Uiso   1.00
C451   C     0.16682   0.08676   0.49989   0.00000  Uiso   1.00
C452   C     0.16651   0.24657   0.50011   0.00000  Uiso   1.00
C453   C     0.06728   0.16625   0.48826   0.00000  Uiso   1.00
C454   C     0.26605   0.16708   0.51174   0.00000  Uiso   1.00
C455   C     0.01272   0.15879   0.48370   0.00000  Uiso   1.00
C456   C     0.32062   0.17453   0.51630   0.00000  Uiso   1.00
C457   C     0.15120   0.02054   0.45935   0.00000  Uiso   1.00
C458   C     0.18213   0.31279   0.54065   0.00000  Uiso   1.00
C459   C     0.15050   0.31118   0.45952   0.00000  Uiso   1.00
C460   C     0.18283   0.02215   0.54048   0.00000  Uiso   1.00
C461   C     0.16619   0.29077   0.50016   0.00000  Uiso   1.00
C462   C     0.16714   0.04256   0.49984   0.00000  Uiso   1.00
C463   C     0.19750   0.19490   0.36189   0.00000  Uiso   1.00
C464   C     0.13584   0.13843   0.63811   0.00000  Uiso   1.00
C465   C     0.19707   0.19553   0.64708   0.00000  Uiso   1.00
C466   C     0.13627   0.13781   0.35292   0.00000  Uiso   1.00
H467   H     0.13883   0.03615   0.42785   0.00000  Uiso   1.00
H468   H     0.19451   0.29718   0.57215   0.00000  Uiso   1.00
H469   H     0.13740   0.29426   0.42808   0.00000  Uiso   1.00
H470   H     0.19593   0.03907   0.57192   0.00000  Uiso   1.00
N471   N     0.16665   0.16666   0.61907   0.00000  Uiso   1.00
N472   N     0.16668   0.16668   0.38093   0.00000  Uiso   1.00
O473   O     0.16666   0.10558   0.53821   0.00000  Uiso   1.00
O474   O     0.16667   0.22775   0.46179   0.00000  Uiso   1.00
O475   O     0.16666   0.10559   0.46176   0.00000  Uiso   1.00
O476   O     0.16667   0.22774   0.53824   0.00000  Uiso   1.00
O477   O     0.09058   0.16666   0.52928   0.00000  Uiso   1.00
O478   O     0.24275   0.16667   0.47072   0.00000  Uiso   1.00
O479   O     0.09058   0.16667   0.45284   0.00000  Uiso   1.00
O480   O     0.24275   0.16666   0.54716   0.00000  Uiso   1.00
Zn481  Zn    0.16667   0.16666   0.55104   0.00000  Uiso   1.00
Zn482  Zn    0.16667   0.16667   0.44896   0.00000  Uiso   1.00
C483   C     0.32422   0.12589   0.44960   0.00000  Uiso   1.00
H484   H     0.00298   0.12579   0.41638   0.00000  Uiso   1.00
O485   O     0.29487   0.09768   0.45910   0.00000  Uiso   1.00
C486   C     0.00911   0.20744   0.55040   0.00000  Uiso   1.00
H487   H     0.33038   0.20753   0.58363   0.00000  Uiso   1.00
O488   O     0.03844   0.23566   0.54089   0.00000  Uiso   1.00
C489   C     0.23420   0.22241   0.39231   0.00000  Uiso   1.00
H490   H     0.27115   0.21079   0.40836   0.00000  Uiso   1.00
O491   O     0.22390   0.25853   0.39880   0.00000  Uiso   1.00
C492   C     0.09914   0.11092   0.60769   0.00000  Uiso   1.00
H493   H     0.06219   0.12254   0.59163   0.00000  Uiso   1.00
O494   O     0.10943   0.07480   0.60121   0.00000  Uiso   1.00
C495   C     0.22953   0.22747   0.62697   0.00000  Uiso   1.00
H496   H     0.24270   0.22201   0.59530   0.00000  Uiso   1.00
O497   O     0.24137   0.26135   0.64519   0.00000  Uiso   1.00
C498   C     0.10381   0.10587   0.37303   0.00000  Uiso   1.00
H499   H     0.09064   0.11132   0.40471   0.00000  Uiso   1.00
O500   O     0.09196   0.07199   0.35481   0.00000  Uiso   1.00
C501   C     0.50016   0.08676   0.49989   0.00000  Uiso   1.00
C502   C     0.49984   0.24657   0.50011   0.00000  Uiso   1.00
C503   C     0.40062   0.16625   0.48826   0.00000  Uiso   1.00
C504   C     0.59938   0.16708   0.51174   0.00000  Uiso   1.00
C505   C     0.34605   0.15879   0.48370   0.00000  Uiso   1.00
C506   C     0.65395   0.17453   0.51630   0.00000  Uiso   1.00
C507   C     0.48454   0.02054   0.45935   0.00000  Uiso   1.00
C508   C     0.51546   0.31279   0.54065   0.00000  Uiso   1.00
C509   C     0.48383   0.31118   0.45952   0.00000  Uiso   1.00
C510   C     0.51616   0.02215   0.54048   0.00000  Uiso   1.00
C511   C     0.49953   0.29077   0.50016   0.00000  Uiso   1.00
C512   C     0.50047   0.04256   0.49984   0.00000  Uiso   1.00
C513   C     0.53083   0.19490   0.36189   0.00000  Uiso   1.00
C514   C     0.46917   0.13843   0.63811   0.00000  Uiso   1.00
C515   C     0.53040   0.19553   0.64708   0.00000  Uiso   1.00
C516   C     0.46960   0.13781   0.35292   0.00000  Uiso   1.00
H517   H     0.47216   0.03615   0.42785   0.00000  Uiso   1.00
H518   H     0.52784   0.29718   0.57215   0.00000  Uiso   1.00
H519   H     0.47073   0.29426   0.42808   0.00000  Uiso   1.00
H520   H     0.52927   0.03907   0.57192   0.00000  Uiso   1.00
N521   N     0.49999   0.16666   0.61907   0.00000  Uiso   1.00
N522   N     0.50001   0.16668   0.38093   0.00000  Uiso   1.00
O523   O     0.50000   0.10558   0.53821   0.00000  Uiso   1.00
O524   O     0.50000   0.22775   0.46179   0.00000  Uiso   1.00
O525   O     0.50000   0.10559   0.46176   0.00000  Uiso   1.00
O526   O     0.50000   0.22774   0.53824   0.00000  Uiso   1.00
O527   O     0.42392   0.16666   0.52928   0.00000  Uiso   1.00
O528   O     0.57608   0.16667   0.47072   0.00000  Uiso   1.00
O529   O     0.42392   0.16667   0.45284   0.00000  Uiso   1.00
O530   O     0.57608   0.16666   0.54716   0.00000  Uiso   1.00
Zn531  Zn    0.50000   0.16666   0.55104   0.00000  Uiso   1.00
Zn532  Zn    0.50000   0.16667   0.44896   0.00000  Uiso   1.00
C533   C     0.65756   0.12589   0.44960   0.00000  Uiso   1.00
H534   H     0.33631   0.12579   0.41638   0.00000  Uiso   1.00
O535   O     0.62821   0.09768   0.45910   0.00000  Uiso   1.00
C536   C     0.34244   0.20744   0.55040   0.00000  Uiso   1.00
H537   H     0.66371   0.20753   0.58363   0.00000  Uiso   1.00
O538   O     0.37177   0.23566   0.54089   0.00000  Uiso   1.00
C539   C     0.56754   0.22241   0.39231   0.00000  Uiso   1.00
H540   H     0.60448   0.21079   0.40836   0.00000  Uiso   1.00
O541   O     0.55724   0.25853   0.39880   0.00000  Uiso   1.00
C542   C     0.43247   0.11092   0.60769   0.00000  Uiso   1.00
H543   H     0.39553   0.12254   0.59163   0.00000  Uiso   1.00
O544   O     0.44277   0.07480   0.60121   0.00000  Uiso   1.00
C545   C     0.56286   0.22747   0.62697   0.00000  Uiso   1.00
H546   H     0.57604   0.22201   0.59530   0.00000  Uiso   1.00
O547   O     0.57470   0.26135   0.64519   0.00000  Uiso   1.00
C548   C     0.43714   0.10587   0.37303   0.00000  Uiso   1.00
H549   H     0.42397   0.11132   0.40471   0.00000  Uiso   1.00
O550   O     0.42529   0.07199   0.35481   0.00000  Uiso   1.00
C551   C     0.83349   0.08676   0.49989   0.00000  Uiso   1.00
C552   C     0.83318   0.24657   0.50011   0.00000  Uiso   1.00
C553   C     0.73395   0.16625   0.48826   0.00000  Uiso   1.00
C554   C     0.93272   0.16708   0.51174   0.00000  Uiso   1.00
C555   C     0.67938   0.15879   0.48370   0.00000  Uiso   1.00
C556   C     0.98728   0.17453   0.51630   0.00000  Uiso   1.00
C557   C     0.81787   0.02054   0.45935   0.00000  Uiso   1.00
C558   C     0.84880   0.31279   0.54065   0.00000  Uiso   1.00
C559   C     0.81717   0.31118   0.45952   0.00000  Uiso   1.00
C560   C     0.84950   0.02215   0.54048   0.00000  Uiso   1.00
C561   C     0.83286   0.29077   0.50016   0.00000  Uiso   1.00
C562   C     0.83381   0.04256   0.49984   0.00000  Uiso   1.00
C563   C     0.86416   0.19490   0.36189   0.00000  Uiso   1.00
C564   C     0.80250   0.13843   0.63811   0.00000  Uiso   1.00
C565   C     0.86373   0.19553   0.64708   0.00000  Uiso   1.00
C566   C     0.80293   0.13781   0.35292   0.00000  Uiso   1.00
H567   H     0.80549   0.03615   0.42785   0.00000  Uiso   1.00
H568   H     0.86117   0.29718   0.57215   0.00000  Uiso   1.00
H569   H     0.80406   0.29426   0.42808   0.00000  Uiso   1.00
H570   H     0.86260   0.03907   0.57192   0.00000  Uiso   1.00
N571   N     0.83332   0.16666   0.61907   0.00000  Uiso   1.00
N572   N     0.83335   0.16668   0.38093   0.00000  Uiso   1.00
O573   O     0.83333   0.10558   0.53821   0.00000  Uiso   1.00
O574   O     0.83334   0.22775   0.46179   0.00000  Uiso   1.00
O575   O     0.83333   0.10559   0.46176   0.00000  Uiso   1.00
O576   O     0.83334   0.22774   0.53824   0.00000  Uiso   1.00
O577   O     0.75725   0.16666   0.52928   0.00000  Uiso   1.00
O578   O     0.90942   0.16667   0.47072   0.00000  Uiso   1.00
O579   O     0.75725   0.16667   0.45284   0.00000  Uiso   1.00
O580   O     0.90942   0.16666   0.54716   0.00000  Uiso   1.00
Zn581  Zn    0.83333   0.16666   0.55104   0.00000  Uiso   1.00
Zn582  Zn    0.83333   0.16667   0.44896   0.00000  Uiso   1.00
C583   C     0.99089   0.12589   0.44960   0.00000  Uiso   1.00
H584   H     0.66964   0.12579   0.41638   0.00000  Uiso   1.00
O585   O     0.96154   0.09768   0.45910   0.00000  Uiso   1.00
C586   C     0.67578   0.20744   0.55040   0.00000  Uiso   1.00
H587   H     0.99705   0.20753   0.58363   0.00000  Uiso   1.00
O588   O     0.70511   0.23566   0.54089   0.00000  Uiso   1.00
C589   C     0.90087   0.22241   0.39231   0.00000  Uiso   1.00
H590   H     0.93782   0.21079   0.40836   0.00000  Uiso   1.00
O591   O     0.89057   0.25853   0.39880   0.00000  Uiso   1.00
C592   C     0.76580   0.11092   0.60769   0.00000  Uiso   1.00
H593   H     0.72886   0.12254   0.59163   0.00000  Uiso   1.00
O594   O     0.77610   0.07480   0.60121   0.00000  Uiso   1.00
C595   C     0.89619   0.22747   0.62697   0.00000  Uiso   1.00
H596   H     0.90937   0.22201   0.59530   0.00000  Uiso   1.00
O597   O     0.90804   0.26135   0.64519   0.00000  Uiso   1.00
C598   C     0.77047   0.10587   0.37303   0.00000  Uiso   1.00
H599   H     0.75730   0.11132   0.40471   0.00000  Uiso   1.00
O600   O     0.75862   0.07199   0.35481   0.00000  Uiso   1.00
C601   C     0.16682   0.42009   0.49989   0.00000  Uiso   1.00
C602   C     0.16651   0.57991   0.50011   0.00000  Uiso   1.00
C603   C     0.06728   0.49959   0.48826   0.00000  Uiso   1.00
C604   C     0.26605   0.50041   0.51174   0.00000  Uiso   1.00
C605   C     0.01272   0.49213   0.48370   0.00000  Uiso   1.00
C606   C     0.32062   0.50787   0.51630   0.00000  Uiso   1.00
C607   C     0.15120   0.35388   0.45935   0.00000  Uiso   1.00
C608   C     0.18213   0.64612   0.54065   0.00000  Uiso   1.00
C609   C     0.15050   0.64451   0.45952   0.00000  Uiso   1.00
C610   C     0.18283   0.35549   0.54048   0.00000  Uiso   1.00
C611   C     0.16619   0.62410   0.50016   0.00000  Uiso   1.00
C612   C     0.16714   0.37590   0.49984   0.00000  Uiso   1.00
C613   C     0.19750   0.52823   0.36189   0.00000  Uiso   1.00
C614   C     0.13584   0.47177   0.63811   0.00000  Uiso   1.00
C615   C     0.19707   0.52886   0.64708   0.00000  Uiso   1.00
C616   C     0.13627   0.47114   0.35292   0.00000  Uiso   1.00
H617   H     0.13883   0.36949   0.42785   0.00000  Uiso   1.00
H618   H     0.19451   0.63051   0.57215   0.00000  Uiso   1.00
H619   H     0.13740   0.62759   0.42808   0.00000  Uiso   1.00
H620   H     0.19593   0.37241   0.57192   0.00000  Uiso   1.00
N621   N     0.16665   0.49999   0.61907   0.00000  Uiso   1.00
N622   N     0.16668   0.50001   0.38093   0.00000  Uiso   1.00
O623   O     0.16666   0.43892   0.53821   0.00000  Uiso   1.00
O624   O     0.16667   0.56108   0.46179   0.00000  Uiso   1.00
O625   O     0.16666   0.43893   0.46176   0.00000  Uiso   1.00
O626   O     0.16667   0.56107   0.53824   0.00000  Uiso   1.00
O627   O     0.09058   0.50000   0.52928   0.00000  Uiso   1.00
O628   O     0.24275   0.50000   0.47072   0.00000  Uiso   1.00
O629   O     0.09058   0.50000   0.45284   0.00000  Uiso   1.00
O630   O     0.24275   0.50000   0.54716   0.00000  Uiso   1.00
Zn631  Zn    0.16667   0.49999   0.55104   0.00000  Uiso   1.00
Zn632  Zn    0.16667   0.50001   0.44896   0.00000  Uiso   1.00
C633   C     0.32422   0.45923   0.44960   0.00000  Uiso   1.00
H634   H     0.00298   0.45912   0.41638   0.00000  Uiso   1.00
O635   O     0.29487   0.43101   0.45910   0.00000  Uiso   1.00
C636   C     0.00911   0.54077   0.55040   0.00000  Uiso   1.00
H637   H     0.33038   0.54086   0.58363   0.00000  Uiso   1.00
O638   O     0.03844   0.56899   0.54089   0.00000  Uiso   1.00
C639   C     0.23420   0.55575   0.39231   0.00000  Uiso   1.00
H640   H     0.27115   0.54412   0.40836   0.00000  Uiso   1.00
O641   O     0.22390   0.59186   0.39880   0.00000  Uiso   1.00
C642   C     0.09914   0.44425   0.60769   0.00000  Uiso   1.00
H643   H     0.06219   0.45587   0.59163   0.00000  Uiso   1.00
O644   O     0.10943   0.40814   0.60121   0.00000  Uiso   1.00
C645   C     0.22953   0.56080   0.62697   0.00000  Uiso   1.00
H646   H     0.24270   0.55534   0.59530   0.00000  Uiso   1.00
O647   O     0.24137   0.59468   0.64519   0.00000  Uiso   1.00
C648   C     0.10381   0.43920   0.37303   0.00000  Uiso   1.00
H649   H     0.09064   0.44465   0.40471   0.00000  Uiso   1.00
O650   O     0.09196   0.40532   0.35481   0.00000  Uiso   1.00
C651   C     0.50016   0.42009   0.49989   0.00000  Uiso   1.00
C652   C     0.49984   0.57991   0.50011   0.00000  Uiso   1.00
C653   C     0.40062   0.49959   0.48826   0.00000  Uiso   1.00
C654   C     0.59938   0.50041   0.51174   0.00000  Uiso   1.00
C655   C     0.34605   0.49213   0.48370   0.00000  Uiso   1.00
C656   C     0.65395   0.50787   0.51630   0.00000  Uiso   1.00
C657   C     0.48454   0.35388   0.45935   0.00000  Uiso   1.00
C658   C     0.51546   0.64612   0.54065   0.00000  Uiso   1.00
C659   C     0.48383   0.64451   0.45952   0.00000  Uiso   1.00
C660   C     0.51616   0.35549   0.54048   0.00000  Uiso   1.00
C661   C     0.49953   0.62410   0.50016   0.00000  Uiso   1.00
C662   C     0.50047   0.37590   0.49984   0.00000  Uiso   1.00
C663   C     0.53083   0.52823   0.36189   0.00000  Uiso   1.00
C664   C     0.46917   0.47177   0.63811   0.00000  Uiso   1.00
C665   C     0.53040   0.52886   0.64708   0.00000  Uiso   1.00
C666   C     0.46960   0.47114   0.35292   0.00000  Uiso   1.00
H667   H     0.47216   0.36949   0.42785   0.00000  Uiso   1.00
H668   H     0.52784   0.63051   0.57215   0.00000  Uiso   1.00
H669   H     0.47073   0.62759   0.42808   0.00000  Uiso   1.00
H670   H     0.52927   0.37241   0.57192   0.00000  Uiso   1.00
N671   N     0.49999   0.49999   0.61907   0.00000  Uiso   1.00
N672   N     0.50001   0.50001   0.38093   0.00000  Uiso   1.00
O673   O     0.50000   0.43892   0.53821   0.00000  Uiso   1.00
O674   O     0.50000   0.56108   0.46179   0.00000  Uiso   1.00
O675   O     0.50000   0.43893   0.46176   0.00000  Uiso   1.00
O676   O     0.50000   0.56107   0.53824   0.00000  Uiso   1.00
O677   O     0.42392   0.50000   0.52928   0.00000  Uiso   1.00
O678   O     0.57608   0.50000   0.47072   0.00000  Uiso   1.00
O679   O     0.42392   0.50000   0.45284   0.00000  Uiso   1.00
O680   O     0.57608   0.50000   0.54716   0.00000  Uiso   1.00
Zn681  Zn    0.50000   0.49999   0.55104   0.00000  Uiso   1.00
Zn682  Zn    0.50000   0.50001   0.44896   0.00000  Uiso   1.00
C683   C     0.65756   0.45923   0.44960   0.00000  Uiso   1.00
H684   H     0.33631   0.45912   0.41638   0.00000  Uiso   1.00
O685   O     0.62821   0.43101   0.45910   0.00000  Uiso   1.00
C686   C     0.34244   0.54077   0.55040   0.00000  Uiso   1.00
H687   H     0.66371   0.54086   0.58363   0.00000  Uiso   1.00
O688   O     0.37177   0.56899   0.54089   0.00000  Uiso   1.00
C689   C     0.56754   0.55575   0.39231   0.00000  Uiso   1.00
H690   H     0.60448   0.54412   0.40836   0.00000  Uiso   1.00
O691   O     0.55724   0.59186   0.39880   0.00000  Uiso   1.00
C692   C     0.43247   0.44425   0.60769   0.00000  Uiso   1.00
H693   H     0.39553   0.45587   0.59163   0.00000  Uiso   1.00
O694   O     0.44277   0.40814   0.60121   0.00000  Uiso   1.00
C695   C     0.56286   0.56080   0.62697   0.00000  Uiso   1.00
H696   H     0.57604   0.55534   0.59530   0.00000  Uiso   1.00
O697   O     0.57470   0.59468   0.64519   0.00000  Uiso   1.00
C698   C     0.43714   0.43920   0.37303   0.00000  Uiso   1.00
H699   H     0.42397   0.44465   0.40471   0.00000  Uiso   1.00
O700   O     0.42529   0.40532   0.35481   0.00000  Uiso   1.00
C701   C     0.83349   0.42009   0.49989   0.00000  Uiso   1.00
C702   C     0.83318   0.57991   0.50011   0.00000  Uiso   1.00
C703   C     0.73395   0.49959   0.48826   0.00000  Uiso   1.00
C704   C     0.93272   0.50041   0.51174   0.00000  Uiso   1.00
C705   C     0.67938   0.49213   0.48370   0.00000  Uiso   1.00
C706   C     0.98728   0.50787   0.51630   0.00000  Uiso   1.00
C707   C     0.81787   0.35388   0.45935   0.00000  Uiso   1.00
C708   C     0.84880   0.64612   0.54065   0.00000  Uiso   1.00
C709   C     0.81717   0.64451   0.45952   0.00000  Uiso   1.00
C710   C     0.84950   0.35549   0.54048   0.00000  Uiso   1.00
C711   C     0.83286   0.62410   0.50016   0.00000  Uiso   1.00
C712   C     0.83381   0.37590   0.49984   0.00000  Uiso   1.00
C713   C     0.86416   0.52823   0.36189   0.00000  Uiso   1.00
C714   C     0.80250   0.47177   0.63811   0.00000  Uiso   1.00
C715   C     0.86373   0.52886   0.64708   0.00000  Uiso   1.00
C716   C     0.80293   0.47114   0.35292   0.00000  Uiso   1.00
H717   H     0.80549   0.36949   0.42785   0.00000  Uiso   1.00
H718   H     0.86117   0.63051   0.57215   0.00000  Uiso   1.00
H719   H     0.80406   0.62759   0.42808   0.00000  Uiso   1.00
H720   H     0.86260   0.37241   0.57192   0.00000  Uiso   1.00
N721   N     0.83332   0.49999   0.61907   0.00000  Uiso   1.00
N722   N     0.83335   0.50001   0.38093   0.00000  Uiso   1.00
O723   O     0.83333   0.43892   0.53821   0.00000  Uiso   1.00
O724   O     0.83334   0.56108   0.46179   0.00000  Uiso   1.00
O725   O     0.83333   0.43893   0.46176   0.00000  Uiso   1.00
O726   O     0.83334   0.56107   0.53824   0.00000  Uiso   1.00
O727   O     0.75725   0.50000   0.52928   0.00000  Uiso   1.00
O728   O     0.90942   0.50000   0.47072   0.00000  Uiso   1.00
O729   O     0.75725   0.50000   0.45284   0.00000  Uiso   1.00
O730   O     0.90942   0.50000   0.54716   0.00000  Uiso   1.00
Zn731  Zn    0.83333   0.49999   0.55104   0.00000  Uiso   1.00
Zn732  Zn    0.83333   0.50001   0.44896   0.00000  Uiso   1.00
C733   C     0.99089   0.45923   0.44960   0.00000  Uiso   1.00
H734   H     0.66964   0.45912   0.41638   0.00000  Uiso   1.00
O735   O     0.96154   0.43101   0.45910   0.00000  Uiso   1.00
C736   C     0.67578   0.54077   0.55040   0.00000  Uiso   1.00
H737   H     0.99705   0.54086   0.58363   0.00000  Uiso   1.00
O738   O     0.70511   0.56899   0.54089   0.00000  Uiso   1.00
C739   C     0.90087   0.55575   0.39231   0.00000  Uiso   1.00
H740   H     0.93782   0.54412   0.40836   0.00000  Uiso   1.00
O741   O     0.89057   0.59186   0.39880   0.00000  Uiso   1.00
C742   C     0.76580   0.44425   0.60769   0.00000  Uiso   1.00
H743   H     0.72886   0.45587   0.59163   0.00000  Uiso   1.00
O744   O     0.77610   0.40814   0.60121   0.00000  Uiso   1.00
C745   C     0.89619   0.56080   0.62697   0.00000  Uiso   1.00
H746   H     0.90937   0.55534   0.59530   0.00000  Uiso   1.00
O747   O     0.90804   0.59468   0.64519   0.00000  Uiso   1.00
C748   C     0.77047   0.43920   0.37303   0.00000  Uiso   1.00
H749   H     0.75730   0.44465   0.40471   0.00000  Uiso   1.00
O750   O     0.75862   0.40532   0.35481   0.00000  Uiso   1.00
C751   C     0.16682   0.75343   0.49989   0.00000  Uiso   1.00
C752   C     0.16651   0.91324   0.50011   0.00000  Uiso   1.00
C753   C     0.06728   0.83292   0.48826   0.00000  Uiso   1.00
C754   C     0.26605   0.83375   0.51174   0.00000  Uiso   1.00
C755   C     0.01272   0.82546   0.48370   0.00000  Uiso   1.00
C756   C     0.32062   0.84120   0.51630   0.00000  Uiso   1.00
C757   C     0.15120   0.68721   0.45935   0.00000  Uiso   1.00
C758   C     0.18213   0.97946   0.54065   0.00000  Uiso   1.00
C759   C     0.15050   0.97785   0.45952   0.00000  Uiso   1.00
C760   C     0.18283   0.68882   0.54048   0.00000  Uiso   1.00
C761   C     0.16619   0.95744   0.50016   0.00000  Uiso   1.00
C762   C     0.16714   0.70923   0.49984   0.00000  Uiso   1.00
C763   C     0.19750   0.86157   0.36189   0.00000  Uiso   1.00
C764   C     0.13584   0.80510   0.63811   0.00000  Uiso   1.00
C765   C     0.19707   0.86219   0.64708   0.00000  Uiso   1.00
C766   C     0.13627   0.80447   0.35292   0.00000  Uiso   1.00
H767   H     0.13883   0.70282   0.42785   0.00000  Uiso   1.00
H768   H     0.19451   0.96385   0.57215   0.00000  Uiso   1.00
H769   H     0.13740   0.96092   0.42808   0.00000  Uiso   1.00
H770   H     0.19593   0.70574   0.57192   0.00000  Uiso   1.00
N771   N     0.16665   0.83332   0.61907   0.00000  Uiso   1.00
N772   N     0.16668   0.83334   0.38093   0.00000  Uiso   1.00
O773   O     0.16666   0.77225   0.53821   0.00000  Uiso   1.00
O774   O     0.16667   0.89442   0.46179   0.00000  Uiso   1.00
O775   O     0.16666   0.77226   0.46176   0.00000  Uiso   1.00
O776   O     0.16667   0.89441   0.53824   0.00000  Uiso   1.00
O777   O     0.09058   0.83333   0.52928   0.00000  Uiso   1.00
O778   O     0.24275   0.83334   0.47072   0.00000  Uiso   1.00
O779   O     0.09058   0.83334   0.45284   0.00000  Uiso   1.00
O780   O     0.24275   0.83333   0.54716   0.00000  Uiso   1.00
Zn781  Zn    0.16667   0.83333   0.55104   0.00000  Uiso   1.00
Zn782  Zn    0.16667   0.83334   0.44896   0.00000  Uiso   1.00
C783   C     0.32422   0.79256   0.44960   0.00000  Uiso   1.00
H784   H     0.00298   0.79245   0.41638   0.00000  Uiso   1.00
O785   O     0.29487   0.76435   0.45910   0.00000  Uiso   1.00
C786   C     0.00911   0.87410   0.55040   0.00000  Uiso   1.00
H787   H     0.33038   0.87419   0.58363   0.00000  Uiso   1.00
O788   O     0.03844   0.90233   0.54089   0.00000  Uiso   1.00
C789   C     0.23420   0.88908   0.39231   0.00000  Uiso   1.00
H790   H     0.27115   0.87746   0.40836   0.00000  Uiso   1.00
O791   O     0.22390   0.92519   0.39880   0.00000  Uiso   1.00
C792   C     0.09914   0.77758   0.60769   0.00000  Uiso   1.00
H793   H     0.06219   0.78921   0.59163   0.00000  Uiso   1.00
O794   O     0.10943   0.74147   0.60121   0.00000  Uiso   1.00
C795   C     0.22953   0.89413   0.62697   0.00000  Uiso   1.00
H796   H     0.24270   0.88868   0.59530   0.00000  Uiso   1.00
O797   O     0.24137   0.92802   0.64519   0.00000  Uiso   1.00
C798   C     0.10381   0.77253   0.37303   0.00000  Uiso   1.00
H799   H     0.09064   0.77799   0.40471   0.00000  Uiso   1.00
O800   O     0.09196   0.73865   0.35481   0.00000  Uiso   1.00
C801   C     0.50016   0.75343   0.49989   0.00000  Uiso   1.00
C802   C     0.49984   0.91324   0.50011   0.00000  Uiso   1.00
C803   C     0.40062   0.83292   0.48826   0.00000  Uiso   1.00
C804   C     0.59938   0.83375   0.51174   0.00000  Uiso   1.00
C805   C     0.34605   0.82546   0.48370   0.00000  Uiso   1.00
C806   C     0.65395   0.84120   0.51630   0.00000  Uiso   1.00
C807   C     0.48454   0.68721   0.45935   0.00000  Uiso   1.00
C808   C     0.51546   0.97946   0.54065   0.00000  Uiso   1.00
C809   C     0.48383   0.97785   0.45952   0.00000  Uiso   1.00
C810   C     0.51616   0.68882   0.54048   0.00000  Uiso   1.00
C811   C     0.49953   0.95744   0.50016   0.00000  Uiso   1.00
C812   C     0.50047   0.70923   0.49984   0.00000  Uiso   1.00
C813   C     0.53083   0.86157   0.36189   0.00000  Uiso   1.00
C814   C     0.46917   0.80510   0.63811   0.00000  Uiso   1.00
C815   C     0.53040   0.86219   0.64708   0.00000  Uiso   1.00
C816   C     0.46960   0.80447   0.35292   0.00000  Uiso   1.00
H817   H     0.47216   0.70282   0.42785   0.00000  Uiso   1.00
H818   H     0.52784   0.96385   0.57215   0.00000  Uiso   1.00
H819   H     0.47073   0.96092   0.42808   0.00000  Uiso   1.00
H820   H     0.52927   0.70574   0.57192   0.00000  Uiso   1.00
N821   N     0.49999   0.83332   0.61907   0.00000  Uiso   1.00
N822   N     0.50001   0.83334   0.38093   0.00000  Uiso   1.00
O823   O     0.50000   0.77225   0.53821   0.00000  Uiso   1.00
O824   O     0.50000   0.89442   0.46179   0.00000  Uiso   1.00
O825   O     0.50000   0.77226   0.46176   0.00000  Uiso   1.00
O826   O     0.50000   0.89441   0.53824   0.00000  Uiso   1.00
O827   O     0.42392   0.83333   0.52928   0.00000  Uiso   1.00
O828   O     0.57608   0.83334   0.47072   0.00000  Uiso   1.00
O829   O     0.42392   0.83334   0.45284   0.00000  Uiso   1.00
O830   O     0.57608   0.83333   0.54716   0.00000  Uiso   1.00
Zn831  Zn    0.50000   0.83333   0.55104   0.00000  Uiso   1.00
Zn832  Zn    0.50000   0.83334   0.44896   0.00000  Uiso   1.00
C833   C     0.65756   0.79256   0.44960   0.00000  Uiso   1.00
H834   H     0.33631   0.79245   0.41638   0.00000  Uiso   1.00
O835   O     0.62821   0.76435   0.45910   0.00000  Uiso   1.00
C836   C     0.34244   0.87410   0.55040   0.00000  Uiso   1.00
H837   H     0.66371   0.87419   0.58363   0.00000  Uiso   1.00
O838   O     0.37177   0.90233   0.54089   0.00000  Uiso   1.00
C839   C     0.56754   0.88908   0.39231   0.00000  Uiso   1.00
H840   H     0.60448   0.87746   0.40836   0.00000  Uiso   1.00
O841   O     0.55724   0.92519   0.39880   0.00000  Uiso   1.00
C842   C     0.43247   0.77758   0.60769   0.00000  Uiso   1.00
H843   H     0.39553   0.78921   0.59163   0.00000  Uiso   1.00
O844   O     0.44277   0.74147   0.60121   0.00000  Uiso   1.00
C845   C     0.56286   0.89413   0.62697   0.00000  Uiso   1.00
H846   H     0.57604   0.88868   0.59530   0.00000  Uiso   1.00
O847   O     0.57470   0.92802   0.64519   0.00000  Uiso   1.00
C848   C     0.43714   0.77253   0.37303   0.00000  Uiso   1.00
H849   H     0.42397   0.77799   0.40471   0.00000  Uiso   1.00
O850   O     0.42529   0.73865   0.35481   0.00000  Uiso   1.00
C851   C     0.83349   0.75343   0.49989   0.00000  Uiso   1.00
C852   C     0.83318   0.91324   0.50011   0.00000  Uiso   1.00
C853   C     0.73395   0.83292   0.48826   0.00000  Uiso   1.00
C854   C     0.93272   0.83375   0.51174   0.00000  Uiso   1.00
C855   C     0.67938   0.82546   0.48370   0.00000  Uiso   1.00
C856   C     0.98728   0.84120   0.51630   0.00000  Uiso   1.00
C857   C     0.81787   0.68721   0.45935   0.00000  Uiso   1.00
C858   C     0.84880   0.97946   0.54065   0.00000  Uiso   1.00
C859   C     0.81717   0.97785   0.45952   0.00000  Uiso   1.00
C860   C     0.84950   0.68882   0.54048   0.00000  Uiso   1.00
C861   C     0.83286   0.95744   0.50016   0.00000  Uiso   1.00
C862   C     0.83381   0.70923   0.49984   0.00000  Uiso   1.00
C863   C     0.86416   0.86157   0.36189   0.00000  Uiso   1.00
C864   C     0.80250   0.80510   0.63811   0.00000  Uiso   1.00
C865   C     0.86373   0.86219   0.64708   0.00000  Uiso   1.00
C866   C     0.80293   0.80447   0.35292   0.00000  Uiso   1.00
H867   H     0.80549   0.70282   0.42785   0.00000  Uiso   1.00
H868   H     0.86117   0.96385   0.57215   0.00000  Uiso   1.00
H869   H     0.80406   0.96092   0.42808   0.00000  Uiso   1.00
H870   H     0.86260   0.70574   0.57192   0.00000  Uiso   1.00
N871   N     0.83332   0.83332   0.61907   0.00000  Uiso   1.00
N872   N     0.83335   0.83334   0.38093   0.00000  Uiso   1.00
O873   O     0.83333   0.77225   0.53821   0.00000  Uiso   1.00
O874   O     0.83334   0.89442   0.46179   0.00000  Uiso   1.00
O875   O     0.83333   0.77226   0.46176   0.00000  Uiso   1.00
O876   O     0.83334   0.89441   0.53824   0.00000  Uiso   1.00
O877   O     0.75725   0.83333   0.52928   0.00000  Uiso   1.00
O878   O     0.90942   0.83334   0.47072   0.00000  Uiso   1.00
O879   O     0.75725   0.83334   0.45284   0.00000  Uiso   1.00
O880   O     0.90942   0.83333   0.54716   0.00000  Uiso   1.00
Zn881  Zn    0.83333   0.83333   0.55104   0.00000  Uiso   1.00
Zn882  Zn    0.83333   0.83334   0.44896   0.00000  Uiso   1.00
C883   C     0.99089   0.79256   0.44960   0.00000  Uiso   1.00
H884   H     0.66964   0.79245   0.41638   0.00000  Uiso   1.00
O885   O     0.96154   0.76435   0.45910   0.00000  Uiso   1.00
C886   C     0.67578   0.87410   0.55040   0.00000  Uiso   1.00
H887   H     0.99705   0.87419   0.58363   0.00000  Uiso   1.00
O888   O     0.70511   0.90233   0.54089   0.00000  Uiso   1.00
C889   C     0.90087   0.88908   0.39231   0.00000  Uiso   1.00
H890   H     0.93782   0.87746   0.40836   0.00000  Uiso   1.00
O891   O     0.89057   0.92519   0.39880   0.00000  Uiso   1.00
C892   C     0.76580   0.77758   0.60769   0.00000  Uiso   1.00
H893   H     0.72886   0.78921   0.59163   0.00000  Uiso   1.00
O894   O     0.77610   0.74147   0.60121   0.00000  Uiso   1.00
C895   C     0.89619   0.89413   0.62697   0.00000  Uiso   1.00
H896   H     0.90937   0.88868   0.59530   0.00000  Uiso   1.00
O897   O     0.90804   0.92802   0.64519   0.00000  Uiso   1.00
C898   C     0.77047   0.77253   0.37303   0.00000  Uiso   1.00
H899   H     0.75730   0.77799   0.40471   0.00000  Uiso   1.00
O900   O     0.75862   0.73865   0.35481   0.00000  Uiso   1.00
C901   C     0.16682   0.08676   0.83323   0.00000  Uiso   1.00
C902   C     0.16651   0.24657   0.83344   0.00000  Uiso   1.00
C903   C     0.06728   0.16625   0.82159   0.00000  Uiso   1.00
C904   C     0.26605   0.16708   0.84507   0.00000  Uiso   1.00
C905   C     0.01272   0.15879   0.81703   0.00000  Uiso   1.00
C906   C     0.32062   0.17453   0.84963   0.00000  Uiso   1.00
C907   C     0.15120   0.02054   0.79268   0.00000  Uiso   1.00
C908   C     0.18213   0.31279   0.87398   0.00000  Uiso   1.00
C909   C     0.15050   0.31118   0.79285   0.00000  Uiso   1.00
C910   C     0.18283   0.02215   0.87382   0.00000  Uiso   1.00
C911   C     0.16619   0.29077   0.83349   0.00000  Uiso   1.00
C912   C     0.16714   0.04256   0.83317   0.00000  Uiso   1.00
C913   C     0.19750   0.19490   0.69522   0.00000  Uiso   1.00
C914   C     0.13584   0.13843   0.97144   0.00000  Uiso   1.00
C915   C     0.19707   0.19553   0.98041   0.00000  Uiso   1.00
C916   C     0.13627   0.13781   0.68626   0.00000  Uiso   1.00
H917   H     0.13883   0.03615   0.76118   0.00000  Uiso   1.00
H918   H     0.19451   0.29718   0.90549   0.00000  Uiso   1.00
H919   H     0.13740   0.29426   0.76141   0.00000  Uiso   1.00
H920   H     0.19593   0.03907   0.90526   0.00000  Uiso   1.00
N921   N     0.16665   0.16666   0.95240   0.00000  Uiso   1.00
N922   N     0.16668   0.16668   0.71427   0.00000  Uiso   1.00
O923   O     0.16666   0.10558   0.87154   0.00000  Uiso   1.00
O924   O     0.16667   0.22775   0.79513   0.00000  Uiso   1.00
O925   O     0.16666   0.10559   0.79510   0.00000  Uiso   1.00
O926   O     0.16667   0.22774   0.87157   0.00000  Uiso   1.00
O927   O     0.09058   0.16666   0.86261   0.00000  Uiso   1.00
O928   O     0.24275   0.16667   0.80405   0.00000  Uiso   1.00
O929   O     0.09058   0.16667   0.78617   0.00000  Uiso   1.00
O930   O     0.24275   0.16666   0.88050   0.00000  Uiso   1.00
Zn931  Zn    0.16667   0.16666   0.88437   0.00000  Uiso   1.00
Zn932  Zn    0.16667   0.16667   0.78229   0.00000  Uiso   1.00
C933   C     0.32422   0.12589   0.78293   0.00000  Uiso   1.00
H934   H     0.00298   0.12579   0.74972   0.00000  Uiso   1.00
O935   O     0.29487   0.09768   0.79244   0.00000  Uiso   1.00
C936   C     0.00911   0.20744   0.88374   0.00000  Uiso   1.00
H937   H     0.33038   0.20753   0.91696   0.00000  Uiso   1.00
O938   O     0.03844   0.23566   0.87422   0.00000  Uiso   1.00
C939   C     0.23420   0.22241   0.72564   0.00000  Uiso   1.00
H940   H     0.27115   0.21079   0.74169   0.00000  Uiso   1.00
O941   O     0.22390   0.25853   0.73213   0.00000  Uiso   1.00
C942   C     0.09914   0.11092   0.94103   0.00000  Uiso   1.00
H943   H     0.06219   0.12254   0.92496   0.00000  Uiso   1.00
O944   O     0.10943   0.07480   0.93454   0.00000  Uiso   1.00
C945   C     0.22953   0.22747   0.96031   0.00000  Uiso   1.00
H946   H     0.24270   0.22201   0.92863   0.00000  Uiso   1.00
O947   O     0.24137   0.26135   0.97852   0.00000  Uiso   1.00
C948   C     0.10381   0.10587   0.70636   0.00000  Uiso   1.00
H949   H     0.09064   0.11132   0.73804   0.00000  Uiso   1.00
O950   O     0.09196   0.07199   0.68815   0.00000  Uiso   1.00
C951   C     0.50016   0.08676   0.83323   0.00000  Uiso   1.00
C952   C     0.49984   0.24657   0.83344   0.00000  Uiso   1.00
C953   C     0.40062   0.16625   0.82159   0.00000  Uiso   1.00
C954   C     0.59938   0.16708   0.84507   0.00000  Uiso   1.00
C955   C     0.34605   0.15879   0.81703   0.00000  Uiso   1.00
C956   C     0.65395   0.17453   0.84963   0.00000  Uiso   1.00
C957   C     0.48454   0.02054   0.79268   0.00000  Uiso   1.00
C958   C     0.51546   0.31279   0.87398   0.00000  Uiso   1.00
C959   C     0.48383   0.31118   0.79285   0.00000  Uiso   1.00
C960   C     0.51616   0.02215   0.87382   0.00000  Uiso   1.00
C961   C     0.49953   0.29077   0.83349   0.00000  Uiso   1.00
C962   C     0.50047   0.04256   0.83317   0.00000  Uiso   1.00
C963   C     0.53083   0.19490   0.69522   0.00000  Uiso   1.00
C964   C     0.46917   0.13843   0.97144   0.00000  Uiso   1.00
C965   C     0.53040   0.19553   0.98041   0.00000  Uiso   1.00
C966   C     0.46960   0.13781   0.68626   0.00000  Uiso   1.00
H967   H     0.47216   0.03615   0.76118   0.00000  Uiso   1.00
H968   H     0.52784   0.29718   0.90549   0.00000  Uiso   1.00
H969   H     0.47073   0.29426   0.76141   0.00000  Uiso   1.00
H970   H     0.52927   0.03907   0.90526   0.00000  Uiso   1.00
N971   N     0.49999   0.16666   0.95240   0.00000  Uiso   1.00
N972   N     0.50001   0.16668   0.71427   0.00000  Uiso   1.00
O973   O     0.50000   0.10558   0.87154   0.00000  Uiso   1.00
O974   O     0.50000   0.22775   0.79513   0.00000  Uiso   1.00
O975   O     0.50000   0.10559   0.79510   0.00000  Uiso   1.00
O976   O     0.50000   0.22774   0.87157   0.00000  Uiso   1.00
O977   O     0.42392   0.16666   0.86261   0.00000  Uiso   1.00
O978   O     0.57608   0.16667   0.80405   0.00000  Uiso   1.00
O979   O     0.42392   0.16667   0.78617   0.00000  Uiso   1.00
O980   O     0.57608   0.16666   0.88050   0.00000  Uiso   1.00
Zn981  Zn    0.50000   0.16666   0.88437   0.00000  Uiso   1.00
Zn982  Zn    0.50000   0.16667   0.78229   0.00000  Uiso   1.00
C983   C     0.65756   0.12589   0.78293   0.00000  Uiso   1.00
H984   H     0.33631   0.12579   0.74972   0.00000  Uiso   1.00
O985   O     0.62821   0.09768   0.79244   0.00000  Uiso   1.00
C986   C     0.34244   0.20744   0.88374   0.00000  Uiso   1.00
H987   H     0.66371   0.20753   0.91696   0.00000  Uiso   1.00
O988   O     0.37177   0.23566   0.87422   0.00000  Uiso   1.00
C989   C     0.56754   0.22241   0.72564   0.00000  Uiso   1.00
H990   H     0.60448   0.21079   0.74169   0.00000  Uiso   1.00
O991   O     0.55724   0.25853   0.73213   0.00000  Uiso   1.00
C992   C     0.43247   0.11092   0.94103   0.00000  Uiso   1.00
H993   H     0.39553   0.12254   0.92496   0.00000  Uiso   1.00
O994   O     0.44277   0.07480   0.93454   0.00000  Uiso   1.00
C995   C     0.56286   0.22747   0.96031   0.00000  Uiso   1.00
H996   H     0.57604   0.22201   0.92863   0.00000  Uiso   1.00
O997   O     0.57470   0.26135   0.97852   0.00000  Uiso   1.00
C998   C     0.43714   0.10587   0.70636   0.00000  Uiso   1.00
H999   H     0.42397   0.11132   0.73804   0.00000  Uiso   1.00
O1000  O     0.42529   0.07199   0.68815   0.00000  Uiso   1.00
C1001  C     0.83349   0.08676   0.83323   0.00000  Uiso   1.00
C1002  C     0.83318   0.24657   0.83344   0.00000  Uiso   1.00
C1003  C     0.73395   0.16625   0.82159   0.00000  Uiso   1.00
C1004  C     0.93272   0.16708   0.84507   0.00000  Uiso   1.00
C1005  C     0.67938   0.15879   0.81703   0.00000  Uiso   1.00
C1006  C     0.98728   0.17453   0.84963   0.00000  Uiso   1.00
C1007  C     0.81787   0.02054   0.79268   0.00000  Uiso   1.00
C1008  C     0.84880   0.31279   0.87398   0.00000  Uiso   1.00
C1009  C     0.81717   0.31118   0.79285   0.00000  Uiso   1.00
C1010  C     0.84950   0.02215   0.87382   0.00000  Uiso   1.00
C1011  C     0.83286   0.29077   0.83349   0.00000  Uiso   1.00
C1012  C     0.83381   0.04256   0.83317   0.00000  Uiso   1.00
C1013  C     0.86416   0.19490   0.69522   0.00000  Uiso   1.00
C1014  C     0.80250   0.13843   0.97144   0.00000  Uiso   1.00
C1015  C     0.86373   0.19553   0.98041   0.00000  Uiso   1.00
C1016  C     0.80293   0.13781   0.68626   0.00000  Uiso   1.00
H1017  H     0.80549   0.03615   0.76118   0.00000  Uiso   1.00
H1018  H     0.86117   0.29718   0.90549   0.00000  Uiso   1.00
H1019  H     0.80406   0.29426   0.76141   0.00000  Uiso   1.00
H1020  H     0.86260   0.03907   0.90526   0.00000  Uiso   1.00
N1021  N     0.83332   0.16666   0.95240   0.00000  Uiso   1.00
N1022  N     0.83335   0.16668   0.71427   0.00000  Uiso   1.00
O1023  O     0.83333   0.10558   0.87154   0.00000  Uiso   1.00
O1024  O     0.83334   0.22775   0.79513   0.00000  Uiso   1.00
O1025  O     0.83333   0.10559   0.79510   0.00000  Uiso   1.00
O1026  O     0.83334   0.22774   0.87157   0.00000  Uiso   1.00
O1027  O     0.75725   0.16666   0.86261   0.00000  Uiso   1.00
O1028  O     0.90942   0.16667   0.80405   0.00000  Uiso   1.00
O1029  O     0.75725   0.16667   0.78617   0.00000  Uiso   1.00
O1030  O     0.90942   0.16666   0.88050   0.00000  Uiso   1.00
Zn1031 Zn    0.83333   0.16666   0.88437   0.00000  Uiso   1.00
Zn1032 Zn    0.83333   0.16667   0.78229   0.00000  Uiso   1.00
C1033  C     0.99089   0.12589   0.78293   0.00000  Uiso   1.00
H1034  H     0.66964   0.12579   0.74972   0.00000  Uiso   1.00
O1035  O     0.96154   0.09768   0.79244   0.00000  Uiso   1.00
C1036  C     0.67578   0.20744   0.88374   0.00000  Uiso   1.00
H1037  H     0.99705   0.20753   0.91696   0.00000  Uiso   1.00
O1038  O     0.70511   0.23566   0.87422   0.00000  Uiso   1.00
C1039  C     0.90087   0.22241   0.72564   0.00000  Uiso   1.00
H1040  H     0.93782   0.21079   0.74169   0.00000  Uiso   1.00
O1041  O     0.89057   0.25853   0.73213   0.00000  Uiso   1.00
C1042  C     0.76580   0.11092   0.94103   0.00000  Uiso   1.00
H1043  H     0.72886   0.12254   0.92496   0.00000  Uiso   1.00
O1044  O     0.77610   0.07480   0.93454   0.00000  Uiso   1.00
C1045  C     0.89619   0.22747   0.96031   0.00000  Uiso   1.00
H1046  H     0.90937   0.22201   0.92863   0.00000  Uiso   1.00
O1047  O     0.90804   0.26135   0.97852   0.00000  Uiso   1.00
C1048  C     0.77047   0.10587   0.70636   0.00000  Uiso   1.00
H1049  H     0.75730   0.11132   0.73804   0.00000  Uiso   1.00
O1050  O     0.75862   0.07199   0.68815   0.00000  Uiso   1.00
C1051  C     0.16682   0.42009   0.83323   0.00000  Uiso   1.00
C1052  C     0.16651   0.57991   0.83344   0.00000  Uiso   1.00
C1053  C     0.06728   0.49959   0.82159   0.00000  Uiso   1.00
C1054  C     0.26605   0.50041   0.84507   0.00000  Uiso   1.00
C1055  C     0.01272   0.49213   0.81703   0.00000  Uiso   1.00
C1056  C     0.32062   0.50787   0.84963   0.00000  Uiso   1.00
C1057  C     0.15120   0.35388   0.79268   0.00000  Uiso   1.00
C1058  C     0.18213   0.64612   0.87398   0.00000  Uiso   1.00
C1059  C     0.15050   0.64451   0.79285   0.00000  Uiso   1.00
C1060  C     0.18283   0.35549   0.87382   0.00000  Uiso   1.00
C1061  C     0.16619   0.62410   0.83349   0.00000  Uiso   1.00
C1062  C     0.16714   0.37590   0.83317   0.00000  Uiso   1.00
C1063  C     0.19750   0.52823   0.69522   0.00000  Uiso   1.00
C1064  C     0.13584   0.47177   0.97144   0.00000  Uiso   1.00
C1065  C     0.19707   0.52886   0.98041   0.00000  Uiso   1.00
C1066  C     0.13627   0.47114   0.68626   0.00000  Uiso   1.00
H1067  H     0.13883   0.36949   0.76118   0.00000  Uiso   1.00
H1068  H     0.19451   0.63051   0.90549   0.00000  Uiso   1.00
H1069  H     0.13740   0.62759   0.76141   0.00000  Uiso   1.00
H1070  H     0.19593   0.37241   0.90526   0.00000  Uiso   1.00
N1071  N     0.16665   0.49999   0.95240   0.00000  Uiso   1.00
N1072  N     0.16668   0.50001   0.71427   0.00000  Uiso   1.00
O1073  O     0.16666   0.43892   0.87154   0.00000  Uiso   1.00
O1074  O     0.16667   0.56108   0.79513   0.00000  Uiso   1.00
O1075  O     0.16666   0.43893   0.79510   0.00000  Uiso   1.00
O1076  O     0.16667   0.56107   0.87157   0.00000  Uiso   1.00
O1077  O     0.09058   0.50000   0.86261   0.00000  Uiso   1.00
O1078  O     0.24275   0.50000   0.80405   0.00000  Uiso   1.00
O1079  O     0.09058   0.50000   0.78617   0.00000  Uiso   1.00
O1080  O     0.24275   0.50000   0.88050   0.00000  Uiso   1.00
Zn1081 Zn    0.16667   0.49999   0.88437   0.00000  Uiso   1.00
Zn1082 Zn    0.16667   0.50001   0.78229   0.00000  Uiso   1.00
C1083  C     0.32422   0.45923   0.78293   0.00000  Uiso   1.00
H1084  H     0.00298   0.45912   0.74972   0.00000  Uiso   1.00
O1085  O     0.29487   0.43101   0.79244   0.00000  Uiso   1.00
C1086  C     0.00911   0.54077   0.88374   0.00000  Uiso   1.00
H1087  H     0.33038   0.54086   0.91696   0.00000  Uiso   1.00
O1088  O     0.03844   0.56899   0.87422   0.00000  Uiso   1.00
C1089  C     0.23420   0.55575   0.72564   0.00000  Uiso   1.00
H1090  H     0.27115   0.54412   0.74169   0.00000  Uiso   1.00
O1091  O     0.22390   0.59186   0.73213   0.00000  Uiso   1.00
C1092  C     0.09914   0.44425   0.94103   0.00000  Uiso   1.00
H1093  H     0.06219   0.45587   0.92496   0.00000  Uiso   1.00
O1094  O     0.10943   0.40814   0.93454   0.00000  Uiso   1.00
C1095  C     0.22953   0.56080   0.96031   0.00000  Uiso   1.00
H1096  H     0.24270   0.55534   0.92863   0.00000  Uiso   1.00
O1097  O     0.24137   0.59468   0.97852   0.00000  Uiso   1.00
C1098  C     0.10381   0.43920   0.70636   0.00000  Uiso   1.00
H1099  H     0.09064   0.44465   0.73804   0.00000  Uiso   1.00
O1100  O     0.09196   0.40532   0.68815   0.00000  Uiso   1.00
C1101  C     0.50016   0.42009   0.83323   0.00000  Uiso   1.00
C1102  C     0.49984   0.57991   0.83344   0.00000  Uiso   1.00
C1103  C     0.40062   0.49959   0.82159   0.00000  Uiso   1.00
C1104  C     0.59938   0.50041   0.84507   0.00000  Uiso   1.00
C1105  C     0.34605   0.49213   0.81703   0.00000  Uiso   1.00
C1106  C     0.65395   0.50787   0.84963   0.00000  Uiso   1.00
C1107  C     0.48454   0.35388   0.79268   0.00000  Uiso   1.00
C1108  C     0.51546   0.64612   0.87398   0.00000  Uiso   1.00
C1109  C     0.48383   0.64451   0.79285   0.00000  Uiso   1.00
C1110  C     0.51616   0.35549   0.87382   0.00000  Uiso   1.00
C1111  C     0.49953   0.62410   0.83349   0.00000  Uiso   1.00
C1112  C     0.50047   0.37590   0.83317   0.00000  Uiso   1.00
C1113  C     0.53083   0.52823   0.69522   0.00000  Uiso   1.00
C1114  C     0.46917   0.47177   0.97144   0.00000  Uiso   1.00
C1115  C     0.53040   0.52886   0.98041   0.00000  Uiso   1.00
C1116  C     0.46960   0.47114   0.68626   0.00000  Uiso   1.00
H1117  H     0.47216   0.36949   0.76118   0.00000  Uiso   1.00
H1118  H     0.52784   0.63051   0.90549   0.00000  Uiso   1.00
H1119  H     0.47073   0.62759   0.76141   0.00000  Uiso   1.00
H1120  H     0.52927   0.37241   0.90526   0.00000  Uiso   1.00
N1121  N     0.49999   0.49999   0.95240   0.00000  Uiso   1.00
N1122  N     0.50001   0.50001   0.71427   0.00000  Uiso   1.00
O1123  O     0.50000   0.43892   0.87154   0.00000  Uiso   1.00
O1124  O     0.50000   0.56108   0.79513   0.00000  Uiso   1.00
O1125  O     0.50000   0.43893   0.79510   0.00000  Uiso   1.00
O1126  O     0.50000   0.56107   0.87157   0.00000  Uiso   1.00
O1127  O     0.42392   0.50000   0.86261   0.00000  Uiso   1.00
O1128  O     0.57608   0.50000   0.80405   0.00000  Uiso   1.00
O1129  O     0.42392   0.50000   0.78617   0.00000  Uiso   1.00
O1130  O     0.57608   0.50000   0.88050   0.00000  Uiso   1.00
Zn1131 Zn    0.50000   0.49999   0.88437   0.00000  Uiso   1.00
Zn1132 Zn    0.50000   0.50001   0.78229   0.00000  Uiso   1.00
C1133  C     0.65756   0.45923   0.78293   0.00000  Uiso   1.00
H1134  H     0.33631   0.45912   0.74972   0.00000  Uiso   1.00
O1135  O     0.62821   0.43101   0.79244   0.00000  Uiso   1.00
C1136  C     0.34244   0.54077   0.88374   0.00000  Uiso   1.00
H1137  H     0.66371   0.54086   0.91696   0.00000  Uiso   1.00
O1138  O     0.37177   0.56899   0.87422   0.00000  Uiso   1.00
C1139  C     0.56754   0.55575   0.72564   0.00000  Uiso   1.00
H1140  H     0.60448   0.54412   0.74169   0.00000  Uiso   1.00
O1141  O     0.55724   0.59186   0.73213   0.00000  Uiso   1.00
C1142  C     0.43247   0.44425   0.94103   0.00000  Uiso   1.00
H1143  H     0.39553   0.45587   0.92496   0.00000  Uiso   1.00
O1144  O     0.44277   0.40814   0.93454   0.00000  Uiso   1.00
C1145  C     0.56286   0.56080   0.96031   0.00000  Uiso   1.00
H1146  H     0.57604   0.55534   0.92863   0.00000  Uiso   1.00
O1147  O     0.57470   0.59468   0.97852   0.00000  Uiso   1.00
C1148  C     0.43714   0.43920   0.70636   0.00000  Uiso   1.00
H1149  H     0.42397   0.44465   0.73804   0.00000  Uiso   1.00
O1150  O     0.42529   0.40532   0.68815   0.00000  Uiso   1.00
C1151  C     0.83349   0.42009   0.83323   0.00000  Uiso   1.00
C1152  C     0.83318   0.57991   0.83344   0.00000  Uiso   1.00
C1153  C     0.73395   0.49959   0.82159   0.00000  Uiso   1.00
C1154  C     0.93272   0.50041   0.84507   0.00000  Uiso   1.00
C1155  C     0.67938   0.49213   0.81703   0.00000  Uiso   1.00
C1156  C     0.98728   0.50787   0.84963   0.00000  Uiso   1.00
C1157  C     0.81787   0.35388   0.79268   0.00000  Uiso   1.00
C1158  C     0.84880   0.64612   0.87398   0.00000  Uiso   1.00
C1159  C     0.81717   0.64451   0.79285   0.00000  Uiso   1.00
C1160  C     0.84950   0.35549   0.87382   0.00000  Uiso   1.00
C1161  C     0.83286   0.62410   0.83349   0.00000  Uiso   1.00
C1162  C     0.83381   0.37590   0.83317   0.00000  Uiso   1.00
C1163  C     0.86416   0.52823   0.69522   0.00000  Uiso   1.00
C1164  C     0.80250   0.47177   0.97144   0.00000  Uiso   1.00
C1165  C     0.86373   0.52886   0.98041   0.00000  Uiso   1.00
C1166  C     0.80293   0.47114   0.68626   0.00000  Uiso   1.00
H1167  H     0.80549   0.36949   0.76118   0.00000  Uiso   1.00
H1168  H     0.86117   0.63051   0.90549   0.00000  Uiso   1.00
H1169  H     0.80406   0.62759   0.76141   0.00000  Uiso   1.00
H1170  H     0.86260   0.37241   0.90526   0.00000  Uiso   1.00
N1171  N     0.83332   0.49999   0.95240   0.00000  Uiso   1.00
N1172  N     0.83335   0.50001   0.71427   0.00000  Uiso   1.00
O1173  O     0.83333   0.43892   0.87154   0.00000  Uiso   1.00
O1174  O     0.83334   0.56108   0.79513   0.00000  Uiso   1.00
O1175  O     0.83333   0.43893   0.79510   0.00000  Uiso   1.00
O1176  O     0.83334   0.56107   0.87157   0.00000  Uiso   1.00
O1177  O     0.75725   0.50000   0.86261   0.00000  Uiso   1.00
O1178  O     0.90942   0.50000   0.80405   0.00000  Uiso   1.00
O1179  O     0.75725   0.50000   0.78617   0.00000  Uiso   1.00
O1180  O     0.90942   0.50000   0.88050   0.00000  Uiso   1.00
Zn1181 Zn    0.83333   0.49999   0.88437   0.00000  Uiso   1.00
Zn1182 Zn    0.83333   0.50001   0.78229   0.00000  Uiso   1.00
C1183  C     0.99089   0.45923   0.78293   0.00000  Uiso   1.00
H1184  H     0.66964   0.45912   0.74972   0.00000  Uiso   1.00
O1185  O     0.96154   0.43101   0.79244   0.00000  Uiso   1.00
C1186  C     0.67578   0.54077   0.88374   0.00000  Uiso   1.00
H1187  H     0.99705   0.54086   0.91696   0.00000  Uiso   1.00
O1188  O     0.70511   0.56899   0.87422   0.00000  Uiso   1.00
C1189  C     0.90087   0.55575   0.72564   0.00000  Uiso   1.00
H1190  H     0.93782   0.54412   0.74169   0.00000  Uiso   1.00
O1191  O     0.89057   0.59186   0.73213   0.00000  Uiso   1.00
C1192  C     0.76580   0.44425   0.94103   0.00000  Uiso   1.00
H1193  H     0.72886   0.45587   0.92496   0.00000  Uiso   1.00
O1194  O     0.77610   0.40814   0.93454   0.00000  Uiso   1.00
C1195  C     0.89619   0.56080   0.96031   0.00000  Uiso   1.00
H1196  H     0.90937   0.55534   0.92863   0.00000  Uiso   1.00
O1197  O     0.90804   0.59468   0.97852   0.00000  Uiso   1.00
C1198  C     0.77047   0.43920   0.70636   0.00000  Uiso   1.00
H1199  H     0.75730   0.44465   0.73804   0.00000  Uiso   1.00
O1200  O     0.75862   0.40532   0.68815   0.00000  Uiso   1.00
C1201  C     0.16682   0.75343   0.83323   0.00000  Uiso   1.00
C1202  C     0.16651   0.91324   0.83344   0.00000  Uiso   1.00
C1203  C     0.06728   0.83292   0.82159   0.00000  Uiso   1.00
C1204  C     0.26605   0.83375   0.84507   0.00000  Uiso   1.00
C1205  C     0.01272   0.82546   0.81703   0.00000  Uiso   1.00
C1206  C     0.32062   0.84120   0.84963   0.00000  Uiso   1.00
C1207  C     0.15120   0.68721   0.79268   0.00000  Uiso   1.00
C1208  C     0.18213   0.97946   0.87398   0.00000  Uiso   1.00
C1209  C     0.15050   0.97785   0.79285   0.00000  Uiso   1.00
C1210  C     0.18283   0.68882   0.87382   0.00000  Uiso   1.00
C1211  C     0.16619   0.95744   0.83349   0.00000  Uiso   1.00
C1212  C     0.16714   0.70923   0.83317   0.00000  Uiso   1.00
C1213  C     0.19750   0.86157   0.69522   0.00000  Uiso   1.00
C1214  C     0.13584   0.80510   0.97144   0.00000  Uiso   1.00
C1215  C     0.19707   0.86219   0.98041   0.00000  Uiso   1.00
C1216  C     0.13627   0.80447   0.68626   0.00000  Uiso   1.00
H1217  H     0.13883   0.70282   0.76118   0.00000  Uiso   1.00
H1218  H     0.19451   0.96385   0.90549   0.00000  Uiso   1.00
H1219  H     0.13740   0.96092   0.76141   0.00000  Uiso   1.00
H1220  H     0.19593   0.70574   0.90526   0.00000  Uiso   1.00
N1221  N     0.16665   0.83332   0.95240   0.00000  Uiso   1.00
N1222  N     0.16668   0.83334   0.71427   0.00000  Uiso   1.00
O1223  O     0.16666   0.77225   0.87154   0.00000  Uiso   1.00
O1224  O     0.16667   0.89442   0.79513   0.00000  Uiso   1.00
O1225  O     0.16666   0.77226   0.79510   0.00000  Uiso   1.00
O1226  O     0.16667   0.89441   0.87157   0.00000  Uiso   1.00
O1227  O     0.09058   0.83333   0.86261   0.00000  Uiso   1.00
O1228  O     0.24275   0.83334   0.80405   0.00000  Uiso   1.00
O1229  O     0.09058   0.83334   0.78617   0.00000  Uiso   1.00
O1230  O     0.24275   0.83333   0.88050   0.00000  Uiso   1.00
Zn1231 Zn    0.16667   0.83333   0.88437   0.00000  Uiso   1.00
Zn1232 Zn    0.16667   0.83334   0.78229   0.00000  Uiso   1.00
C1233  C     0.32422   0.79256   0.78293   0.00000  Uiso   1.00
H1234  H     0.00298   0.79245   0.74972   0.00000  Uiso   1.00
O1235  O     0.29487   0.76435   0.79244   0.00000  Uiso   1.00
C1236  C     0.00911   0.87410   0.88374   0.00000  Uiso   1.00
H1237  H     0.33038   0.87419   0.91696   0.00000  Uiso   1.00
O1238  O     0.03844   0.90233   0.87422   0.00000  Uiso   1.00
C1239  C     0.23420   0.88908   0.72564   0.00000  Uiso   1.00
H1240  H     0.27115   0.87746   0.74169   0.00000  Uiso   1.00
O1241  O     0.22390   0.92519   0.73213   0.00000  Uiso   1.00
C1242  C     0.09914   0.77758   0.94103   0.00000  Uiso   1.00
H1243  H     0.06219   0.78921   0.92496   0.00000  Uiso   1.00
O1244  O     0.10943   0.74147   0.93454   0.00000  Uiso   1.00
C1245  C     0.22953   0.89413   0.96031   0.00000  Uiso   1.00
H1246  H     0.24270   0.88868   0.92863   0.00000  Uiso   1.00
O1247  O     0.24137   0.92802   0.97852   0.00000  Uiso   1.00
C1248  C     0.10381   0.77253   0.70636   0.00000  Uiso   1.00
H1249  H     0.09064   0.77799   0.73804   0.00000  Uiso   1.00
O1250  O     0.09196   0.73865   0.68815   0.00000  Uiso   1.00
C1251  C     0.50016   0.75343   0.83323   0.00000  Uiso   1.00
C1252  C     0.49984   0.91324   0.83344   0.00000  Uiso   1.00
C1253  C     0.40062   0.83292   0.82159   0.00000  Uiso   1.00
C1254  C     0.59938   0.83375   0.84507   0.00000  Uiso   1.00
C1255  C     0.34605   0.82546   0.81703   0.00000  Uiso   1.00
C1256  C     0.65395   0.84120   0.84963   0.00000  Uiso   1.00
C1257  C     0.48454   0.68721   0.79268   0.00000  Uiso   1.00
C1258  C     0.51546   0.97946   0.87398   0.00000  Uiso   1.00
C1259  C     0.48383   0.97785   0.79285   0.00000  Uiso   1.00
C1260  C     0.51616   0.68882   0.87382   0.00000  Uiso   1.00
C1261  C     0.49953   0.95744   0.83349   0.00000  Uiso   1.00
C1262  C     0.50047   0.70923   0.83317   0.00000  Uiso   1.00
C1263  C     0.53083   0.86157   0.69522   0.00000  Uiso   1.00
C1264  C     0.46917   0.80510   0.97144   0.00000  Uiso   1.00
C1265  C     0.53040   0.86219   0.98041   0.00000  Uiso   1.00
C1266  C     0.46960   0.80447   0.68626   0.00000  Uiso   1.00
H1267  H     0.47216   0.70282   0.76118   0.00000  Uiso   1.00
H1268  H     0.52784   0.96385   0.90549   0.00000  Uiso   1.00
H1269  H     0.47073   0.96092   0.76141   0.00000  Uiso   1.00
H1270  H     0.52927   0.70574   0.90526   0.00000  Uiso   1.00
N1271  N     0.49999   0.83332   0.95240   0.00000  Uiso   1.00
N1272  N     0.50001   0.83334   0.71427   0.00000  Uiso   1.00
O1273  O     0.50000   0.77225   0.87154   0.00000  Uiso   1.00
O1274  O     0.50000   0.89442   0.79513   0.00000  Uiso   1.00
O1275  O     0.50000   0.77226   0.79510   0.00000  Uiso   1.00
O1276  O     0.50000   0.89441   0.87157   0.00000  Uiso   1.00
O1277  O     0.42392   0.83333   0.86261   0.00000  Uiso   1.00
O1278  O     0.57608   0.83334   0.80405   0.00000  Uiso   1.00
O1279  O     0.42392   0.83334   0.78617   0.00000  Uiso   1.00
O1280  O     0.57608   0.83333   0.88050   0.00000  Uiso   1.00
Zn1281 Zn    0.50000   0.83333   0.88437   0.00000  Uiso   1.00
Zn1282 Zn    0.50000   0.83334   0.78229   0.00000  Uiso   1.00
C1283  C     0.65756   0.79256   0.78293   0.00000  Uiso   1.00
H1284  H     0.33631   0.79245   0.74972   0.00000  Uiso   1.00
O1285  O     0.62821   0.76435   0.79244   0.00000  Uiso   1.00
C1286  C     0.34244   0.87410   0.88374   0.00000  Uiso   1.00
H1287  H     0.66371   0.87419   0.91696   0.00000  Uiso   1.00
O1288  O     0.37177   0.90233   0.87422   0.00000  Uiso   1.00
C1289  C     0.56754   0.88908   0.72564   0.00000  Uiso   1.00
H1290  H     0.60448   0.87746   0.74169   0.00000  Uiso   1.00
O1291  O     0.55724   0.92519   0.73213   0.00000  Uiso   1.00
C1292  C     0.43247   0.77758   0.94103   0.00000  Uiso   1.00
H1293  H     0.39553   0.78921   0.92496   0.00000  Uiso   1.00
O1294  O     0.44277   0.74147   0.93454   0.00000  Uiso   1.00
C1295  C     0.56286   0.89413   0.96031   0.00000  Uiso   1.00
H1296  H     0.57604   0.88868   0.92863   0.00000  Uiso   1.00
O1297  O     0.57470   0.92802   0.97852   0.00000  Uiso   1.00
C1298  C     0.43714   0.77253   0.70636   0.00000  Uiso   1.00
H1299  H     0.42397   0.77799   0.73804   0.00000  Uiso   1.00
O1300  O     0.42529   0.73865   0.68815   0.00000  Uiso   1.00
C1301  C     0.83349   0.75343   0.83323   0.00000  Uiso   1.00
C1302  C     0.83318   0.91324   0.83344   0.00000  Uiso   1.00
C1303  C     0.73395   0.83292   0.82159   0.00000  Uiso   1.00
C1304  C     0.93272   0.83375   0.84507   0.00000  Uiso   1.00
C1305  C     0.67938   0.82546   0.81703   0.00000  Uiso   1.00
C1306  C     0.98728   0.84120   0.84963   0.00000  Uiso   1.00
C1307  C     0.81787   0.68721   0.79268   0.00000  Uiso   1.00
C1308  C     0.84880   0.97946   0.87398   0.00000  Uiso   1.00
C1309  C     0.81717   0.97785   0.79285   0.00000  Uiso   1.00
C1310  C     0.84950   0.68882   0.87382   0.00000  Uiso   1.00
C1311  C     0.83286   0.95744   0.83349   0.00000  Uiso   1.00
C1312  C     0.83381   0.70923   0.83317   0.00000  Uiso   1.00
C1313  C     0.86416   0.86157   0.69522   0.00000  Uiso   1.00
C1314  C     0.80250   0.80510   0.97144   0.00000  Uiso   1.00
C1315  C     0.86373   0.86219   0.98041   0.00000  Uiso   1.00
C1316  C     0.80293   0.80447   0.68626   0.00000  Uiso   1.00
H1317  H     0.80549   0.70282   0.76118   0.00000  Uiso   1.00
H1318  H     0.86117   0.96385   0.90549   0.00000  Uiso   1.00
H1319  H     0.80406   0.96092   0.76141   0.00000  Uiso   1.00
H1320  H     0.86260   0.70574   0.90526   0.00000  Uiso   1.00
N1321  N     0.83332   0.83332   0.95240   0.00000  Uiso   1.00
N1322  N     0.83335   0.83334   0.71427   0.00000  Uiso   1.00
O1323  O     0.83333   0.77225   0.87154   0.00000  Uiso   1.00
O1324  O     0.83334   0.89442   0.79513   0.00000  Uiso   1.00
O1325  O     0.83333   0.77226   0.79510   0.00000  Uiso   1.00
O1326  O     0.83334   0.89441   0.87157   0.00000  Uiso   1.00
O1327  O     0.75725   0.83333   0.86261   0.00000  Uiso   1.00
O1328  O     0.90942   0.83334   0.80405   0.00000  Uiso   1.00
O1329  O     0.75725   0.83334   0.78617   0.00000  Uiso   1.00
O1330  O     0.90942   0.83333   0.88050   0.00000  Uiso   1.00
Zn1331 Zn    0.83333   0.83333   0.88437   0.00000  Uiso   1.00
Zn1332 Zn    0.83333   0.83334   0.78229   0.00000  Uiso   1.00
C1333  C     0.99089   0.79256   0.78293   0.00000  Uiso   1.00
H1334  H     0.66964   0.79245   0.74972   0.00000  Uiso   1.00
O1335  O     0.96154   0.76435   0.79244   0.00000  Uiso   1.00
C1336  C     0.67578   0.87410   0.88374   0.00000  Uiso   1.00
H1337  H     0.99705   0.87419   0.91696   0.00000  Uiso   1.00
O1338  O     0.70511   0.90233   0.87422   0.00000  Uiso   1.00
C1339  C     0.90087   0.88908   0.72564   0.00000  Uiso   1.00
H1340  H     0.93782   0.87746   0.74169   0.00000  Uiso   1.00
O1341  O     0.89057   0.92519   0.73213   0.00000  Uiso   1.00
C1342  C     0.76580   0.77758   0.94103   0.00000  Uiso   1.00
H1343  H     0.72886   0.78921   0.92496   0.00000  Uiso   1.00
O1344  O     0.77610   0.74147   0.93454   0.00000  Uiso   1.00
C1345  C     0.89619   0.89413   0.96031   0.00000  Uiso   1.00
H1346  H     0.90937   0.88868   0.92863   0.00000  Uiso   1.00
O1347  O     0.90804   0.92802   0.97852   0.00000  Uiso   1.00
C1348  C     0.77047   0.77253   0.70636   0.00000  Uiso   1.00
H1349  H     0.75730   0.77799   0.73804   0.00000  Uiso   1.00
O1350  O     0.75862   0.73865   0.68815   0.00000  Uiso   1.00
loop_
_geom_bond_atom_site_label_1
_geom_bond_atom_site_label_2
_geom_bond_distance
_geom_bond_site_symmetry_2
_ccdc_geom_bond_type
C1     O25     1.293   .     A
C1     C12     1.419   .     S
C1     O23     1.291   .     A
C2     O26     1.293   .     A
C2     C11     1.419   .     S
C2     O24     1.291   .     A
C3     O29     1.294   .     A
C3     O27     1.281   .     A
C3     C5      1.409   .     S
C4     O30     1.294   .     A
C4     C6      1.408   .     S
C4     O28     1.281   .     A
C5     C106    1.360   1_455 S
C5     C133    1.496   1_455 S
C6     C55     1.360   .     S
C6     C86     1.496   .     S
C7     C12     1.395   .     A
C7     H17     1.080   .     S
C7     C309    1.370   1_545 S
C8     C11     1.395   .     A
C8     H18     1.080   .     S
C8     C160    1.370   .     S
C9     C11     1.397   .     A
C9     H19     1.084   .     S
C9     C157    1.370   .     S
C10    C12     1.397   .     A
C10    H20     1.084   .     S
C10    C308    1.370   1_545 S
C13    N22     1.367   .     A
C13    C39     1.473   .     S
C13    C915    1.437   1_554 S
C14    C42     1.473   .     S
C14    N21     1.367   .     A
C14    C466    1.437   .     S
C15    N21     1.383   .     A
C15    C45     1.487   .     S
C15    C463    1.437   .     S
C16    C48     1.487   .     S
C16    N22     1.383   .     A
C16    C914    1.437   1_554 S
N21    Zn31    2.032   .     S
N22    Zn32    2.032   .     S
O23    Zn31    1.995   .     S
O24    Zn32    1.995   .     S
O25    Zn32    2.000   .     S
O26    Zn31    2.000   .     S
O27    Zn31    1.977   .     S
O28    Zn32    1.977   .     S
O29    Zn32    1.989   .     S
O30    Zn31    1.989   .     S
C33    O35     1.222   .     D
C33    C55     1.496   .     S
C33    H84     1.084   .     S
H34    C133    1.084   1_455 S
C36    O38     1.222   .     D
C36    C106    1.496   1_455 S
C36    H137    1.084   1_455 S
H37    C86     1.084   .     S
C39    O41     1.220   .     D
C39    H40     1.084   .     S
C42    O44     1.220   .     D
C42    H43     1.084   .     S
C45    H46     1.069   .     S
C45    O47     1.220   .     D
C48    O50     1.220   .     D
C48    H49     1.069   .     S
C51    O75     1.293   .     A
C51    C62     1.419   .     S
C51    O73     1.291   .     A
C52    O76     1.293   .     A
C52    C61     1.419   .     S
C52    O74     1.291   .     A
C53    O79     1.294   .     A
C53    O77     1.281   .     A
C53    C55     1.409   .     S
C54    O80     1.294   .     A
C54    C56     1.408   .     S
C54    O78     1.281   .     A
C56    C105    1.360   .     S
C56    C136    1.496   .     S
C57    C62     1.395   .     A
C57    H67     1.080   .     S
C57    C359    1.370   1_545 S
C58    C61     1.395   .     A
C58    H68     1.080   .     S
C58    C210    1.370   .     S
C59    C61     1.397   .     A
C59    H69     1.084   .     S
C59    C207    1.370   .     S
C60    C62     1.397   .     A
C60    H70     1.084   .     S
C60    C358    1.370   1_545 S
C63    N72     1.367   .     A
C63    C89     1.473   .     S
C63    C965    1.437   1_554 S
C64    C92     1.473   .     S
C64    N71     1.367   .     A
C64    C516    1.437   .     S
C65    N71     1.383   .     A
C65    C95     1.487   .     S
C65    C513    1.437   .     S
C66    C98     1.487   .     S
C66    N72     1.383   .     A
C66    C964    1.437   1_554 S
N71    Zn81    2.032   .     S
N72    Zn82    2.032   .     S
O73    Zn81    1.995   .     S
O74    Zn82    1.995   .     S
O75    Zn82    2.000   .     S
O76    Zn81    2.000   .     S
O77    Zn81    1.977   .     S
O78    Zn82    1.977   .     S
O79    Zn82    1.989   .     S
O80    Zn81    1.989   .     S
C83    O85     1.222   .     D
C83    C105    1.496   .     S
C83    H134    1.084   .     S
C86    O88     1.222   .     D
H87    C136    1.084   .     S
C89    O91     1.220   .     D
C89    H90     1.084   .     S
C92    O94     1.220   .     D
C92    H93     1.084   .     S
C95    H96     1.069   .     S
C95    O97     1.220   .     D
C98    O100    1.220   .     D
C98    H99     1.069   .     S
C101   O125    1.293   .     A
C101   C112    1.419   .     S
C101   O123    1.291   .     A
C102   O126    1.293   .     A
C102   C111    1.419   .     S
C102   O124    1.291   .     A
C103   O129    1.294   .     A
C103   O127    1.281   .     A
C103   C105    1.409   .     S
C104   O130    1.294   .     A
C104   C106    1.408   .     S
C104   O128    1.281   .     A
C106   C5      1.360   1_655 S
C106   C36     1.496   1_655 S
C107   C112    1.395   .     A
C107   H117    1.080   .     S
C107   C409    1.370   1_545 S
C108   C111    1.395   .     A
C108   H118    1.080   .     S
C108   C260    1.370   .     S
C109   C111    1.397   .     A
C109   H119    1.084   .     S
C109   C257    1.370   .     S
C110   C112    1.397   .     A
C110   H120    1.084   .     S
C110   C408    1.370   1_545 S
C113   N122    1.367   .     A
C113   C139    1.473   .     S
C113   C1015   1.437   1_554 S
C114   C142    1.473   .     S
C114   N121    1.367   .     A
C114   C566    1.437   .     S
C115   N121    1.383   .     A
C115   C145    1.487   .     S
C115   C563    1.437   .     S
C116   C148    1.487   .     S
C116   N122    1.383   .     A
C116   C1014   1.437   1_554 S
N121   Zn131   2.032   .     S
N122   Zn132   2.032   .     S
O123   Zn131   1.995   .     S
O124   Zn132   1.995   .     S
O125   Zn132   2.000   .     S
O126   Zn131   2.000   .     S
O127   Zn131   1.977   .     S
O128   Zn132   1.977   .     S
O129   Zn132   1.989   .     S
O130   Zn131   1.989   .     S
C133   O135    1.222   .     D
C133   C5      1.496   1_655 S
C133   H34     1.084   1_655 S
C136   O138    1.222   .     D
H137   C36     1.084   1_655 S
C139   O141    1.220   .     D
C139   H140    1.084   .     S
C142   O144    1.220   .     D
C142   H143    1.084   .     S
C145   H146    1.069   .     S
C145   O147    1.220   .     D
C148   O150    1.220   .     D
C148   H149    1.069   .     S
C151   O175    1.293   .     A
C151   C162    1.419   .     S
C151   O173    1.291   .     A
C152   O176    1.293   .     A
C152   C161    1.419   .     S
C152   O174    1.291   .     A
C153   O179    1.294   .     A
C153   O177    1.281   .     A
C153   C155    1.409   .     S
C154   O180    1.294   .     A
C154   C156    1.408   .     S
C154   O178    1.281   .     A
C155   C256    1.360   1_455 S
C155   C283    1.496   1_455 S
C156   C205    1.360   .     S
C156   C236    1.496   .     S
C157   C162    1.395   .     A
C157   H167    1.080   .     S
C158   C161    1.395   .     A
C158   H168    1.080   .     S
C158   C310    1.370   .     S
C159   C161    1.397   .     A
C159   H169    1.084   .     S
C159   C307    1.370   .     S
C160   C162    1.397   .     A
C160   H170    1.084   .     S
C163   N172    1.367   .     A
C163   C189    1.473   .     S
C163   C1065   1.437   1_554 S
C164   C192    1.473   .     S
C164   N171    1.367   .     A
C164   C616    1.437   .     S
C165   N171    1.383   .     A
C165   C195    1.487   .     S
C165   C613    1.437   .     S
C166   C198    1.487   .     S
C166   N172    1.383   .     A
C166   C1064   1.437   1_554 S
N171   Zn181   2.032   .     S
N172   Zn182   2.032   .     S
O173   Zn181   1.995   .     S
O174   Zn182   1.995   .     S
O175   Zn182   2.000   .     S
O176   Zn181   2.000   .     S
O177   Zn181   1.977   .     S
O178   Zn182   1.977   .     S
O179   Zn182   1.989   .     S
O180   Zn181   1.989   .     S
C183   O185    1.222   .     D
C183   C205    1.496   .     S
C183   H234    1.084   .     S
H184   C283    1.084   1_455 S
C186   O188    1.222   .     D
C186   C256    1.496   1_455 S
C186   H287    1.084   1_455 S
H187   C236    1.084   .     S
C189   O191    1.220   .     D
C189   H190    1.084   .     S
C192   O194    1.220   .     D
C192   H193    1.084   .     S
C195   H196    1.069   .     S
C195   O197    1.220   .     D
C198   O200    1.220   .     D
C198   H199    1.069   .     S
C201   O225    1.293   .     A
C201   C212    1.419   .     S
C201   O223    1.291   .     A
C202   O226    1.293   .     A
C202   C211    1.419   .     S
C202   O224    1.291   .     A
C203   O229    1.294   .     A
C203   O227    1.281   .     A
C203   C205    1.409   .     S
C204   O230    1.294   .     A
C204   C206    1.408   .     S
C204   O228    1.281   .     A
C206   C255    1.360   .     S
C206   C286    1.496   .     S
C207   C212    1.395   .     A
C207   H217    1.080   .     S
C208   C211    1.395   .     A
C208   H218    1.080   .     S
C208   C360    1.370   .     S
C209   C211    1.397   .     A
C209   H219    1.084   .     S
C209   C357    1.370   .     S
C210   C212    1.397   .     A
C210   H220    1.084   .     S
C213   N222    1.367   .     A
C213   C239    1.473   .     S
C213   C1115   1.437   1_554 S
C214   C242    1.473   .     S
C214   N221    1.367   .     A
C214   C666    1.437   .     S
C215   N221    1.383   .     A
C215   C245    1.487   .     S
C215   C663    1.437   .     S
C216   C248    1.487   .     S
C216   N222    1.383   .     A
C216   C1114   1.437   1_554 S
N221   Zn231   2.032   .     S
N222   Zn232   2.032   .     S
O223   Zn231   1.995   .     S
O224   Zn232   1.995   .     S
O225   Zn232   2.000   .     S
O226   Zn231   2.000   .     S
O227   Zn231   1.977   .     S
O228   Zn232   1.977   .     S
O229   Zn232   1.989   .     S
O230   Zn231   1.989   .     S
C233   O235    1.222   .     D
C233   C255    1.496   .     S
C233   H284    1.084   .     S
C236   O238    1.222   .     D
H237   C286    1.084   .     S
C239   O241    1.220   .     D
C239   H240    1.084   .     S
C242   O244    1.220   .     D
C242   H243    1.084   .     S
C245   H246    1.069   .     S
C245   O247    1.220   .     D
C248   O250    1.220   .     D
C248   H249    1.069   .     S
C251   O275    1.293   .     A
C251   C262    1.419   .     S
C251   O273    1.291   .     A
C252   O276    1.293   .     A
C252   C261    1.419   .     S
C252   O274    1.291   .     A
C253   O279    1.294   .     A
C253   O277    1.281   .     A
C253   C255    1.409   .     S
C254   O280    1.294   .     A
C254   C256    1.408   .     S
C254   O278    1.281   .     A
C256   C155    1.360   1_655 S
C256   C186    1.496   1_655 S
C257   C262    1.395   .     A
C257   H267    1.080   .     S
C258   C261    1.395   .     A
C258   H268    1.080   .     S
C258   C410    1.370   .     S
C259   C261    1.397   .     A
C259   H269    1.084   .     S
C259   C407    1.370   .     S
C260   C262    1.397   .     A
C260   H270    1.084   .     S
C263   N272    1.367   .     A
C263   C289    1.473   .     S
C263   C1165   1.437   1_554 S
C264   C292    1.473   .     S
C264   N271    1.367   .     A
C264   C716    1.437   .     S
C265   N271    1.383   .     A
C265   C295    1.487   .     S
C265   C713    1.437   .     S
C266   C298    1.487   .     S
C266   N272    1.383   .     A
C266   C1164   1.437   1_554 S
N271   Zn281   2.032   .     S
N272   Zn282   2.032   .     S
O273   Zn281   1.995   .     S
O274   Zn282   1.995   .     S
O275   Zn282   2.000   .     S
O276   Zn281   2.000   .     S
O277   Zn281   1.977   .     S
O278   Zn282   1.977   .     S
O279   Zn282   1.989   .     S
O280   Zn281   1.989   .     S
C283   O285    1.222   .     D
C283   C155    1.496   1_655 S
C283   H184    1.084   1_655 S
C286   O288    1.222   .     D
H287   C186    1.084   1_655 S
C289   O291    1.220   .     D
C289   H290    1.084   .     S
C292   O294    1.220   .     D
C292   H293    1.084   .     S
C295   H296    1.069   .     S
C295   O297    1.220   .     D
C298   O300    1.220   .     D
C298   H299    1.069   .     S
C301   O325    1.293   .     A
C301   C312    1.419   .     S
C301   O323    1.291   .     A
C302   O326    1.293   .     A
C302   C311    1.419   .     S
C302   O324    1.291   .     A
C303   O329    1.294   .     A
C303   O327    1.281   .     A
C303   C305    1.409   .     S
C304   O330    1.294   .     A
C304   C306    1.408   .     S
C304   O328    1.281   .     A
C305   C406    1.360   1_455 S
C305   C433    1.496   1_455 S
C306   C355    1.360   .     S
C306   C386    1.496   .     S
C307   C312    1.395   .     A
C307   H317    1.080   .     S
C308   C311    1.395   .     A
C308   H318    1.080   .     S
C308   C10     1.370   1_565 S
C309   C311    1.397   .     A
C309   H319    1.084   .     S
C309   C7      1.370   1_565 S
C310   C312    1.397   .     A
C310   H320    1.084   .     S
C313   N322    1.367   .     A
C313   C339    1.473   .     S
C313   C1215   1.437   1_554 S
C314   C342    1.473   .     S
C314   N321    1.367   .     A
C314   C766    1.437   .     S
C315   N321    1.383   .     A
C315   C345    1.487   .     S
C315   C763    1.437   .     S
C316   C348    1.487   .     S
C316   N322    1.383   .     A
C316   C1214   1.437   1_554 S
N321   Zn331   2.032   .     S
N322   Zn332   2.032   .     S
O323   Zn331   1.995   .     S
O324   Zn332   1.995   .     S
O325   Zn332   2.000   .     S
O326   Zn331   2.000   .     S
O327   Zn331   1.977   .     S
O328   Zn332   1.977   .     S
O329   Zn332   1.989   .     S
O330   Zn331   1.989   .     S
C333   O335    1.222   .     D
C333   C355    1.496   .     S
C333   H384    1.084   .     S
H334   C433    1.084   1_455 S
C336   O338    1.222   .     D
C336   C406    1.496   1_455 S
C336   H437    1.084   1_455 S
H337   C386    1.084   .     S
C339   O341    1.220   .     D
C339   H340    1.084   .     S
C342   O344    1.220   .     D
C342   H343    1.084   .     S
C345   H346    1.069   .     S
C345   O347    1.220   .     D
C348   O350    1.220   .     D
C348   H349    1.069   .     S
C351   O375    1.293   .     A
C351   C362    1.419   .     S
C351   O373    1.291   .     A
C352   O376    1.293   .     A
C352   C361    1.419   .     S
C352   O374    1.291   .     A
C353   O379    1.294   .     A
C353   O377    1.281   .     A
C353   C355    1.409   .     S
C354   O380    1.294   .     A
C354   C356    1.408   .     S
C354   O378    1.281   .     A
C356   C405    1.360   .     S
C356   C436    1.496   .     S
C357   C362    1.395   .     A
C357   H367    1.080   .     S
C358   C361    1.395   .     A
C358   H368    1.080   .     S
C358   C60     1.370   1_565 S
C359   C361    1.397   .     A
C359   H369    1.084   .     S
C359   C57     1.370   1_565 S
C360   C362    1.397   .     A
C360   H370    1.084   .     S
C363   N372    1.367   .     A
C363   C389    1.473   .     S
C363   C1265   1.437   1_554 S
C364   C392    1.473   .     S
C364   N371    1.367   .     A
C364   C816    1.437   .     S
C365   N371    1.383   .     A
C365   C395    1.487   .     S
C365   C813    1.437   .     S
C366   C398    1.487   .     S
C366   N372    1.383   .     A
C366   C1264   1.437   1_554 S
N371   Zn381   2.032   .     S
N372   Zn382   2.032   .     S
O373   Zn381   1.995   .     S
O374   Zn382   1.995   .     S
O375   Zn382   2.000   .     S
O376   Zn381   2.000   .     S
O377   Zn381   1.977   .     S
O378   Zn382   1.977   .     S
O379   Zn382   1.989   .     S
O380   Zn381   1.989   .     S
C383   O385    1.222   .     D
C383   C405    1.496   .     S
C383   H434    1.084   .     S
C386   O388    1.222   .     D
H387   C436    1.084   .     S
C389   O391    1.220   .     D
C389   H390    1.084   .     S
C392   O394    1.220   .     D
C392   H393    1.084   .     S
C395   H396    1.069   .     S
C395   O397    1.220   .     D
C398   O400    1.220   .     D
C398   H399    1.069   .     S
C401   O425    1.293   .     A
C401   C412    1.419   .     S
C401   O423    1.291   .     A
C402   O426    1.293   .     A
C402   C411    1.419   .     S
C402   O424    1.291   .     A
C403   O429    1.294   .     A
C403   O427    1.281   .     A
C403   C405    1.409   .     S
C404   O430    1.294   .     A
C404   C406    1.408   .     S
C404   O428    1.281   .     A
C406   C305    1.360   1_655 S
C406   C336    1.496   1_655 S
C407   C412    1.395   .     A
C407   H417    1.080   .     S
C408   C411    1.395   .     A
C408   H418    1.080   .     S
C408   C110    1.370   1_565 S
C409   C411    1.397   .     A
C409   H419    1.084   .     S
C409   C107    1.370   1_565 S
C410   C412    1.397   .     A
C410   H420    1.084   .     S
C413   N422    1.367   .     A
C413   C439    1.473   .     S
C413   C1315   1.437   1_554 S
C414   C442    1.473   .     S
C414   N421    1.367   .     A
C414   C866    1.437   .     S
C415   N421    1.383   .     A
C415   C445    1.487   .     S
C415   C863    1.437   .     S
C416   C448    1.487   .     S
C416   N422    1.383   .     A
C416   C1314   1.437   1_554 S
N421   Zn431   2.032   .     S
N422   Zn432   2.032   .     S
O423   Zn431   1.995   .     S
O424   Zn432   1.995   .     S
O425   Zn432   2.000   .     S
O426   Zn431   2.000   .     S
O427   Zn431   1.977   .     S
O428   Zn432   1.977   .     S
O429   Zn432   1.989   .     S
O430   Zn431   1.989   .     S
C433   O435    1.222   .     D
C433   C305    1.496   1_655 S
C433   H334    1.084   1_655 S
C436   O438    1.222   .     D
H437   C336    1.084   1_655 S
C439   O441    1.220   .     D
C439   H440    1.084   .     S
C442   O444    1.220   .     D
C442   H443    1.084   .     S
C445   H446    1.069   .     S
C445   O447    1.220   .     D
C448   O450    1.220   .     D
C448   H449    1.069   .     S
C451   O475    1.293   .     A
C451   C462    1.419   .     S
C451   O473    1.291   .     A
C452   O476    1.293   .     A
C452   C461    1.419   .     S
C452   O474    1.291   .     A
C453   O479    1.294   .     A
C453   O477    1.281   .     A
C453   C455    1.409   .     S
C454   O480    1.294   .     A
C454   C456    1.408   .     S
C454   O478    1.281   .     A
C455   C556    1.360   1_455 S
C455   C583    1.496   1_455 S
C456   C505    1.360   .     S
C456   C536    1.496   .     S
C457   C462    1.395   .     A
C457   H467    1.080   .     S
C457   C759    1.370   1_545 S
C458   C461    1.395   .     A
C458   H468    1.080   .     S
C458   C610    1.370   .     S
C459   C461    1.397   .     A
C459   H469    1.084   .     S
C459   C607    1.370   .     S
C460   C462    1.397   .     A
C460   H470    1.084   .     S
C460   C758    1.370   1_545 S
C463   N472    1.367   .     A
C463   C489    1.473   .     S
C464   C492    1.473   .     S
C464   N471    1.367   .     A
C464   C916    1.437   .     S
C465   N471    1.383   .     A
C465   C495    1.487   .     S
C465   C913    1.437   .     S
C466   C498    1.487   .     S
C466   N472    1.383   .     A
N471   Zn481   2.032   .     S
N472   Zn482   2.032   .     S
O473   Zn481   1.995   .     S
O474   Zn482   1.995   .     S
O475   Zn482   2.000   .     S
O476   Zn481   2.000   .     S
O477   Zn481   1.977   .     S
O478   Zn482   1.977   .     S
O479   Zn482   1.989   .     S
O480   Zn481   1.989   .     S
C483   O485    1.222   .     D
C483   C505    1.496   .     S
C483   H534    1.084   .     S
H484   C583    1.084   1_455 S
C486   O488    1.222   .     D
C486   C556    1.496   1_455 S
C486   H587    1.084   1_455 S
H487   C536    1.084   .     S
C489   O491    1.220   .     D
C489   H490    1.084   .     S
C492   O494    1.220   .     D
C492   H493    1.084   .     S
C495   H496    1.069   .     S
C495   O497    1.220   .     D
C498   O500    1.220   .     D
C498   H499    1.069   .     S
C501   O525    1.293   .     A
C501   C512    1.419   .     S
C501   O523    1.291   .     A
C502   O526    1.293   .     A
C502   C511    1.419   .     S
C502   O524    1.291   .     A
C503   O529    1.294   .     A
C503   O527    1.281   .     A
C503   C505    1.409   .     S
C504   O530    1.294   .     A
C504   C506    1.408   .     S
C504   O528    1.281   .     A
C506   C555    1.360   .     S
C506   C586    1.496   .     S
C507   C512    1.395   .     A
C507   H517    1.080   .     S
C507   C809    1.370   1_545 S
C508   C511    1.395   .     A
C508   H518    1.080   .     S
C508   C660    1.370   .     S
C509   C511    1.397   .     A
C509   H519    1.084   .     S
C509   C657    1.370   .     S
C510   C512    1.397   .     A
C510   H520    1.084   .     S
C510   C808    1.370   1_545 S
C513   N522    1.367   .     A
C513   C539    1.473   .     S
C514   C542    1.473   .     S
C514   N521    1.367   .     A
C514   C966    1.437   .     S
C515   N521    1.383   .     A
C515   C545    1.487   .     S
C515   C963    1.437   .     S
C516   C548    1.487   .     S
C516   N522    1.383   .     A
N521   Zn531   2.032   .     S
N522   Zn532   2.032   .     S
O523   Zn531   1.995   .     S
O524   Zn532   1.995   .     S
O525   Zn532   2.000   .     S
O526   Zn531   2.000   .     S
O527   Zn531   1.977   .     S
O528   Zn532   1.977   .     S
O529   Zn532   1.989   .     S
O530   Zn531   1.989   .     S
C533   O535    1.222   .     D
C533   C555    1.496   .     S
C533   H584    1.084   .     S
C536   O538    1.222   .     D
H537   C586    1.084   .     S
C539   O541    1.220   .     D
C539   H540    1.084   .     S
C542   O544    1.220   .     D
C542   H543    1.084   .     S
C545   H546    1.069   .     S
C545   O547    1.220   .     D
C548   O550    1.220   .     D
C548   H549    1.069   .     S
C551   O575    1.293   .     A
C551   C562    1.419   .     S
C551   O573    1.291   .     A
C552   O576    1.293   .     A
C552   C561    1.419   .     S
C552   O574    1.291   .     A
C553   O579    1.294   .     A
C553   O577    1.281   .     A
C553   C555    1.409   .     S
C554   O580    1.294   .     A
C554   C556    1.408   .     S
C554   O578    1.281   .     A
C556   C455    1.360   1_655 S
C556   C486    1.496   1_655 S
C557   C562    1.395   .     A
C557   H567    1.080   .     S
C557   C859    1.370   1_545 S
C558   C561    1.395   .     A
C558   H568    1.080   .     S
C558   C710    1.370   .     S
C559   C561    1.397   .     A
C559   H569    1.084   .     S
C559   C707    1.370   .     S
C560   C562    1.397   .     A
C560   H570    1.084   .     S
C560   C858    1.370   1_545 S
C563   N572    1.367   .     A
C563   C589    1.473   .     S
C564   C592    1.473   .     S
C564   N571    1.367   .     A
C564   C1016   1.437   .     S
C565   N571    1.383   .     A
C565   C595    1.487   .     S
C565   C1013   1.437   .     S
C566   C598    1.487   .     S
C566   N572    1.383   .     A
N571   Zn581   2.032   .     S
N572   Zn582   2.032   .     S
O573   Zn581   1.995   .     S
O574   Zn582   1.995   .     S
O575   Zn582   2.000   .     S
O576   Zn581   2.000   .     S
O577   Zn581   1.977   .     S
O578   Zn582   1.977   .     S
O579   Zn582   1.989   .     S
O580   Zn581   1.989   .     S
C583   O585    1.222   .     D
C583   C455    1.496   1_655 S
C583   H484    1.084   1_655 S
C586   O588    1.222   .     D
H587   C486    1.084   1_655 S
C589   O591    1.220   .     D
C589   H590    1.084   .     S
C592   O594    1.220   .     D
C592   H593    1.084   .     S
C595   H596    1.069   .     S
C595   O597    1.220   .     D
C598   O600    1.220   .     D
C598   H599    1.069   .     S
C601   O625    1.293   .     A
C601   C612    1.419   .     S
C601   O623    1.291   .     A
C602   O626    1.293   .     A
C602   C611    1.419   .     S
C602   O624    1.291   .     A
C603   O629    1.294   .     A
C603   O627    1.281   .     A
C603   C605    1.409   .     S
C604   O630    1.294   .     A
C604   C606    1.408   .     S
C604   O628    1.281   .     A
C605   C706    1.360   1_455 S
C605   C733    1.496   1_455 S
C606   C655    1.360   .     S
C606   C686    1.496   .     S
C607   C612    1.395   .     A
C607   H617    1.080   .     S
C608   C611    1.395   .     A
C608   H618    1.080   .     S
C608   C760    1.370   .     S
C609   C611    1.397   .     A
C609   H619    1.084   .     S
C609   C757    1.370   .     S
C610   C612    1.397   .     A
C610   H620    1.084   .     S
C613   N622    1.367   .     A
C613   C639    1.473   .     S
C614   C642    1.473   .     S
C614   N621    1.367   .     A
C614   C1066   1.437   .     S
C615   N621    1.383   .     A
C615   C645    1.487   .     S
C615   C1063   1.437   .     S
C616   C648    1.487   .     S
C616   N622    1.383   .     A
N621   Zn631   2.032   .     S
N622   Zn632   2.032   .     S
O623   Zn631   1.995   .     S
O624   Zn632   1.995   .     S
O625   Zn632   2.000   .     S
O626   Zn631   2.000   .     S
O627   Zn631   1.977   .     S
O628   Zn632   1.977   .     S
O629   Zn632   1.989   .     S
O630   Zn631   1.989   .     S
C633   O635    1.222   .     D
C633   C655    1.496   .     S
C633   H684    1.084   .     S
H634   C733    1.084   1_455 S
C636   O638    1.222   .     D
C636   C706    1.496   1_455 S
C636   H737    1.084   1_455 S
H637   C686    1.084   .     S
C639   O641    1.220   .     D
C639   H640    1.084   .     S
C642   O644    1.220   .     D
C642   H643    1.084   .     S
C645   H646    1.069   .     S
C645   O647    1.220   .     D
C648   O650    1.220   .     D
C648   H649    1.069   .     S
C651   O675    1.293   .     A
C651   C662    1.419   .     S
C651   O673    1.291   .     A
C652   O676    1.293   .     A
C652   C661    1.419   .     S
C652   O674    1.291   .     A
C653   O679    1.294   .     A
C653   O677    1.281   .     A
C653   C655    1.409   .     S
C654   O680    1.294   .     A
C654   C656    1.408   .     S
C654   O678    1.281   .     A
C656   C705    1.360   .     S
C656   C736    1.496   .     S
C657   C662    1.395   .     A
C657   H667    1.080   .     S
C658   C661    1.395   .     A
C658   H668    1.080   .     S
C658   C810    1.370   .     S
C659   C661    1.397   .     A
C659   H669    1.084   .     S
C659   C807    1.370   .     S
C660   C662    1.397   .     A
C660   H670    1.084   .     S
C663   N672    1.367   .     A
C663   C689    1.473   .     S
C664   C692    1.473   .     S
C664   N671    1.367   .     A
C664   C1116   1.437   .     S
C665   N671    1.383   .     A
C665   C695    1.487   .     S
C665   C1113   1.437   .     S
C666   C698    1.487   .     S
C666   N672    1.383   .     A
N671   Zn681   2.032   .     S
N672   Zn682   2.032   .     S
O673   Zn681   1.995   .     S
O674   Zn682   1.995   .     S
O675   Zn682   2.000   .     S
O676   Zn681   2.000   .     S
O677   Zn681   1.977   .     S
O678   Zn682   1.977   .     S
O679   Zn682   1.989   .     S
O680   Zn681   1.989   .     S
C683   O685    1.222   .     D
C683   C705    1.496   .     S
C683   H734    1.084   .     S
C686   O688    1.222   .     D
H687   C736    1.084   .     S
C689   O691    1.220   .     D
C689   H690    1.084   .     S
C692   O694    1.220   .     D
C692   H693    1.084   .     S
C695   H696    1.069   .     S
C695   O697    1.220   .     D
C698   O700    1.220   .     D
C698   H699    1.069   .     S
C701   O725    1.293   .     A
C701   C712    1.419   .     S
C701   O723    1.291   .     A
C702   O726    1.293   .     A
C702   C711    1.419   .     S
C702   O724    1.291   .     A
C703   O729    1.294   .     A
C703   O727    1.281   .     A
C703   C705    1.409   .     S
C704   O730    1.294   .     A
C704   C706    1.408   .     S
C704   O728    1.281   .     A
C706   C605    1.360   1_655 S
C706   C636    1.496   1_655 S
C707   C712    1.395   .     A
C707   H717    1.080   .     S
C708   C711    1.395   .     A
C708   H718    1.080   .     S
C708   C860    1.370   .     S
C709   C711    1.397   .     A
C709   H719    1.084   .     S
C709   C857    1.370   .     S
C710   C712    1.397   .     A
C710   H720    1.084   .     S
C713   N722    1.367   .     A
C713   C739    1.473   .     S
C714   C742    1.473   .     S
C714   N721    1.367   .     A
C714   C1166   1.437   .     S
C715   N721    1.383   .     A
C715   C745    1.487   .     S
C715   C1163   1.437   .     S
C716   C748    1.487   .     S
C716   N722    1.383   .     A
N721   Zn731   2.032   .     S
N722   Zn732   2.032   .     S
O723   Zn731   1.995   .     S
O724   Zn732   1.995   .     S
O725   Zn732   2.000   .     S
O726   Zn731   2.000   .     S
O727   Zn731   1.977   .     S
O728   Zn732   1.977   .     S
O729   Zn732   1.989   .     S
O730   Zn731   1.989   .     S
C733   O735    1.222   .     D
C733   C605    1.496   1_655 S
C733   H634    1.084   1_655 S
C736   O738    1.222   .     D
H737   C636    1.084   1_655 S
C739   O741    1.220   .     D
C739   H740    1.084   .     S
C742   O744    1.220   .     D
C742   H743    1.084   .     S
C745   H746    1.069   .     S
C745   O747    1.220   .     D
C748   O750    1.220   .     D
C748   H749    1.069   .     S
C751   O775    1.293   .     A
C751   C762    1.419   .     S
C751   O773    1.291   .     A
C752   O776    1.293   .     A
C752   C761    1.419   .     S
C752   O774    1.291   .     A
C753   O779    1.294   .     A
C753   O777    1.281   .     A
C753   C755    1.409   .     S
C754   O780    1.294   .     A
C754   C756    1.408   .     S
C754   O778    1.281   .     A
C755   C856    1.360   1_455 S
C755   C883    1.496   1_455 S
C756   C805    1.360   .     S
C756   C836    1.496   .     S
C757   C762    1.395   .     A
C757   H767    1.080   .     S
C758   C761    1.395   .     A
C758   H768    1.080   .     S
C758   C460    1.370   1_565 S
C759   C761    1.397   .     A
C759   H769    1.084   .     S
C759   C457    1.370   1_565 S
C760   C762    1.397   .     A
C760   H770    1.084   .     S
C763   N772    1.367   .     A
C763   C789    1.473   .     S
C764   C792    1.473   .     S
C764   N771    1.367   .     A
C764   C1216   1.437   .     S
C765   N771    1.383   .     A
C765   C795    1.487   .     S
C765   C1213   1.437   .     S
C766   C798    1.487   .     S
C766   N772    1.383   .     A
N771   Zn781   2.032   .     S
N772   Zn782   2.032   .     S
O773   Zn781   1.995   .     S
O774   Zn782   1.995   .     S
O775   Zn782   2.000   .     S
O776   Zn781   2.000   .     S
O777   Zn781   1.977   .     S
O778   Zn782   1.977   .     S
O779   Zn782   1.989   .     S
O780   Zn781   1.989   .     S
C783   O785    1.222   .     D
C783   C805    1.496   .     S
C783   H834    1.084   .     S
H784   C883    1.084   1_455 S
C786   O788    1.222   .     D
C786   C856    1.496   1_455 S
C786   H887    1.084   1_455 S
H787   C836    1.084   .     S
C789   O791    1.220   .     D
C789   H790    1.084   .     S
C792   O794    1.220   .     D
C792   H793    1.084   .     S
C795   H796    1.069   .     S
C795   O797    1.220   .     D
C798   O800    1.220   .     D
C798   H799    1.069   .     S
C801   O825    1.293   .     A
C801   C812    1.419   .     S
C801   O823    1.291   .     A
C802   O826    1.293   .     A
C802   C811    1.419   .     S
C802   O824    1.291   .     A
C803   O829    1.294   .     A
C803   O827    1.281   .     A
C803   C805    1.409   .     S
C804   O830    1.294   .     A
C804   C806    1.408   .     S
C804   O828    1.281   .     A
C806   C855    1.360   .     S
C806   C886    1.496   .     S
C807   C812    1.395   .     A
C807   H817    1.080   .     S
C808   C811    1.395   .     A
C808   H818    1.080   .     S
C808   C510    1.370   1_565 S
C809   C811    1.397   .     A
C809   H819    1.084   .     S
C809   C507    1.370   1_565 S
C810   C812    1.397   .     A
C810   H820    1.084   .     S
C813   N822    1.367   .     A
C813   C839    1.473   .     S
C814   C842    1.473   .     S
C814   N821    1.367   .     A
C814   C1266   1.437   .     S
C815   N821    1.383   .     A
C815   C845    1.487   .     S
C815   C1263   1.437   .     S
C816   C848    1.487   .     S
C816   N822    1.383   .     A
N821   Zn831   2.032   .     S
N822   Zn832   2.032   .     S
O823   Zn831   1.995   .     S
O824   Zn832   1.995   .     S
O825   Zn832   2.000   .     S
O826   Zn831   2.000   .     S
O827   Zn831   1.977   .     S
O828   Zn832   1.977   .     S
O829   Zn832   1.989   .     S
O830   Zn831   1.989   .     S
C833   O835    1.222   .     D
C833   C855    1.496   .     S
C833   H884    1.084   .     S
C836   O838    1.222   .     D
H837   C886    1.084   .     S
C839   O841    1.220   .     D
C839   H840    1.084   .     S
C842   O844    1.220   .     D
C842   H843    1.084   .     S
C845   H846    1.069   .     S
C845   O847    1.220   .     D
C848   O850    1.220   .     D
C848   H849    1.069   .     S
C851   O875    1.293   .     A
C851   C862    1.419   .     S
C851   O873    1.291   .     A
C852   O876    1.293   .     A
C852   C861    1.419   .     S
C852   O874    1.291   .     A
C853   O879    1.294   .     A
C853   O877    1.281   .     A
C853   C855    1.409   .     S
C854   O880    1.294   .     A
C854   C856    1.408   .     S
C854   O878    1.281   .     A
C856   C755    1.360   1_655 S
C856   C786    1.496   1_655 S
C857   C862    1.395   .     A
C857   H867    1.080   .     S
C858   C861    1.395   .     A
C858   H868    1.080   .     S
C858   C560    1.370   1_565 S
C859   C861    1.397   .     A
C859   H869    1.084   .     S
C859   C557    1.370   1_565 S
C860   C862    1.397   .     A
C860   H870    1.084   .     S
C863   N872    1.367   .     A
C863   C889    1.473   .     S
C864   C892    1.473   .     S
C864   N871    1.367   .     A
C864   C1316   1.437   .     S
C865   N871    1.383   .     A
C865   C895    1.487   .     S
C865   C1313   1.437   .     S
C866   C898    1.487   .     S
C866   N872    1.383   .     A
N871   Zn881   2.032   .     S
N872   Zn882   2.032   .     S
O873   Zn881   1.995   .     S
O874   Zn882   1.995   .     S
O875   Zn882   2.000   .     S
O876   Zn881   2.000   .     S
O877   Zn881   1.977   .     S
O878   Zn882   1.977   .     S
O879   Zn882   1.989   .     S
O880   Zn881   1.989   .     S
C883   O885    1.222   .     D
C883   C755    1.496   1_655 S
C883   H784    1.084   1_655 S
C886   O888    1.222   .     D
H887   C786    1.084   1_655 S
C889   O891    1.220   .     D
C889   H890    1.084   .     S
C892   O894    1.220   .     D
C892   H893    1.084   .     S
C895   H896    1.069   .     S
C895   O897    1.220   .     D
C898   O900    1.220   .     D
C898   H899    1.069   .     S
C901   O925    1.293   .     A
C901   C912    1.419   .     S
C901   O923    1.291   .     A
C902   O926    1.293   .     A
C902   C911    1.419   .     S
C902   O924    1.291   .     A
C903   O929    1.294   .     A
C903   O927    1.281   .     A
C903   C905    1.409   .     S
C904   O930    1.294   .     A
C904   C906    1.408   .     S
C904   O928    1.281   .     A
C905   C1006   1.360   1_455 S
C905   C1033   1.496   1_455 S
C906   C955    1.360   .     S
C906   C986    1.496   .     S
C907   C912    1.395   .     A
C907   H917    1.080   .     S
C907   C1209   1.370   1_545 S
C908   C911    1.395   .     A
C908   H918    1.080   .     S
C908   C1060   1.370   .     S
C909   C911    1.397   .     A
C909   H919    1.084   .     S
C909   C1057   1.370   .     S
C910   C912    1.397   .     A
C910   H920    1.084   .     S
C910   C1208   1.370   1_545 S
C913   N922    1.367   .     A
C913   C939    1.473   .     S
C914   C942    1.473   .     S
C914   N921    1.367   .     A
C914   C16     1.437   1_556 S
C915   N921    1.383   .     A
C915   C945    1.487   .     S
C915   C13     1.437   1_556 S
C916   C948    1.487   .     S
C916   N922    1.383   .     A
N921   Zn931   2.032   .     S
N922   Zn932   2.032   .     S
O923   Zn931   1.995   .     S
O924   Zn932   1.995   .     S
O925   Zn932   2.000   .     S
O926   Zn931   2.000   .     S
O927   Zn931   1.977   .     S
O928   Zn932   1.977   .     S
O929   Zn932   1.989   .     S
O930   Zn931   1.989   .     S
C933   O935    1.222   .     D
C933   C955    1.496   .     S
C933   H984    1.084   .     S
H934   C1033   1.084   1_455 S
C936   O938    1.222   .     D
C936   C1006   1.496   1_455 S
C936   H1037   1.084   1_455 S
H937   C986    1.084   .     S
C939   O941    1.220   .     D
C939   H940    1.084   .     S
C942   O944    1.220   .     D
C942   H943    1.084   .     S
C945   H946    1.069   .     S
C945   O947    1.220   .     D
C948   O950    1.220   .     D
C948   H949    1.069   .     S
C951   O975    1.293   .     A
C951   C962    1.419   .     S
C951   O973    1.291   .     A
C952   O976    1.293   .     A
C952   C961    1.419   .     S
C952   O974    1.291   .     A
C953   O979    1.294   .     A
C953   O977    1.281   .     A
C953   C955    1.409   .     S
C954   O980    1.294   .     A
C954   C956    1.408   .     S
C954   O978    1.281   .     A
C956   C1005   1.360   .     S
C956   C1036   1.496   .     S
C957   C962    1.395   .     A
C957   H967    1.080   .     S
C957   C1259   1.370   1_545 S
C958   C961    1.395   .     A
C958   H968    1.080   .     S
C958   C1110   1.370   .     S
C959   C961    1.397   .     A
C959   H969    1.084   .     S
C959   C1107   1.370   .     S
C960   C962    1.397   .     A
C960   H970    1.084   .     S
C960   C1258   1.370   1_545 S
C963   N972    1.367   .     A
C963   C989    1.473   .     S
C964   C992    1.473   .     S
C964   N971    1.367   .     A
C964   C66     1.437   1_556 S
C965   N971    1.383   .     A
C965   C995    1.487   .     S
C965   C63     1.437   1_556 S
C966   C998    1.487   .     S
C966   N972    1.383   .     A
N971   Zn981   2.032   .     S
N972   Zn982   2.032   .     S
O973   Zn981   1.995   .     S
O974   Zn982   1.995   .     S
O975   Zn982   2.000   .     S
O976   Zn981   2.000   .     S
O977   Zn981   1.977   .     S
O978   Zn982   1.977   .     S
O979   Zn982   1.989   .     S
O980   Zn981   1.989   .     S
C983   O985    1.222   .     D
C983   C1005   1.496   .     S
C983   H1034   1.084   .     S
C986   O988    1.222   .     D
H987   C1036   1.084   .     S
C989   O991    1.220   .     D
C989   H990    1.084   .     S
C992   O994    1.220   .     D
C992   H993    1.084   .     S
C995   H996    1.069   .     S
C995   O997    1.220   .     D
C998   O1000   1.220   .     D
C998   H999    1.069   .     S
C1001  O1025   1.293   .     A
C1001  C1012   1.419   .     S
C1001  O1023   1.291   .     A
C1002  O1026   1.293   .     A
C1002  C1011   1.419   .     S
C1002  O1024   1.291   .     A
C1003  O1029   1.294   .     A
C1003  O1027   1.281   .     A
C1003  C1005   1.409   .     S
C1004  O1030   1.294   .     A
C1004  C1006   1.408   .     S
C1004  O1028   1.281   .     A
C1006  C905    1.360   1_655 S
C1006  C936    1.496   1_655 S
C1007  C1012   1.395   .     A
C1007  H1017   1.080   .     S
C1007  C1309   1.370   1_545 S
C1008  C1011   1.395   .     A
C1008  H1018   1.080   .     S
C1008  C1160   1.370   .     S
C1009  C1011   1.397   .     A
C1009  H1019   1.084   .     S
C1009  C1157   1.370   .     S
C1010  C1012   1.397   .     A
C1010  H1020   1.084   .     S
C1010  C1308   1.370   1_545 S
C1013  N1022   1.367   .     A
C1013  C1039   1.473   .     S
C1014  C1042   1.473   .     S
C1014  N1021   1.367   .     A
C1014  C116    1.437   1_556 S
C1015  N1021   1.383   .     A
C1015  C1045   1.487   .     S
C1015  C113    1.437   1_556 S
C1016  C1048   1.487   .     S
C1016  N1022   1.383   .     A
N1021  Zn1031  2.032   .     S
N1022  Zn1032  2.032   .     S
O1023  Zn1031  1.995   .     S
O1024  Zn1032  1.995   .     S
O1025  Zn1032  2.000   .     S
O1026  Zn1031  2.000   .     S
O1027  Zn1031  1.977   .     S
O1028  Zn1032  1.977   .     S
O1029  Zn1032  1.989   .     S
O1030  Zn1031  1.989   .     S
C1033  O1035   1.222   .     D
C1033  C905    1.496   1_655 S
C1033  H934    1.084   1_655 S
C1036  O1038   1.222   .     D
H1037  C936    1.084   1_655 S
C1039  O1041   1.220   .     D
C1039  H1040   1.084   .     S
C1042  O1044   1.220   .     D
C1042  H1043   1.084   .     S
C1045  H1046   1.069   .     S
C1045  O1047   1.220   .     D
C1048  O1050   1.220   .     D
C1048  H1049   1.069   .     S
C1051  O1075   1.293   .     A
C1051  C1062   1.419   .     S
C1051  O1073   1.291   .     A
C1052  O1076   1.293   .     A
C1052  C1061   1.419   .     S
C1052  O1074   1.291   .     A
C1053  O1079   1.294   .     A
C1053  O1077   1.281   .     A
C1053  C1055   1.409   .     S
C1054  O1080   1.294   .     A
C1054  C1056   1.408   .     S
C1054  O1078   1.281   .     A
C1055  C1156   1.360   1_455 S
C1055  C1183   1.496   1_455 S
C1056  C1105   1.360   .     S
C1056  C1136   1.496   .     S
C1057  C1062   1.395   .     A
C1057  H1067   1.080   .     S
C1058  C1061   1.395   .     A
C1058  H1068   1.080   .     S
C1058  C1210   1.370   .     S
C1059  C1061   1.397   .     A
C1059  H1069   1.084   .     S
C1059  C1207   1.370   .     S
C1060  C1062   1.397   .     A
C1060  H1070   1.084   .     S
C1063  N1072   1.367   .     A
C1063  C1089   1.473   .     S
C1064  C1092   1.473   .     S
C1064  N1071   1.367   .     A
C1064  C166    1.437   1_556 S
C1065  N1071   1.383   .     A
C1065  C1095   1.487   .     S
C1065  C163    1.437   1_556 S
C1066  C1098   1.487   .     S
C1066  N1072   1.383   .     A
N1071  Zn1081  2.032   .     S
N1072  Zn1082  2.032   .     S
O1073  Zn1081  1.995   .     S
O1074  Zn1082  1.995   .     S
O1075  Zn1082  2.000   .     S
O1076  Zn1081  2.000   .     S
O1077  Zn1081  1.977   .     S
O1078  Zn1082  1.977   .     S
O1079  Zn1082  1.989   .     S
O1080  Zn1081  1.989   .     S
C1083  O1085   1.222   .     D
C1083  C1105   1.496   .     S
C1083  H1134   1.084   .     S
H1084  C1183   1.084   1_455 S
C1086  O1088   1.222   .     D
C1086  C1156   1.496   1_455 S
C1086  H1187   1.084   1_455 S
H1087  C1136   1.084   .     S
C1089  O1091   1.220   .     D
C1089  H1090   1.084   .     S
C1092  O1094   1.220   .     D
C1092  H1093   1.084   .     S
C1095  H1096   1.069   .     S
C1095  O1097   1.220   .     D
C1098  O1100   1.220   .     D
C1098  H1099   1.069   .     S
C1101  O1125   1.293   .     A
C1101  C1112   1.419   .     S
C1101  O1123   1.291   .     A
C1102  O1126   1.293   .     A
C1102  C1111   1.419   .     S
C1102  O1124   1.291   .     A
C1103  O1129   1.294   .     A
C1103  O1127   1.281   .     A
C1103  C1105   1.409   .     S
C1104  O1130   1.294   .     A
C1104  C1106   1.408   .     S
C1104  O1128   1.281   .     A
C1106  C1155   1.360   .     S
C1106  C1186   1.496   .     S
C1107  C1112   1.395   .     A
C1107  H1117   1.080   .     S
C1108  C1111   1.395   .     A
C1108  H1118   1.080   .     S
C1108  C1260   1.370   .     S
C1109  C1111   1.397   .     A
C1109  H1119   1.084   .     S
C1109  C1257   1.370   .     S
C1110  C1112   1.397   .     A
C1110  H1120   1.084   .     S
C1113  N1122   1.367   .     A
C1113  C1139   1.473   .     S
C1114  C1142   1.473   .     S
C1114  N1121   1.367   .     A
C1114  C216    1.437   1_556 S
C1115  N1121   1.383   .     A
C1115  C1145   1.487   .     S
C1115  C213    1.437   1_556 S
C1116  C1148   1.487   .     S
C1116  N1122   1.383   .     A
N1121  Zn1131  2.032   .     S
N1122  Zn1132  2.032   .     S
O1123  Zn1131  1.995   .     S
O1124  Zn1132  1.995   .     S
O1125  Zn1132  2.000   .     S
O1126  Zn1131  2.000   .     S
O1127  Zn1131  1.977   .     S
O1128  Zn1132  1.977   .     S
O1129  Zn1132  1.989   .     S
O1130  Zn1131  1.989   .     S
C1133  O1135   1.222   .     D
C1133  C1155   1.496   .     S
C1133  H1184   1.084   .     S
C1136  O1138   1.222   .     D
H1137  C1186   1.084   .     S
C1139  O1141   1.220   .     D
C1139  H1140   1.084   .     S
C1142  O1144   1.220   .     D
C1142  H1143   1.084   .     S
C1145  H1146   1.069   .     S
C1145  O1147   1.220   .     D
C1148  O1150   1.220   .     D
C1148  H1149   1.069   .     S
C1151  O1175   1.293   .     A
C1151  C1162   1.419   .     S
C1151  O1173   1.291   .     A
C1152  O1176   1.293   .     A
C1152  C1161   1.419   .     S
C1152  O1174   1.291   .     A
C1153  O1179   1.294   .     A
C1153  O1177   1.281   .     A
C1153  C1155   1.409   .     S
C1154  O1180   1.294   .     A
C1154  C1156   1.408   .     S
C1154  O1178   1.281   .     A
C1156  C1055   1.360   1_655 S
C1156  C1086   1.496   1_655 S
C1157  C1162   1.395   .     A
C1157  H1167   1.080   .     S
C1158  C1161   1.395   .     A
C1158  H1168   1.080   .     S
C1158  C1310   1.370   .     S
C1159  C1161   1.397   .     A
C1159  H1169   1.084   .     S
C1159  C1307   1.370   .     S
C1160  C1162   1.397   .     A
C1160  H1170   1.084   .     S
C1163  N1172   1.367   .     A
C1163  C1189   1.473   .     S
C1164  C1192   1.473   .     S
C1164  N1171   1.367   .     A
C1164  C266    1.437   1_556 S
C1165  N1171   1.383   .     A
C1165  C1195   1.487   .     S
C1165  C263    1.437   1_556 S
C1166  C1198   1.487   .     S
C1166  N1172   1.383   .     A
N1171  Zn1181  2.032   .     S
N1172  Zn1182  2.032   .     S
O1173  Zn1181  1.995   .     S
O1174  Zn1182  1.995   .     S
O1175  Zn1182  2.000   .     S
O1176  Zn1181  2.000   .     S
O1177  Zn1181  1.977   .     S
O1178  Zn1182  1.977   .     S
O1179  Zn1182  1.989   .     S
O1180  Zn1181  1.989   .     S
C1183  O1185   1.222   .     D
C1183  C1055   1.496   1_655 S
C1183  H1084   1.084   1_655 S
C1186  O1188   1.222   .     D
H1187  C1086   1.084   1_655 S
C1189  O1191   1.220   .     D
C1189  H1190   1.084   .     S
C1192  O1194   1.220   .     D
C1192  H1193   1.084   .     S
C1195  H1196   1.069   .     S
C1195  O1197   1.220   .     D
C1198  O1200   1.220   .     D
C1198  H1199   1.069   .     S
C1201  O1225   1.293   .     A
C1201  C1212   1.419   .     S
C1201  O1223   1.291   .     A
C1202  O1226   1.293   .     A
C1202  C1211   1.419   .     S
C1202  O1224   1.291   .     A
C1203  O1229   1.294   .     A
C1203  O1227   1.281   .     A
C1203  C1205   1.409   .     S
C1204  O1230   1.294   .     A
C1204  C1206   1.408   .     S
C1204  O1228   1.281   .     A
C1205  C1306   1.360   1_455 S
C1205  C1333   1.496   1_455 S
C1206  C1255   1.360   .     S
C1206  C1286   1.496   .     S
C1207  C1212   1.395   .     A
C1207  H1217   1.080   .     S
C1208  C1211   1.395   .     A
C1208  H1218   1.080   .     S
C1208  C910    1.370   1_565 S
C1209  C1211   1.397   .     A
C1209  H1219   1.084   .     S
C1209  C907    1.370   1_565 S
C1210  C1212   1.397   .     A
C1210  H1220   1.084   .     S
C1213  N1222   1.367   .     A
C1213  C1239   1.473   .     S
C1214  C1242   1.473   .     S
C1214  N1221   1.367   .     A
C1214  C316    1.437   1_556 S
C1215  N1221   1.383   .     A
C1215  C1245   1.487   .     S
C1215  C313    1.437   1_556 S
C1216  C1248   1.487   .     S
C1216  N1222   1.383   .     A
N1221  Zn1231  2.032   .     S
N1222  Zn1232  2.032   .     S
O1223  Zn1231  1.995   .     S
O1224  Zn1232  1.995   .     S
O1225  Zn1232  2.000   .     S
O1226  Zn1231  2.000   .     S
O1227  Zn1231  1.977   .     S
O1228  Zn1232  1.977   .     S
O1229  Zn1232  1.989   .     S
O1230  Zn1231  1.989   .     S
C1233  O1235   1.222   .     D
C1233  C1255   1.496   .     S
C1233  H1284   1.084   .     S
H1234  C1333   1.084   1_455 S
C1236  O1238   1.222   .     D
C1236  C1306   1.496   1_455 S
C1236  H1337   1.084   1_455 S
H1237  C1286   1.084   .     S
C1239  O1241   1.220   .     D
C1239  H1240   1.084   .     S
C1242  O1244   1.220   .     D
C1242  H1243   1.084   .     S
C1245  H1246   1.069   .     S
C1245  O1247   1.220   .     D
C1248  O1250   1.220   .     D
C1248  H1249   1.069   .     S
C1251  O1275   1.293   .     A
C1251  C1262   1.419   .     S
C1251  O1273   1.291   .     A
C1252  O1276   1.293   .     A
C1252  C1261   1.419   .     S
C1252  O1274   1.291   .     A
C1253  O1279   1.294   .     A
C1253  O1277   1.281   .     A
C1253  C1255   1.409   .     S
C1254  O1280   1.294   .     A
C1254  C1256   1.408   .     S
C1254  O1278   1.281   .     A
C1256  C1305   1.360   .     S
C1256  C1336   1.496   .     S
C1257  C1262   1.395   .     A
C1257  H1267   1.080   .     S
C1258  C1261   1.395   .     A
C1258  H1268   1.080   .     S
C1258  C960    1.370   1_565 S
C1259  C1261   1.397   .     A
C1259  H1269   1.084   .     S
C1259  C957    1.370   1_565 S
C1260  C1262   1.397   .     A
C1260  H1270   1.084   .     S
C1263  N1272   1.367   .     A
C1263  C1289   1.473   .     S
C1264  C1292   1.473   .     S
C1264  N1271   1.367   .     A
C1264  C366    1.437   1_556 S
C1265  N1271   1.383   .     A
C1265  C1295   1.487   .     S
C1265  C363    1.437   1_556 S
C1266  C1298   1.487   .     S
C1266  N1272   1.383   .     A
N1271  Zn1281  2.032   .     S
N1272  Zn1282  2.032   .     S
O1273  Zn1281  1.995   .     S
O1274  Zn1282  1.995   .     S
O1275  Zn1282  2.000   .     S
O1276  Zn1281  2.000   .     S
O1277  Zn1281  1.977   .     S
O1278  Zn1282  1.977   .     S
O1279  Zn1282  1.989   .     S
O1280  Zn1281  1.989   .     S
C1283  O1285   1.222   .     D
C1283  C1305   1.496   .     S
C1283  H1334   1.084   .     S
C1286  O1288   1.222   .     D
H1287  C1336   1.084   .     S
C1289  O1291   1.220   .     D
C1289  H1290   1.084   .     S
C1292  O1294   1.220   .     D
C1292  H1293   1.084   .     S
C1295  H1296   1.069   .     S
C1295  O1297   1.220   .     D
C1298  O1300   1.220   .     D
C1298  H1299   1.069   .     S
C1301  O1325   1.293   .     A
C1301  C1312   1.419   .     S
C1301  O1323   1.291   .     A
C1302  O1326   1.293   .     A
C1302  C1311   1.419   .     S
C1302  O1324   1.291   .     A
C1303  O1329   1.294   .     A
C1303  O1327   1.281   .     A
C1303  C1305   1.409   .     S
C1304  O1330   1.294   .     A
C1304  C1306   1.408   .     S
C1304  O1328   1.281   .     A
C1306  C1205   1.360   1_655 S
C1306  C1236   1.496   1_655 S
C1307  C1312   1.395   .     A
C1307  H1317   1.080   .     S
C1308  C1311   1.395   .     A
C1308  H1318   1.080   .     S
C1308  C1010   1.370   1_565 S
C1309  C1311   1.397   .     A
C1309  H1319   1.084   .     S
C1309  C1007   1.370   1_565 S
C1310  C1312   1.397   .     A
C1310  H1320   1.084   .     S
C1313  N1322   1.367   .     A
C1313  C1339   1.473   .     S
C1314  C1342   1.473   .     S
C1314  N1321   1.367   .     A
C1314  C416    1.437   1_556 S
C1315  N1321   1.383   .     A
C1315  C1345   1.487   .     S
C1315  C413    1.437   1_556 S
C1316  C1348   1.487   .     S
C1316  N1322   1.383   .     A
N1321  Zn1331  2.032   .     S
N1322  Zn1332  2.032   .     S
O1323  Zn1331  1.995   .     S
O1324  Zn1332  1.995   .     S
O1325  Zn1332  2.000   .     S
O1326  Zn1331  2.000   .     S
O1327  Zn1331  1.977   .     S
O1328  Zn1332  1.977   .     S
O1329  Zn1332  1.989   .     S
O1330  Zn1331  1.989   .     S
C1333  O1335   1.222   .     D
C1333  C1205   1.496   1_655 S
C1333  H1234   1.084   1_655 S
C1336  O1338   1.222   .     D
H1337  C1236   1.084   1_655 S
C1339  O1341   1.220   .     D
C1339  H1340   1.084   .     S
C1342  O1344   1.220   .     D
C1342  H1343   1.084   .     S
C1345  H1346   1.069   .     S
C1345  O1347   1.220   .     D
C1348  O1350   1.220   .     D
C1348  H1349   1.069   .     S
