data_str_m2_o1_o10_pcu_sym.209
_audit_creation_date              2020-01-03
_audit_creation_method            'Materials Studio'
_symmetry_space_group_name_H-M    'P1'
_symmetry_Int_Tables_number       1
_symmetry_cell_setting            triclinic
loop_
_symmetry_equiv_pos_as_xyz
  x,y,z
_cell_length_a                    26.2022
_cell_length_b                    32.4780
_cell_length_c                    28.5933
_cell_angle_alpha                 90.2220
_cell_angle_beta                  98.0923
_cell_angle_gamma                 90.3456
loop_
_atom_site_label
_atom_site_type_symbol
_atom_site_fract_x
_atom_site_fract_y
_atom_site_fract_z
_atom_site_U_iso_or_equiv
_atom_site_adp_type
_atom_site_occupancy
C1     C     0.16663   0.08737   0.16660   0.00000  Uiso   1.00
C2     C     0.16670   0.24596   0.16674   0.00000  Uiso   1.00
C3     C     0.06791   0.16664   0.15455   0.00000  Uiso   1.00
C4     C     0.26543   0.16670   0.17879   0.00000  Uiso   1.00
C5     C     0.01259   0.16666   0.14790   0.00000  Uiso   1.00
C6     C     0.32074   0.16667   0.18543   0.00000  Uiso   1.00
C7     C     0.17551   0.02118   0.12604   0.00000  Uiso   1.00
C8     C     0.15783   0.31215   0.20729   0.00000  Uiso   1.00
C9     C     0.17548   0.31192   0.12608   0.00000  Uiso   1.00
C10    C     0.15785   0.02142   0.20725   0.00000  Uiso   1.00
C11    C     0.16670   0.29058   0.16674   0.00000  Uiso   1.00
C12    C     0.16664   0.04275   0.16660   0.00000  Uiso   1.00
C13    C     0.13431   0.14077   0.02076   0.00000  Uiso   1.00
C14    C     0.19903   0.19256   0.31257   0.00000  Uiso   1.00
C15    C     0.13400   0.14156   0.30403   0.00000  Uiso   1.00
C16    C     0.19933   0.19177   0.02930   0.00000  Uiso   1.00
Cu17   Cu    0.16667   0.16667   0.21355   0.00000  Uiso   1.00
Cu18   Cu    0.16667   0.16666   0.11978   0.00000  Uiso   1.00
H19    H     0.32584   0.16668   0.11193   0.00000  Uiso   1.00
H20    H     0.00749   0.16665   0.22140   0.00000  Uiso   1.00
H21    H     0.18289   0.03715   0.09448   0.00000  Uiso   1.00
H22    H     0.15045   0.29618   0.23885   0.00000  Uiso   1.00
H23    H     0.18267   0.29577   0.09445   0.00000  Uiso   1.00
H24    H     0.15066   0.03756   0.23888   0.00000  Uiso   1.00
H25    H     0.10749   0.12235   0.28103   0.00000  Uiso   1.00
H26    H     0.22585   0.21098   0.05231   0.00000  Uiso   1.00
N27    N     0.16668   0.16668   0.28403   0.00000  Uiso   1.00
N28    N     0.16665   0.16666   0.04931   0.00000  Uiso   1.00
O29    O     0.16666   0.10655   0.20625   0.00000  Uiso   1.00
O30    O     0.16667   0.22678   0.12709   0.00000  Uiso   1.00
O31    O     0.16666   0.10654   0.12706   0.00000  Uiso   1.00
O32    O     0.16667   0.22679   0.20628   0.00000  Uiso   1.00
O33    O     0.09161   0.16667   0.19712   0.00000  Uiso   1.00
O34    O     0.24172   0.16666   0.13621   0.00000  Uiso   1.00
O35    O     0.09161   0.16666   0.11793   0.00000  Uiso   1.00
O36    O     0.24172   0.16667   0.21540   0.00000  Uiso   1.00
O37    O     0.10024   0.11630   0.04161   0.00000  Uiso   1.00
C38    C     0.09712   0.07596   0.02276   0.00000  Uiso   1.00
H39    H     0.13528   0.06411   0.01607   0.00000  Uiso   1.00
H40    H     0.06871   0.07451   0.32341   0.00000  Uiso   1.00
H41    H     0.08294   0.05514   0.04886   0.00000  Uiso   1.00
O42    O     0.23309   0.21703   0.29173   0.00000  Uiso   1.00
C43    C     0.23622   0.25737   0.31057   0.00000  Uiso   1.00
H44    H     0.26463   0.25882   0.00992   0.00000  Uiso   1.00
H45    H     0.19806   0.26922   0.31727   0.00000  Uiso   1.00
H46    H     0.25039   0.27819   0.28448   0.00000  Uiso   1.00
C47    C     0.49996   0.08737   0.16660   0.00000  Uiso   1.00
C48    C     0.50003   0.24596   0.16674   0.00000  Uiso   1.00
C49    C     0.40124   0.16664   0.15455   0.00000  Uiso   1.00
C50    C     0.59876   0.16670   0.17879   0.00000  Uiso   1.00
C51    C     0.34592   0.16666   0.14790   0.00000  Uiso   1.00
C52    C     0.65408   0.16667   0.18543   0.00000  Uiso   1.00
C53    C     0.50884   0.02118   0.12604   0.00000  Uiso   1.00
C54    C     0.49116   0.31215   0.20729   0.00000  Uiso   1.00
C55    C     0.50881   0.31192   0.12608   0.00000  Uiso   1.00
C56    C     0.49119   0.02142   0.20725   0.00000  Uiso   1.00
C57    C     0.50003   0.29058   0.16674   0.00000  Uiso   1.00
C58    C     0.49997   0.04275   0.16660   0.00000  Uiso   1.00
C59    C     0.46764   0.14077   0.02076   0.00000  Uiso   1.00
C60    C     0.53236   0.19256   0.31257   0.00000  Uiso   1.00
C61    C     0.46733   0.14156   0.30403   0.00000  Uiso   1.00
C62    C     0.53266   0.19177   0.02930   0.00000  Uiso   1.00
Cu63   Cu    0.50000   0.16667   0.21355   0.00000  Uiso   1.00
Cu64   Cu    0.50000   0.16666   0.11978   0.00000  Uiso   1.00
H65    H     0.65918   0.16668   0.11193   0.00000  Uiso   1.00
H66    H     0.34082   0.16665   0.22140   0.00000  Uiso   1.00
H67    H     0.51622   0.03715   0.09448   0.00000  Uiso   1.00
H68    H     0.48378   0.29618   0.23885   0.00000  Uiso   1.00
H69    H     0.51600   0.29577   0.09445   0.00000  Uiso   1.00
H70    H     0.48400   0.03756   0.23888   0.00000  Uiso   1.00
H71    H     0.44082   0.12235   0.28103   0.00000  Uiso   1.00
H72    H     0.55918   0.21098   0.05231   0.00000  Uiso   1.00
N73    N     0.50001   0.16668   0.28403   0.00000  Uiso   1.00
N74    N     0.49999   0.16666   0.04931   0.00000  Uiso   1.00
O75    O     0.50000   0.10655   0.20625   0.00000  Uiso   1.00
O76    O     0.50000   0.22678   0.12709   0.00000  Uiso   1.00
O77    O     0.50000   0.10654   0.12706   0.00000  Uiso   1.00
O78    O     0.50000   0.22679   0.20628   0.00000  Uiso   1.00
O79    O     0.42495   0.16667   0.19712   0.00000  Uiso   1.00
O80    O     0.57505   0.16666   0.13621   0.00000  Uiso   1.00
O81    O     0.42494   0.16666   0.11793   0.00000  Uiso   1.00
O82    O     0.57506   0.16667   0.21540   0.00000  Uiso   1.00
O83    O     0.43357   0.11630   0.04161   0.00000  Uiso   1.00
C84    C     0.43045   0.07596   0.02276   0.00000  Uiso   1.00
H85    H     0.46861   0.06411   0.01607   0.00000  Uiso   1.00
H86    H     0.40204   0.07451   0.32341   0.00000  Uiso   1.00
H87    H     0.41628   0.05514   0.04886   0.00000  Uiso   1.00
O88    O     0.56643   0.21703   0.29173   0.00000  Uiso   1.00
C89    C     0.56955   0.25737   0.31057   0.00000  Uiso   1.00
H90    H     0.59796   0.25882   0.00992   0.00000  Uiso   1.00
H91    H     0.53139   0.26922   0.31727   0.00000  Uiso   1.00
H92    H     0.58372   0.27819   0.28448   0.00000  Uiso   1.00
C93    C     0.83330   0.08737   0.16660   0.00000  Uiso   1.00
C94    C     0.83337   0.24596   0.16674   0.00000  Uiso   1.00
C95    C     0.73457   0.16664   0.15455   0.00000  Uiso   1.00
C96    C     0.93209   0.16670   0.17879   0.00000  Uiso   1.00
C97    C     0.67926   0.16666   0.14790   0.00000  Uiso   1.00
C98    C     0.98741   0.16667   0.18543   0.00000  Uiso   1.00
C99    C     0.84217   0.02118   0.12604   0.00000  Uiso   1.00
C100   C     0.82449   0.31215   0.20729   0.00000  Uiso   1.00
C101   C     0.84215   0.31192   0.12608   0.00000  Uiso   1.00
C102   C     0.82452   0.02142   0.20725   0.00000  Uiso   1.00
C103   C     0.83336   0.29058   0.16674   0.00000  Uiso   1.00
C104   C     0.83330   0.04275   0.16660   0.00000  Uiso   1.00
C105   C     0.80097   0.14077   0.02076   0.00000  Uiso   1.00
C106   C     0.86569   0.19256   0.31257   0.00000  Uiso   1.00
C107   C     0.80067   0.14156   0.30403   0.00000  Uiso   1.00
C108   C     0.86600   0.19177   0.02930   0.00000  Uiso   1.00
Cu109  Cu    0.83333   0.16667   0.21355   0.00000  Uiso   1.00
Cu110  Cu    0.83333   0.16666   0.11978   0.00000  Uiso   1.00
H111   H     0.99251   0.16668   0.11193   0.00000  Uiso   1.00
H112   H     0.67416   0.16665   0.22140   0.00000  Uiso   1.00
H113   H     0.84955   0.03715   0.09448   0.00000  Uiso   1.00
H114   H     0.81711   0.29618   0.23885   0.00000  Uiso   1.00
H115   H     0.84934   0.29577   0.09445   0.00000  Uiso   1.00
H116   H     0.81733   0.03756   0.23888   0.00000  Uiso   1.00
H117   H     0.77415   0.12235   0.28103   0.00000  Uiso   1.00
H118   H     0.89251   0.21098   0.05231   0.00000  Uiso   1.00
N119   N     0.83335   0.16668   0.28403   0.00000  Uiso   1.00
N120   N     0.83332   0.16666   0.04931   0.00000  Uiso   1.00
O121   O     0.83333   0.10655   0.20625   0.00000  Uiso   1.00
O122   O     0.83334   0.22678   0.12709   0.00000  Uiso   1.00
O123   O     0.83333   0.10654   0.12706   0.00000  Uiso   1.00
O124   O     0.83334   0.22679   0.20628   0.00000  Uiso   1.00
O125   O     0.75828   0.16667   0.19712   0.00000  Uiso   1.00
O126   O     0.90839   0.16666   0.13621   0.00000  Uiso   1.00
O127   O     0.75828   0.16666   0.11793   0.00000  Uiso   1.00
O128   O     0.90839   0.16667   0.21540   0.00000  Uiso   1.00
O129   O     0.76691   0.11630   0.04161   0.00000  Uiso   1.00
C130   C     0.76378   0.07596   0.02276   0.00000  Uiso   1.00
H131   H     0.80194   0.06411   0.01607   0.00000  Uiso   1.00
H132   H     0.73537   0.07451   0.32341   0.00000  Uiso   1.00
H133   H     0.74961   0.05514   0.04886   0.00000  Uiso   1.00
O134   O     0.89976   0.21703   0.29173   0.00000  Uiso   1.00
C135   C     0.90288   0.25737   0.31057   0.00000  Uiso   1.00
H136   H     0.93129   0.25882   0.00992   0.00000  Uiso   1.00
H137   H     0.86472   0.26922   0.31727   0.00000  Uiso   1.00
H138   H     0.91705   0.27819   0.28448   0.00000  Uiso   1.00
C139   C     0.16663   0.42071   0.16660   0.00000  Uiso   1.00
C140   C     0.16670   0.57929   0.16674   0.00000  Uiso   1.00
C141   C     0.06791   0.49997   0.15455   0.00000  Uiso   1.00
C142   C     0.26543   0.50003   0.17879   0.00000  Uiso   1.00
C143   C     0.01259   0.49999   0.14790   0.00000  Uiso   1.00
C144   C     0.32074   0.50001   0.18543   0.00000  Uiso   1.00
C145   C     0.17551   0.35452   0.12604   0.00000  Uiso   1.00
C146   C     0.15783   0.64548   0.20729   0.00000  Uiso   1.00
C147   C     0.17548   0.64525   0.12608   0.00000  Uiso   1.00
C148   C     0.15785   0.35475   0.20725   0.00000  Uiso   1.00
C149   C     0.16670   0.62392   0.16674   0.00000  Uiso   1.00
C150   C     0.16664   0.37609   0.16660   0.00000  Uiso   1.00
C151   C     0.13431   0.47411   0.02076   0.00000  Uiso   1.00
C152   C     0.19903   0.52590   0.31257   0.00000  Uiso   1.00
C153   C     0.13400   0.47489   0.30403   0.00000  Uiso   1.00
C154   C     0.19933   0.52511   0.02930   0.00000  Uiso   1.00
Cu155  Cu    0.16667   0.50001   0.21355   0.00000  Uiso   1.00
Cu156  Cu    0.16667   0.49999   0.11978   0.00000  Uiso   1.00
H157   H     0.32584   0.50001   0.11193   0.00000  Uiso   1.00
H158   H     0.00749   0.49999   0.22140   0.00000  Uiso   1.00
H159   H     0.18289   0.37048   0.09448   0.00000  Uiso   1.00
H160   H     0.15045   0.62952   0.23885   0.00000  Uiso   1.00
H161   H     0.18267   0.62911   0.09445   0.00000  Uiso   1.00
H162   H     0.15066   0.37089   0.23888   0.00000  Uiso   1.00
H163   H     0.10749   0.45569   0.28103   0.00000  Uiso   1.00
H164   H     0.22585   0.54431   0.05231   0.00000  Uiso   1.00
N165   N     0.16668   0.50001   0.28403   0.00000  Uiso   1.00
N166   N     0.16665   0.49999   0.04931   0.00000  Uiso   1.00
O167   O     0.16666   0.43989   0.20625   0.00000  Uiso   1.00
O168   O     0.16667   0.56011   0.12709   0.00000  Uiso   1.00
O169   O     0.16666   0.43988   0.12706   0.00000  Uiso   1.00
O170   O     0.16667   0.56012   0.20628   0.00000  Uiso   1.00
O171   O     0.09161   0.50000   0.19712   0.00000  Uiso   1.00
O172   O     0.24172   0.50000   0.13621   0.00000  Uiso   1.00
O173   O     0.09161   0.49999   0.11793   0.00000  Uiso   1.00
O174   O     0.24172   0.50001   0.21540   0.00000  Uiso   1.00
O175   O     0.10024   0.44964   0.04161   0.00000  Uiso   1.00
C176   C     0.09712   0.40930   0.02276   0.00000  Uiso   1.00
H177   H     0.13528   0.39745   0.01607   0.00000  Uiso   1.00
H178   H     0.06871   0.40785   0.32341   0.00000  Uiso   1.00
H179   H     0.08294   0.38848   0.04886   0.00000  Uiso   1.00
O180   O     0.23309   0.55036   0.29173   0.00000  Uiso   1.00
C181   C     0.23622   0.59070   0.31057   0.00000  Uiso   1.00
H182   H     0.26463   0.59216   0.00992   0.00000  Uiso   1.00
H183   H     0.19806   0.60255   0.31727   0.00000  Uiso   1.00
H184   H     0.25039   0.61152   0.28448   0.00000  Uiso   1.00
C185   C     0.49996   0.42071   0.16660   0.00000  Uiso   1.00
C186   C     0.50003   0.57929   0.16674   0.00000  Uiso   1.00
C187   C     0.40124   0.49997   0.15455   0.00000  Uiso   1.00
C188   C     0.59876   0.50003   0.17879   0.00000  Uiso   1.00
C189   C     0.34592   0.49999   0.14790   0.00000  Uiso   1.00
C190   C     0.65408   0.50001   0.18543   0.00000  Uiso   1.00
C191   C     0.50884   0.35452   0.12604   0.00000  Uiso   1.00
C192   C     0.49116   0.64548   0.20729   0.00000  Uiso   1.00
C193   C     0.50881   0.64525   0.12608   0.00000  Uiso   1.00
C194   C     0.49119   0.35475   0.20725   0.00000  Uiso   1.00
C195   C     0.50003   0.62392   0.16674   0.00000  Uiso   1.00
C196   C     0.49997   0.37609   0.16660   0.00000  Uiso   1.00
C197   C     0.46764   0.47411   0.02076   0.00000  Uiso   1.00
C198   C     0.53236   0.52590   0.31257   0.00000  Uiso   1.00
C199   C     0.46733   0.47489   0.30403   0.00000  Uiso   1.00
C200   C     0.53266   0.52511   0.02930   0.00000  Uiso   1.00
Cu201  Cu    0.50000   0.50001   0.21355   0.00000  Uiso   1.00
Cu202  Cu    0.50000   0.49999   0.11978   0.00000  Uiso   1.00
H203   H     0.65918   0.50001   0.11193   0.00000  Uiso   1.00
H204   H     0.34082   0.49999   0.22140   0.00000  Uiso   1.00
H205   H     0.51622   0.37048   0.09448   0.00000  Uiso   1.00
H206   H     0.48378   0.62952   0.23885   0.00000  Uiso   1.00
H207   H     0.51600   0.62911   0.09445   0.00000  Uiso   1.00
H208   H     0.48400   0.37089   0.23888   0.00000  Uiso   1.00
H209   H     0.44082   0.45569   0.28103   0.00000  Uiso   1.00
H210   H     0.55918   0.54431   0.05231   0.00000  Uiso   1.00
N211   N     0.50001   0.50001   0.28403   0.00000  Uiso   1.00
N212   N     0.49999   0.49999   0.04931   0.00000  Uiso   1.00
O213   O     0.50000   0.43989   0.20625   0.00000  Uiso   1.00
O214   O     0.50000   0.56011   0.12709   0.00000  Uiso   1.00
O215   O     0.50000   0.43988   0.12706   0.00000  Uiso   1.00
O216   O     0.50000   0.56012   0.20628   0.00000  Uiso   1.00
O217   O     0.42495   0.50000   0.19712   0.00000  Uiso   1.00
O218   O     0.57505   0.50000   0.13621   0.00000  Uiso   1.00
O219   O     0.42494   0.49999   0.11793   0.00000  Uiso   1.00
O220   O     0.57506   0.50001   0.21540   0.00000  Uiso   1.00
O221   O     0.43357   0.44964   0.04161   0.00000  Uiso   1.00
C222   C     0.43045   0.40930   0.02276   0.00000  Uiso   1.00
H223   H     0.46861   0.39745   0.01607   0.00000  Uiso   1.00
H224   H     0.40204   0.40785   0.32341   0.00000  Uiso   1.00
H225   H     0.41628   0.38848   0.04886   0.00000  Uiso   1.00
O226   O     0.56643   0.55036   0.29173   0.00000  Uiso   1.00
C227   C     0.56955   0.59070   0.31057   0.00000  Uiso   1.00
H228   H     0.59796   0.59216   0.00992   0.00000  Uiso   1.00
H229   H     0.53139   0.60255   0.31727   0.00000  Uiso   1.00
H230   H     0.58372   0.61152   0.28448   0.00000  Uiso   1.00
C231   C     0.83330   0.42071   0.16660   0.00000  Uiso   1.00
C232   C     0.83337   0.57929   0.16674   0.00000  Uiso   1.00
C233   C     0.73457   0.49997   0.15455   0.00000  Uiso   1.00
C234   C     0.93209   0.50003   0.17879   0.00000  Uiso   1.00
C235   C     0.67926   0.49999   0.14790   0.00000  Uiso   1.00
C236   C     0.98741   0.50001   0.18543   0.00000  Uiso   1.00
C237   C     0.84217   0.35452   0.12604   0.00000  Uiso   1.00
C238   C     0.82449   0.64548   0.20729   0.00000  Uiso   1.00
C239   C     0.84215   0.64525   0.12608   0.00000  Uiso   1.00
C240   C     0.82452   0.35475   0.20725   0.00000  Uiso   1.00
C241   C     0.83336   0.62392   0.16674   0.00000  Uiso   1.00
C242   C     0.83330   0.37609   0.16660   0.00000  Uiso   1.00
C243   C     0.80097   0.47411   0.02076   0.00000  Uiso   1.00
C244   C     0.86569   0.52590   0.31257   0.00000  Uiso   1.00
C245   C     0.80067   0.47489   0.30403   0.00000  Uiso   1.00
C246   C     0.86600   0.52511   0.02930   0.00000  Uiso   1.00
Cu247  Cu    0.83333   0.50001   0.21355   0.00000  Uiso   1.00
Cu248  Cu    0.83333   0.49999   0.11978   0.00000  Uiso   1.00
H249   H     0.99251   0.50001   0.11193   0.00000  Uiso   1.00
H250   H     0.67416   0.49999   0.22140   0.00000  Uiso   1.00
H251   H     0.84955   0.37048   0.09448   0.00000  Uiso   1.00
H252   H     0.81711   0.62952   0.23885   0.00000  Uiso   1.00
H253   H     0.84934   0.62911   0.09445   0.00000  Uiso   1.00
H254   H     0.81733   0.37089   0.23888   0.00000  Uiso   1.00
H255   H     0.77415   0.45569   0.28103   0.00000  Uiso   1.00
H256   H     0.89251   0.54431   0.05231   0.00000  Uiso   1.00
N257   N     0.83335   0.50001   0.28403   0.00000  Uiso   1.00
N258   N     0.83332   0.49999   0.04931   0.00000  Uiso   1.00
O259   O     0.83333   0.43989   0.20625   0.00000  Uiso   1.00
O260   O     0.83334   0.56011   0.12709   0.00000  Uiso   1.00
O261   O     0.83333   0.43988   0.12706   0.00000  Uiso   1.00
O262   O     0.83334   0.56012   0.20628   0.00000  Uiso   1.00
O263   O     0.75828   0.50000   0.19712   0.00000  Uiso   1.00
O264   O     0.90839   0.50000   0.13621   0.00000  Uiso   1.00
O265   O     0.75828   0.49999   0.11793   0.00000  Uiso   1.00
O266   O     0.90839   0.50001   0.21540   0.00000  Uiso   1.00
O267   O     0.76691   0.44964   0.04161   0.00000  Uiso   1.00
C268   C     0.76378   0.40930   0.02276   0.00000  Uiso   1.00
H269   H     0.80194   0.39745   0.01607   0.00000  Uiso   1.00
H270   H     0.73537   0.40785   0.32341   0.00000  Uiso   1.00
H271   H     0.74961   0.38848   0.04886   0.00000  Uiso   1.00
O272   O     0.89976   0.55036   0.29173   0.00000  Uiso   1.00
C273   C     0.90288   0.59070   0.31057   0.00000  Uiso   1.00
H274   H     0.93129   0.59216   0.00992   0.00000  Uiso   1.00
H275   H     0.86472   0.60255   0.31727   0.00000  Uiso   1.00
H276   H     0.91705   0.61152   0.28448   0.00000  Uiso   1.00
C277   C     0.16663   0.75404   0.16660   0.00000  Uiso   1.00
C278   C     0.16670   0.91263   0.16674   0.00000  Uiso   1.00
C279   C     0.06791   0.83330   0.15455   0.00000  Uiso   1.00
C280   C     0.26543   0.83336   0.17879   0.00000  Uiso   1.00
C281   C     0.01259   0.83333   0.14790   0.00000  Uiso   1.00
C282   C     0.32074   0.83334   0.18543   0.00000  Uiso   1.00
C283   C     0.17551   0.68785   0.12604   0.00000  Uiso   1.00
C284   C     0.15783   0.97882   0.20729   0.00000  Uiso   1.00
C285   C     0.17548   0.97858   0.12608   0.00000  Uiso   1.00
C286   C     0.15785   0.68808   0.20725   0.00000  Uiso   1.00
C287   C     0.16670   0.95725   0.16674   0.00000  Uiso   1.00
C288   C     0.16664   0.70942   0.16660   0.00000  Uiso   1.00
C289   C     0.13431   0.80744   0.02076   0.00000  Uiso   1.00
C290   C     0.19903   0.85923   0.31257   0.00000  Uiso   1.00
C291   C     0.13400   0.80823   0.30403   0.00000  Uiso   1.00
C292   C     0.19933   0.85844   0.02930   0.00000  Uiso   1.00
Cu293  Cu    0.16667   0.83334   0.21355   0.00000  Uiso   1.00
Cu294  Cu    0.16667   0.83333   0.11978   0.00000  Uiso   1.00
H295   H     0.32584   0.83335   0.11193   0.00000  Uiso   1.00
H296   H     0.00749   0.83332   0.22140   0.00000  Uiso   1.00
H297   H     0.18289   0.70382   0.09448   0.00000  Uiso   1.00
H298   H     0.15045   0.96285   0.23885   0.00000  Uiso   1.00
H299   H     0.18267   0.96244   0.09445   0.00000  Uiso   1.00
H300   H     0.15066   0.70423   0.23888   0.00000  Uiso   1.00
H301   H     0.10749   0.78902   0.28103   0.00000  Uiso   1.00
H302   H     0.22585   0.87765   0.05231   0.00000  Uiso   1.00
N303   N     0.16668   0.83334   0.28403   0.00000  Uiso   1.00
N304   N     0.16665   0.83332   0.04931   0.00000  Uiso   1.00
O305   O     0.16666   0.77322   0.20625   0.00000  Uiso   1.00
O306   O     0.16667   0.89345   0.12709   0.00000  Uiso   1.00
O307   O     0.16666   0.77321   0.12706   0.00000  Uiso   1.00
O308   O     0.16667   0.89346   0.20628   0.00000  Uiso   1.00
O309   O     0.09161   0.83334   0.19712   0.00000  Uiso   1.00
O310   O     0.24172   0.83333   0.13621   0.00000  Uiso   1.00
O311   O     0.09161   0.83333   0.11793   0.00000  Uiso   1.00
O312   O     0.24172   0.83334   0.21540   0.00000  Uiso   1.00
O313   O     0.10024   0.78297   0.04161   0.00000  Uiso   1.00
C314   C     0.09712   0.74263   0.02276   0.00000  Uiso   1.00
H315   H     0.13528   0.73078   0.01607   0.00000  Uiso   1.00
H316   H     0.06871   0.74118   0.32341   0.00000  Uiso   1.00
H317   H     0.08294   0.72181   0.04886   0.00000  Uiso   1.00
O318   O     0.23309   0.88370   0.29173   0.00000  Uiso   1.00
C319   C     0.23622   0.92404   0.31057   0.00000  Uiso   1.00
H320   H     0.26463   0.92549   0.00992   0.00000  Uiso   1.00
H321   H     0.19806   0.93589   0.31727   0.00000  Uiso   1.00
H322   H     0.25039   0.94486   0.28448   0.00000  Uiso   1.00
C323   C     0.49996   0.75404   0.16660   0.00000  Uiso   1.00
C324   C     0.50003   0.91263   0.16674   0.00000  Uiso   1.00
C325   C     0.40124   0.83330   0.15455   0.00000  Uiso   1.00
C326   C     0.59876   0.83336   0.17879   0.00000  Uiso   1.00
C327   C     0.34592   0.83333   0.14790   0.00000  Uiso   1.00
C328   C     0.65408   0.83334   0.18543   0.00000  Uiso   1.00
C329   C     0.50884   0.68785   0.12604   0.00000  Uiso   1.00
C330   C     0.49116   0.97882   0.20729   0.00000  Uiso   1.00
C331   C     0.50881   0.97858   0.12608   0.00000  Uiso   1.00
C332   C     0.49119   0.68808   0.20725   0.00000  Uiso   1.00
C333   C     0.50003   0.95725   0.16674   0.00000  Uiso   1.00
C334   C     0.49997   0.70942   0.16660   0.00000  Uiso   1.00
C335   C     0.46764   0.80744   0.02076   0.00000  Uiso   1.00
C336   C     0.53236   0.85923   0.31257   0.00000  Uiso   1.00
C337   C     0.46733   0.80823   0.30403   0.00000  Uiso   1.00
C338   C     0.53266   0.85844   0.02930   0.00000  Uiso   1.00
Cu339  Cu    0.50000   0.83334   0.21355   0.00000  Uiso   1.00
Cu340  Cu    0.50000   0.83333   0.11978   0.00000  Uiso   1.00
H341   H     0.65918   0.83335   0.11193   0.00000  Uiso   1.00
H342   H     0.34082   0.83332   0.22140   0.00000  Uiso   1.00
H343   H     0.51622   0.70382   0.09448   0.00000  Uiso   1.00
H344   H     0.48378   0.96285   0.23885   0.00000  Uiso   1.00
H345   H     0.51600   0.96244   0.09445   0.00000  Uiso   1.00
H346   H     0.48400   0.70423   0.23888   0.00000  Uiso   1.00
H347   H     0.44082   0.78902   0.28103   0.00000  Uiso   1.00
H348   H     0.55918   0.87765   0.05231   0.00000  Uiso   1.00
N349   N     0.50001   0.83334   0.28403   0.00000  Uiso   1.00
N350   N     0.49999   0.83332   0.04931   0.00000  Uiso   1.00
O351   O     0.50000   0.77322   0.20625   0.00000  Uiso   1.00
O352   O     0.50000   0.89345   0.12709   0.00000  Uiso   1.00
O353   O     0.50000   0.77321   0.12706   0.00000  Uiso   1.00
O354   O     0.50000   0.89346   0.20628   0.00000  Uiso   1.00
O355   O     0.42495   0.83334   0.19712   0.00000  Uiso   1.00
O356   O     0.57505   0.83333   0.13621   0.00000  Uiso   1.00
O357   O     0.42494   0.83333   0.11793   0.00000  Uiso   1.00
O358   O     0.57506   0.83334   0.21540   0.00000  Uiso   1.00
O359   O     0.43357   0.78297   0.04161   0.00000  Uiso   1.00
C360   C     0.43045   0.74263   0.02276   0.00000  Uiso   1.00
H361   H     0.46861   0.73078   0.01607   0.00000  Uiso   1.00
H362   H     0.40204   0.74118   0.32341   0.00000  Uiso   1.00
H363   H     0.41628   0.72181   0.04886   0.00000  Uiso   1.00
O364   O     0.56643   0.88370   0.29173   0.00000  Uiso   1.00
C365   C     0.56955   0.92404   0.31057   0.00000  Uiso   1.00
H366   H     0.59796   0.92549   0.00992   0.00000  Uiso   1.00
H367   H     0.53139   0.93589   0.31727   0.00000  Uiso   1.00
H368   H     0.58372   0.94486   0.28448   0.00000  Uiso   1.00
C369   C     0.83330   0.75404   0.16660   0.00000  Uiso   1.00
C370   C     0.83337   0.91263   0.16674   0.00000  Uiso   1.00
C371   C     0.73457   0.83330   0.15455   0.00000  Uiso   1.00
C372   C     0.93209   0.83336   0.17879   0.00000  Uiso   1.00
C373   C     0.67926   0.83333   0.14790   0.00000  Uiso   1.00
C374   C     0.98741   0.83334   0.18543   0.00000  Uiso   1.00
C375   C     0.84217   0.68785   0.12604   0.00000  Uiso   1.00
C376   C     0.82449   0.97882   0.20729   0.00000  Uiso   1.00
C377   C     0.84215   0.97858   0.12608   0.00000  Uiso   1.00
C378   C     0.82452   0.68808   0.20725   0.00000  Uiso   1.00
C379   C     0.83336   0.95725   0.16674   0.00000  Uiso   1.00
C380   C     0.83330   0.70942   0.16660   0.00000  Uiso   1.00
C381   C     0.80097   0.80744   0.02076   0.00000  Uiso   1.00
C382   C     0.86569   0.85923   0.31257   0.00000  Uiso   1.00
C383   C     0.80067   0.80823   0.30403   0.00000  Uiso   1.00
C384   C     0.86600   0.85844   0.02930   0.00000  Uiso   1.00
Cu385  Cu    0.83333   0.83334   0.21355   0.00000  Uiso   1.00
Cu386  Cu    0.83333   0.83333   0.11978   0.00000  Uiso   1.00
H387   H     0.99251   0.83335   0.11193   0.00000  Uiso   1.00
H388   H     0.67416   0.83332   0.22140   0.00000  Uiso   1.00
H389   H     0.84955   0.70382   0.09448   0.00000  Uiso   1.00
H390   H     0.81711   0.96285   0.23885   0.00000  Uiso   1.00
H391   H     0.84934   0.96244   0.09445   0.00000  Uiso   1.00
H392   H     0.81733   0.70423   0.23888   0.00000  Uiso   1.00
H393   H     0.77415   0.78902   0.28103   0.00000  Uiso   1.00
H394   H     0.89251   0.87765   0.05231   0.00000  Uiso   1.00
N395   N     0.83335   0.83334   0.28403   0.00000  Uiso   1.00
N396   N     0.83332   0.83332   0.04931   0.00000  Uiso   1.00
O397   O     0.83333   0.77322   0.20625   0.00000  Uiso   1.00
O398   O     0.83334   0.89345   0.12709   0.00000  Uiso   1.00
O399   O     0.83333   0.77321   0.12706   0.00000  Uiso   1.00
O400   O     0.83334   0.89346   0.20628   0.00000  Uiso   1.00
O401   O     0.75828   0.83334   0.19712   0.00000  Uiso   1.00
O402   O     0.90839   0.83333   0.13621   0.00000  Uiso   1.00
O403   O     0.75828   0.83333   0.11793   0.00000  Uiso   1.00
O404   O     0.90839   0.83334   0.21540   0.00000  Uiso   1.00
O405   O     0.76691   0.78297   0.04161   0.00000  Uiso   1.00
C406   C     0.76378   0.74263   0.02276   0.00000  Uiso   1.00
H407   H     0.80194   0.73078   0.01607   0.00000  Uiso   1.00
H408   H     0.73537   0.74118   0.32341   0.00000  Uiso   1.00
H409   H     0.74961   0.72181   0.04886   0.00000  Uiso   1.00
O410   O     0.89976   0.88370   0.29173   0.00000  Uiso   1.00
C411   C     0.90288   0.92404   0.31057   0.00000  Uiso   1.00
H412   H     0.93129   0.92549   0.00992   0.00000  Uiso   1.00
H413   H     0.86472   0.93589   0.31727   0.00000  Uiso   1.00
H414   H     0.91705   0.94486   0.28448   0.00000  Uiso   1.00
C415   C     0.16663   0.08737   0.49993   0.00000  Uiso   1.00
C416   C     0.16670   0.24596   0.50007   0.00000  Uiso   1.00
C417   C     0.06791   0.16664   0.48788   0.00000  Uiso   1.00
C418   C     0.26543   0.16670   0.51212   0.00000  Uiso   1.00
C419   C     0.01259   0.16666   0.48124   0.00000  Uiso   1.00
C420   C     0.32074   0.16667   0.51876   0.00000  Uiso   1.00
C421   C     0.17551   0.02118   0.45938   0.00000  Uiso   1.00
C422   C     0.15783   0.31215   0.54062   0.00000  Uiso   1.00
C423   C     0.17548   0.31192   0.45942   0.00000  Uiso   1.00
C424   C     0.15785   0.02142   0.54058   0.00000  Uiso   1.00
C425   C     0.16670   0.29058   0.50007   0.00000  Uiso   1.00
C426   C     0.16664   0.04275   0.49993   0.00000  Uiso   1.00
C427   C     0.13431   0.14077   0.35409   0.00000  Uiso   1.00
C428   C     0.19903   0.19256   0.64591   0.00000  Uiso   1.00
C429   C     0.13400   0.14156   0.63737   0.00000  Uiso   1.00
C430   C     0.19933   0.19177   0.36263   0.00000  Uiso   1.00
Cu431  Cu    0.16667   0.16667   0.54689   0.00000  Uiso   1.00
Cu432  Cu    0.16667   0.16666   0.45311   0.00000  Uiso   1.00
H433   H     0.32584   0.16668   0.44527   0.00000  Uiso   1.00
H434   H     0.00749   0.16665   0.55473   0.00000  Uiso   1.00
H435   H     0.18289   0.03715   0.42782   0.00000  Uiso   1.00
H436   H     0.15045   0.29618   0.57218   0.00000  Uiso   1.00
H437   H     0.18267   0.29577   0.42778   0.00000  Uiso   1.00
H438   H     0.15066   0.03756   0.57222   0.00000  Uiso   1.00
H439   H     0.10749   0.12235   0.61436   0.00000  Uiso   1.00
H440   H     0.22585   0.21098   0.38564   0.00000  Uiso   1.00
N441   N     0.16668   0.16668   0.61736   0.00000  Uiso   1.00
N442   N     0.16665   0.16666   0.38264   0.00000  Uiso   1.00
O443   O     0.16666   0.10655   0.53958   0.00000  Uiso   1.00
O444   O     0.16667   0.22678   0.46042   0.00000  Uiso   1.00
O445   O     0.16666   0.10654   0.46039   0.00000  Uiso   1.00
O446   O     0.16667   0.22679   0.53961   0.00000  Uiso   1.00
O447   O     0.09161   0.16667   0.53046   0.00000  Uiso   1.00
O448   O     0.24172   0.16666   0.46954   0.00000  Uiso   1.00
O449   O     0.09161   0.16666   0.45127   0.00000  Uiso   1.00
O450   O     0.24172   0.16667   0.54873   0.00000  Uiso   1.00
O451   O     0.10024   0.11630   0.37494   0.00000  Uiso   1.00
C452   C     0.09712   0.07596   0.35609   0.00000  Uiso   1.00
H453   H     0.13528   0.06411   0.34940   0.00000  Uiso   1.00
H454   H     0.06871   0.07451   0.65674   0.00000  Uiso   1.00
H455   H     0.08294   0.05514   0.38219   0.00000  Uiso   1.00
O456   O     0.23309   0.21703   0.62506   0.00000  Uiso   1.00
C457   C     0.23622   0.25737   0.64391   0.00000  Uiso   1.00
H458   H     0.26463   0.25882   0.34326   0.00000  Uiso   1.00
H459   H     0.19806   0.26922   0.65060   0.00000  Uiso   1.00
H460   H     0.25039   0.27819   0.61781   0.00000  Uiso   1.00
C461   C     0.49996   0.08737   0.49993   0.00000  Uiso   1.00
C462   C     0.50003   0.24596   0.50007   0.00000  Uiso   1.00
C463   C     0.40124   0.16664   0.48788   0.00000  Uiso   1.00
C464   C     0.59876   0.16670   0.51212   0.00000  Uiso   1.00
C465   C     0.34592   0.16666   0.48124   0.00000  Uiso   1.00
C466   C     0.65408   0.16667   0.51876   0.00000  Uiso   1.00
C467   C     0.50884   0.02118   0.45938   0.00000  Uiso   1.00
C468   C     0.49116   0.31215   0.54062   0.00000  Uiso   1.00
C469   C     0.50881   0.31192   0.45942   0.00000  Uiso   1.00
C470   C     0.49119   0.02142   0.54058   0.00000  Uiso   1.00
C471   C     0.50003   0.29058   0.50007   0.00000  Uiso   1.00
C472   C     0.49997   0.04275   0.49993   0.00000  Uiso   1.00
C473   C     0.46764   0.14077   0.35409   0.00000  Uiso   1.00
C474   C     0.53236   0.19256   0.64591   0.00000  Uiso   1.00
C475   C     0.46733   0.14156   0.63737   0.00000  Uiso   1.00
C476   C     0.53266   0.19177   0.36263   0.00000  Uiso   1.00
Cu477  Cu    0.50000   0.16667   0.54689   0.00000  Uiso   1.00
Cu478  Cu    0.50000   0.16666   0.45311   0.00000  Uiso   1.00
H479   H     0.65918   0.16668   0.44527   0.00000  Uiso   1.00
H480   H     0.34082   0.16665   0.55473   0.00000  Uiso   1.00
H481   H     0.51622   0.03715   0.42782   0.00000  Uiso   1.00
H482   H     0.48378   0.29618   0.57218   0.00000  Uiso   1.00
H483   H     0.51600   0.29577   0.42778   0.00000  Uiso   1.00
H484   H     0.48400   0.03756   0.57222   0.00000  Uiso   1.00
H485   H     0.44082   0.12235   0.61436   0.00000  Uiso   1.00
H486   H     0.55918   0.21098   0.38564   0.00000  Uiso   1.00
N487   N     0.50001   0.16668   0.61736   0.00000  Uiso   1.00
N488   N     0.49999   0.16666   0.38264   0.00000  Uiso   1.00
O489   O     0.50000   0.10655   0.53958   0.00000  Uiso   1.00
O490   O     0.50000   0.22678   0.46042   0.00000  Uiso   1.00
O491   O     0.50000   0.10654   0.46039   0.00000  Uiso   1.00
O492   O     0.50000   0.22679   0.53961   0.00000  Uiso   1.00
O493   O     0.42495   0.16667   0.53046   0.00000  Uiso   1.00
O494   O     0.57505   0.16666   0.46954   0.00000  Uiso   1.00
O495   O     0.42494   0.16666   0.45127   0.00000  Uiso   1.00
O496   O     0.57506   0.16667   0.54873   0.00000  Uiso   1.00
O497   O     0.43357   0.11630   0.37494   0.00000  Uiso   1.00
C498   C     0.43045   0.07596   0.35609   0.00000  Uiso   1.00
H499   H     0.46861   0.06411   0.34940   0.00000  Uiso   1.00
H500   H     0.40204   0.07451   0.65674   0.00000  Uiso   1.00
H501   H     0.41628   0.05514   0.38219   0.00000  Uiso   1.00
O502   O     0.56643   0.21703   0.62506   0.00000  Uiso   1.00
C503   C     0.56955   0.25737   0.64391   0.00000  Uiso   1.00
H504   H     0.59796   0.25882   0.34326   0.00000  Uiso   1.00
H505   H     0.53139   0.26922   0.65060   0.00000  Uiso   1.00
H506   H     0.58372   0.27819   0.61781   0.00000  Uiso   1.00
C507   C     0.83330   0.08737   0.49993   0.00000  Uiso   1.00
C508   C     0.83337   0.24596   0.50007   0.00000  Uiso   1.00
C509   C     0.73457   0.16664   0.48788   0.00000  Uiso   1.00
C510   C     0.93209   0.16670   0.51212   0.00000  Uiso   1.00
C511   C     0.67926   0.16666   0.48124   0.00000  Uiso   1.00
C512   C     0.98741   0.16667   0.51876   0.00000  Uiso   1.00
C513   C     0.84217   0.02118   0.45938   0.00000  Uiso   1.00
C514   C     0.82449   0.31215   0.54062   0.00000  Uiso   1.00
C515   C     0.84215   0.31192   0.45942   0.00000  Uiso   1.00
C516   C     0.82452   0.02142   0.54058   0.00000  Uiso   1.00
C517   C     0.83336   0.29058   0.50007   0.00000  Uiso   1.00
C518   C     0.83330   0.04275   0.49993   0.00000  Uiso   1.00
C519   C     0.80097   0.14077   0.35409   0.00000  Uiso   1.00
C520   C     0.86569   0.19256   0.64591   0.00000  Uiso   1.00
C521   C     0.80067   0.14156   0.63737   0.00000  Uiso   1.00
C522   C     0.86600   0.19177   0.36263   0.00000  Uiso   1.00
Cu523  Cu    0.83333   0.16667   0.54689   0.00000  Uiso   1.00
Cu524  Cu    0.83333   0.16666   0.45311   0.00000  Uiso   1.00
H525   H     0.99251   0.16668   0.44527   0.00000  Uiso   1.00
H526   H     0.67416   0.16665   0.55473   0.00000  Uiso   1.00
H527   H     0.84955   0.03715   0.42782   0.00000  Uiso   1.00
H528   H     0.81711   0.29618   0.57218   0.00000  Uiso   1.00
H529   H     0.84934   0.29577   0.42778   0.00000  Uiso   1.00
H530   H     0.81733   0.03756   0.57222   0.00000  Uiso   1.00
H531   H     0.77415   0.12235   0.61436   0.00000  Uiso   1.00
H532   H     0.89251   0.21098   0.38564   0.00000  Uiso   1.00
N533   N     0.83335   0.16668   0.61736   0.00000  Uiso   1.00
N534   N     0.83332   0.16666   0.38264   0.00000  Uiso   1.00
O535   O     0.83333   0.10655   0.53958   0.00000  Uiso   1.00
O536   O     0.83334   0.22678   0.46042   0.00000  Uiso   1.00
O537   O     0.83333   0.10654   0.46039   0.00000  Uiso   1.00
O538   O     0.83334   0.22679   0.53961   0.00000  Uiso   1.00
O539   O     0.75828   0.16667   0.53046   0.00000  Uiso   1.00
O540   O     0.90839   0.16666   0.46954   0.00000  Uiso   1.00
O541   O     0.75828   0.16666   0.45127   0.00000  Uiso   1.00
O542   O     0.90839   0.16667   0.54873   0.00000  Uiso   1.00
O543   O     0.76691   0.11630   0.37494   0.00000  Uiso   1.00
C544   C     0.76378   0.07596   0.35609   0.00000  Uiso   1.00
H545   H     0.80194   0.06411   0.34940   0.00000  Uiso   1.00
H546   H     0.73537   0.07451   0.65674   0.00000  Uiso   1.00
H547   H     0.74961   0.05514   0.38219   0.00000  Uiso   1.00
O548   O     0.89976   0.21703   0.62506   0.00000  Uiso   1.00
C549   C     0.90288   0.25737   0.64391   0.00000  Uiso   1.00
H550   H     0.93129   0.25882   0.34326   0.00000  Uiso   1.00
H551   H     0.86472   0.26922   0.65060   0.00000  Uiso   1.00
H552   H     0.91705   0.27819   0.61781   0.00000  Uiso   1.00
C553   C     0.16663   0.42071   0.49993   0.00000  Uiso   1.00
C554   C     0.16670   0.57929   0.50007   0.00000  Uiso   1.00
C555   C     0.06791   0.49997   0.48788   0.00000  Uiso   1.00
C556   C     0.26543   0.50003   0.51212   0.00000  Uiso   1.00
C557   C     0.01259   0.49999   0.48124   0.00000  Uiso   1.00
C558   C     0.32074   0.50001   0.51876   0.00000  Uiso   1.00
C559   C     0.17551   0.35452   0.45938   0.00000  Uiso   1.00
C560   C     0.15783   0.64548   0.54062   0.00000  Uiso   1.00
C561   C     0.17548   0.64525   0.45942   0.00000  Uiso   1.00
C562   C     0.15785   0.35475   0.54058   0.00000  Uiso   1.00
C563   C     0.16670   0.62392   0.50007   0.00000  Uiso   1.00
C564   C     0.16664   0.37609   0.49993   0.00000  Uiso   1.00
C565   C     0.13431   0.47411   0.35409   0.00000  Uiso   1.00
C566   C     0.19903   0.52590   0.64591   0.00000  Uiso   1.00
C567   C     0.13400   0.47489   0.63737   0.00000  Uiso   1.00
C568   C     0.19933   0.52511   0.36263   0.00000  Uiso   1.00
Cu569  Cu    0.16667   0.50001   0.54689   0.00000  Uiso   1.00
Cu570  Cu    0.16667   0.49999   0.45311   0.00000  Uiso   1.00
H571   H     0.32584   0.50001   0.44527   0.00000  Uiso   1.00
H572   H     0.00749   0.49999   0.55473   0.00000  Uiso   1.00
H573   H     0.18289   0.37048   0.42782   0.00000  Uiso   1.00
H574   H     0.15045   0.62952   0.57218   0.00000  Uiso   1.00
H575   H     0.18267   0.62911   0.42778   0.00000  Uiso   1.00
H576   H     0.15066   0.37089   0.57222   0.00000  Uiso   1.00
H577   H     0.10749   0.45569   0.61436   0.00000  Uiso   1.00
H578   H     0.22585   0.54431   0.38564   0.00000  Uiso   1.00
N579   N     0.16668   0.50001   0.61736   0.00000  Uiso   1.00
N580   N     0.16665   0.49999   0.38264   0.00000  Uiso   1.00
O581   O     0.16666   0.43989   0.53958   0.00000  Uiso   1.00
O582   O     0.16667   0.56011   0.46042   0.00000  Uiso   1.00
O583   O     0.16666   0.43988   0.46039   0.00000  Uiso   1.00
O584   O     0.16667   0.56012   0.53961   0.00000  Uiso   1.00
O585   O     0.09161   0.50000   0.53046   0.00000  Uiso   1.00
O586   O     0.24172   0.50000   0.46954   0.00000  Uiso   1.00
O587   O     0.09161   0.49999   0.45127   0.00000  Uiso   1.00
O588   O     0.24172   0.50001   0.54873   0.00000  Uiso   1.00
O589   O     0.10024   0.44964   0.37494   0.00000  Uiso   1.00
C590   C     0.09712   0.40930   0.35609   0.00000  Uiso   1.00
H591   H     0.13528   0.39745   0.34940   0.00000  Uiso   1.00
H592   H     0.06871   0.40785   0.65674   0.00000  Uiso   1.00
H593   H     0.08294   0.38848   0.38219   0.00000  Uiso   1.00
O594   O     0.23309   0.55036   0.62506   0.00000  Uiso   1.00
C595   C     0.23622   0.59070   0.64391   0.00000  Uiso   1.00
H596   H     0.26463   0.59216   0.34326   0.00000  Uiso   1.00
H597   H     0.19806   0.60255   0.65060   0.00000  Uiso   1.00
H598   H     0.25039   0.61152   0.61781   0.00000  Uiso   1.00
C599   C     0.49996   0.42071   0.49993   0.00000  Uiso   1.00
C600   C     0.50003   0.57929   0.50007   0.00000  Uiso   1.00
C601   C     0.40124   0.49997   0.48788   0.00000  Uiso   1.00
C602   C     0.59876   0.50003   0.51212   0.00000  Uiso   1.00
C603   C     0.34592   0.49999   0.48124   0.00000  Uiso   1.00
C604   C     0.65408   0.50001   0.51876   0.00000  Uiso   1.00
C605   C     0.50884   0.35452   0.45938   0.00000  Uiso   1.00
C606   C     0.49116   0.64548   0.54062   0.00000  Uiso   1.00
C607   C     0.50881   0.64525   0.45942   0.00000  Uiso   1.00
C608   C     0.49119   0.35475   0.54058   0.00000  Uiso   1.00
C609   C     0.50003   0.62392   0.50007   0.00000  Uiso   1.00
C610   C     0.49997   0.37609   0.49993   0.00000  Uiso   1.00
C611   C     0.46764   0.47411   0.35409   0.00000  Uiso   1.00
C612   C     0.53236   0.52590   0.64591   0.00000  Uiso   1.00
C613   C     0.46733   0.47489   0.63737   0.00000  Uiso   1.00
C614   C     0.53266   0.52511   0.36263   0.00000  Uiso   1.00
Cu615  Cu    0.50000   0.50001   0.54689   0.00000  Uiso   1.00
Cu616  Cu    0.50000   0.49999   0.45311   0.00000  Uiso   1.00
H617   H     0.65918   0.50001   0.44527   0.00000  Uiso   1.00
H618   H     0.34082   0.49999   0.55473   0.00000  Uiso   1.00
H619   H     0.51622   0.37048   0.42782   0.00000  Uiso   1.00
H620   H     0.48378   0.62952   0.57218   0.00000  Uiso   1.00
H621   H     0.51600   0.62911   0.42778   0.00000  Uiso   1.00
H622   H     0.48400   0.37089   0.57222   0.00000  Uiso   1.00
H623   H     0.44082   0.45569   0.61436   0.00000  Uiso   1.00
H624   H     0.55918   0.54431   0.38564   0.00000  Uiso   1.00
N625   N     0.50001   0.50001   0.61736   0.00000  Uiso   1.00
N626   N     0.49999   0.49999   0.38264   0.00000  Uiso   1.00
O627   O     0.50000   0.43989   0.53958   0.00000  Uiso   1.00
O628   O     0.50000   0.56011   0.46042   0.00000  Uiso   1.00
O629   O     0.50000   0.43988   0.46039   0.00000  Uiso   1.00
O630   O     0.50000   0.56012   0.53961   0.00000  Uiso   1.00
O631   O     0.42495   0.50000   0.53046   0.00000  Uiso   1.00
O632   O     0.57505   0.50000   0.46954   0.00000  Uiso   1.00
O633   O     0.42494   0.49999   0.45127   0.00000  Uiso   1.00
O634   O     0.57506   0.50001   0.54873   0.00000  Uiso   1.00
O635   O     0.43357   0.44964   0.37494   0.00000  Uiso   1.00
C636   C     0.43045   0.40930   0.35609   0.00000  Uiso   1.00
H637   H     0.46861   0.39745   0.34940   0.00000  Uiso   1.00
H638   H     0.40204   0.40785   0.65674   0.00000  Uiso   1.00
H639   H     0.41628   0.38848   0.38219   0.00000  Uiso   1.00
O640   O     0.56643   0.55036   0.62506   0.00000  Uiso   1.00
C641   C     0.56955   0.59070   0.64391   0.00000  Uiso   1.00
H642   H     0.59796   0.59216   0.34326   0.00000  Uiso   1.00
H643   H     0.53139   0.60255   0.65060   0.00000  Uiso   1.00
H644   H     0.58372   0.61152   0.61781   0.00000  Uiso   1.00
C645   C     0.83330   0.42071   0.49993   0.00000  Uiso   1.00
C646   C     0.83337   0.57929   0.50007   0.00000  Uiso   1.00
C647   C     0.73457   0.49997   0.48788   0.00000  Uiso   1.00
C648   C     0.93209   0.50003   0.51212   0.00000  Uiso   1.00
C649   C     0.67926   0.49999   0.48124   0.00000  Uiso   1.00
C650   C     0.98741   0.50001   0.51876   0.00000  Uiso   1.00
C651   C     0.84217   0.35452   0.45938   0.00000  Uiso   1.00
C652   C     0.82449   0.64548   0.54062   0.00000  Uiso   1.00
C653   C     0.84215   0.64525   0.45942   0.00000  Uiso   1.00
C654   C     0.82452   0.35475   0.54058   0.00000  Uiso   1.00
C655   C     0.83336   0.62392   0.50007   0.00000  Uiso   1.00
C656   C     0.83330   0.37609   0.49993   0.00000  Uiso   1.00
C657   C     0.80097   0.47411   0.35409   0.00000  Uiso   1.00
C658   C     0.86569   0.52590   0.64591   0.00000  Uiso   1.00
C659   C     0.80067   0.47489   0.63737   0.00000  Uiso   1.00
C660   C     0.86600   0.52511   0.36263   0.00000  Uiso   1.00
Cu661  Cu    0.83333   0.50001   0.54689   0.00000  Uiso   1.00
Cu662  Cu    0.83333   0.49999   0.45311   0.00000  Uiso   1.00
H663   H     0.99251   0.50001   0.44527   0.00000  Uiso   1.00
H664   H     0.67416   0.49999   0.55473   0.00000  Uiso   1.00
H665   H     0.84955   0.37048   0.42782   0.00000  Uiso   1.00
H666   H     0.81711   0.62952   0.57218   0.00000  Uiso   1.00
H667   H     0.84934   0.62911   0.42778   0.00000  Uiso   1.00
H668   H     0.81733   0.37089   0.57222   0.00000  Uiso   1.00
H669   H     0.77415   0.45569   0.61436   0.00000  Uiso   1.00
H670   H     0.89251   0.54431   0.38564   0.00000  Uiso   1.00
N671   N     0.83335   0.50001   0.61736   0.00000  Uiso   1.00
N672   N     0.83332   0.49999   0.38264   0.00000  Uiso   1.00
O673   O     0.83333   0.43989   0.53958   0.00000  Uiso   1.00
O674   O     0.83334   0.56011   0.46042   0.00000  Uiso   1.00
O675   O     0.83333   0.43988   0.46039   0.00000  Uiso   1.00
O676   O     0.83334   0.56012   0.53961   0.00000  Uiso   1.00
O677   O     0.75828   0.50000   0.53046   0.00000  Uiso   1.00
O678   O     0.90839   0.50000   0.46954   0.00000  Uiso   1.00
O679   O     0.75828   0.49999   0.45127   0.00000  Uiso   1.00
O680   O     0.90839   0.50001   0.54873   0.00000  Uiso   1.00
O681   O     0.76691   0.44964   0.37494   0.00000  Uiso   1.00
C682   C     0.76378   0.40930   0.35609   0.00000  Uiso   1.00
H683   H     0.80194   0.39745   0.34940   0.00000  Uiso   1.00
H684   H     0.73537   0.40785   0.65674   0.00000  Uiso   1.00
H685   H     0.74961   0.38848   0.38219   0.00000  Uiso   1.00
O686   O     0.89976   0.55036   0.62506   0.00000  Uiso   1.00
C687   C     0.90288   0.59070   0.64391   0.00000  Uiso   1.00
H688   H     0.93129   0.59216   0.34326   0.00000  Uiso   1.00
H689   H     0.86472   0.60255   0.65060   0.00000  Uiso   1.00
H690   H     0.91705   0.61152   0.61781   0.00000  Uiso   1.00
C691   C     0.16663   0.75404   0.49993   0.00000  Uiso   1.00
C692   C     0.16670   0.91263   0.50007   0.00000  Uiso   1.00
C693   C     0.06791   0.83330   0.48788   0.00000  Uiso   1.00
C694   C     0.26543   0.83336   0.51212   0.00000  Uiso   1.00
C695   C     0.01259   0.83333   0.48124   0.00000  Uiso   1.00
C696   C     0.32074   0.83334   0.51876   0.00000  Uiso   1.00
C697   C     0.17551   0.68785   0.45938   0.00000  Uiso   1.00
C698   C     0.15783   0.97882   0.54062   0.00000  Uiso   1.00
C699   C     0.17548   0.97858   0.45942   0.00000  Uiso   1.00
C700   C     0.15785   0.68808   0.54058   0.00000  Uiso   1.00
C701   C     0.16670   0.95725   0.50007   0.00000  Uiso   1.00
C702   C     0.16664   0.70942   0.49993   0.00000  Uiso   1.00
C703   C     0.13431   0.80744   0.35409   0.00000  Uiso   1.00
C704   C     0.19903   0.85923   0.64591   0.00000  Uiso   1.00
C705   C     0.13400   0.80823   0.63737   0.00000  Uiso   1.00
C706   C     0.19933   0.85844   0.36263   0.00000  Uiso   1.00
Cu707  Cu    0.16667   0.83334   0.54689   0.00000  Uiso   1.00
Cu708  Cu    0.16667   0.83333   0.45311   0.00000  Uiso   1.00
H709   H     0.32584   0.83335   0.44527   0.00000  Uiso   1.00
H710   H     0.00749   0.83332   0.55473   0.00000  Uiso   1.00
H711   H     0.18289   0.70382   0.42782   0.00000  Uiso   1.00
H712   H     0.15045   0.96285   0.57218   0.00000  Uiso   1.00
H713   H     0.18267   0.96244   0.42778   0.00000  Uiso   1.00
H714   H     0.15066   0.70423   0.57222   0.00000  Uiso   1.00
H715   H     0.10749   0.78902   0.61436   0.00000  Uiso   1.00
H716   H     0.22585   0.87765   0.38564   0.00000  Uiso   1.00
N717   N     0.16668   0.83334   0.61736   0.00000  Uiso   1.00
N718   N     0.16665   0.83332   0.38264   0.00000  Uiso   1.00
O719   O     0.16666   0.77322   0.53958   0.00000  Uiso   1.00
O720   O     0.16667   0.89345   0.46042   0.00000  Uiso   1.00
O721   O     0.16666   0.77321   0.46039   0.00000  Uiso   1.00
O722   O     0.16667   0.89346   0.53961   0.00000  Uiso   1.00
O723   O     0.09161   0.83334   0.53046   0.00000  Uiso   1.00
O724   O     0.24172   0.83333   0.46954   0.00000  Uiso   1.00
O725   O     0.09161   0.83333   0.45127   0.00000  Uiso   1.00
O726   O     0.24172   0.83334   0.54873   0.00000  Uiso   1.00
O727   O     0.10024   0.78297   0.37494   0.00000  Uiso   1.00
C728   C     0.09712   0.74263   0.35609   0.00000  Uiso   1.00
H729   H     0.13528   0.73078   0.34940   0.00000  Uiso   1.00
H730   H     0.06871   0.74118   0.65674   0.00000  Uiso   1.00
H731   H     0.08294   0.72181   0.38219   0.00000  Uiso   1.00
O732   O     0.23309   0.88370   0.62506   0.00000  Uiso   1.00
C733   C     0.23622   0.92404   0.64391   0.00000  Uiso   1.00
H734   H     0.26463   0.92549   0.34326   0.00000  Uiso   1.00
H735   H     0.19806   0.93589   0.65060   0.00000  Uiso   1.00
H736   H     0.25039   0.94486   0.61781   0.00000  Uiso   1.00
C737   C     0.49996   0.75404   0.49993   0.00000  Uiso   1.00
C738   C     0.50003   0.91263   0.50007   0.00000  Uiso   1.00
C739   C     0.40124   0.83330   0.48788   0.00000  Uiso   1.00
C740   C     0.59876   0.83336   0.51212   0.00000  Uiso   1.00
C741   C     0.34592   0.83333   0.48124   0.00000  Uiso   1.00
C742   C     0.65408   0.83334   0.51876   0.00000  Uiso   1.00
C743   C     0.50884   0.68785   0.45938   0.00000  Uiso   1.00
C744   C     0.49116   0.97882   0.54062   0.00000  Uiso   1.00
C745   C     0.50881   0.97858   0.45942   0.00000  Uiso   1.00
C746   C     0.49119   0.68808   0.54058   0.00000  Uiso   1.00
C747   C     0.50003   0.95725   0.50007   0.00000  Uiso   1.00
C748   C     0.49997   0.70942   0.49993   0.00000  Uiso   1.00
C749   C     0.46764   0.80744   0.35409   0.00000  Uiso   1.00
C750   C     0.53236   0.85923   0.64591   0.00000  Uiso   1.00
C751   C     0.46733   0.80823   0.63737   0.00000  Uiso   1.00
C752   C     0.53266   0.85844   0.36263   0.00000  Uiso   1.00
Cu753  Cu    0.50000   0.83334   0.54689   0.00000  Uiso   1.00
Cu754  Cu    0.50000   0.83333   0.45311   0.00000  Uiso   1.00
H755   H     0.65918   0.83335   0.44527   0.00000  Uiso   1.00
H756   H     0.34082   0.83332   0.55473   0.00000  Uiso   1.00
H757   H     0.51622   0.70382   0.42782   0.00000  Uiso   1.00
H758   H     0.48378   0.96285   0.57218   0.00000  Uiso   1.00
H759   H     0.51600   0.96244   0.42778   0.00000  Uiso   1.00
H760   H     0.48400   0.70423   0.57222   0.00000  Uiso   1.00
H761   H     0.44082   0.78902   0.61436   0.00000  Uiso   1.00
H762   H     0.55918   0.87765   0.38564   0.00000  Uiso   1.00
N763   N     0.50001   0.83334   0.61736   0.00000  Uiso   1.00
N764   N     0.49999   0.83332   0.38264   0.00000  Uiso   1.00
O765   O     0.50000   0.77322   0.53958   0.00000  Uiso   1.00
O766   O     0.50000   0.89345   0.46042   0.00000  Uiso   1.00
O767   O     0.50000   0.77321   0.46039   0.00000  Uiso   1.00
O768   O     0.50000   0.89346   0.53961   0.00000  Uiso   1.00
O769   O     0.42495   0.83334   0.53046   0.00000  Uiso   1.00
O770   O     0.57505   0.83333   0.46954   0.00000  Uiso   1.00
O771   O     0.42494   0.83333   0.45127   0.00000  Uiso   1.00
O772   O     0.57506   0.83334   0.54873   0.00000  Uiso   1.00
O773   O     0.43357   0.78297   0.37494   0.00000  Uiso   1.00
C774   C     0.43045   0.74263   0.35609   0.00000  Uiso   1.00
H775   H     0.46861   0.73078   0.34940   0.00000  Uiso   1.00
H776   H     0.40204   0.74118   0.65674   0.00000  Uiso   1.00
H777   H     0.41628   0.72181   0.38219   0.00000  Uiso   1.00
O778   O     0.56643   0.88370   0.62506   0.00000  Uiso   1.00
C779   C     0.56955   0.92404   0.64391   0.00000  Uiso   1.00
H780   H     0.59796   0.92549   0.34326   0.00000  Uiso   1.00
H781   H     0.53139   0.93589   0.65060   0.00000  Uiso   1.00
H782   H     0.58372   0.94486   0.61781   0.00000  Uiso   1.00
C783   C     0.83330   0.75404   0.49993   0.00000  Uiso   1.00
C784   C     0.83337   0.91263   0.50007   0.00000  Uiso   1.00
C785   C     0.73457   0.83330   0.48788   0.00000  Uiso   1.00
C786   C     0.93209   0.83336   0.51212   0.00000  Uiso   1.00
C787   C     0.67926   0.83333   0.48124   0.00000  Uiso   1.00
C788   C     0.98741   0.83334   0.51876   0.00000  Uiso   1.00
C789   C     0.84217   0.68785   0.45938   0.00000  Uiso   1.00
C790   C     0.82449   0.97882   0.54062   0.00000  Uiso   1.00
C791   C     0.84215   0.97858   0.45942   0.00000  Uiso   1.00
C792   C     0.82452   0.68808   0.54058   0.00000  Uiso   1.00
C793   C     0.83336   0.95725   0.50007   0.00000  Uiso   1.00
C794   C     0.83330   0.70942   0.49993   0.00000  Uiso   1.00
C795   C     0.80097   0.80744   0.35409   0.00000  Uiso   1.00
C796   C     0.86569   0.85923   0.64591   0.00000  Uiso   1.00
C797   C     0.80067   0.80823   0.63737   0.00000  Uiso   1.00
C798   C     0.86600   0.85844   0.36263   0.00000  Uiso   1.00
Cu799  Cu    0.83333   0.83334   0.54689   0.00000  Uiso   1.00
Cu800  Cu    0.83333   0.83333   0.45311   0.00000  Uiso   1.00
H801   H     0.99251   0.83335   0.44527   0.00000  Uiso   1.00
H802   H     0.67416   0.83332   0.55473   0.00000  Uiso   1.00
H803   H     0.84955   0.70382   0.42782   0.00000  Uiso   1.00
H804   H     0.81711   0.96285   0.57218   0.00000  Uiso   1.00
H805   H     0.84934   0.96244   0.42778   0.00000  Uiso   1.00
H806   H     0.81733   0.70423   0.57222   0.00000  Uiso   1.00
H807   H     0.77415   0.78902   0.61436   0.00000  Uiso   1.00
H808   H     0.89251   0.87765   0.38564   0.00000  Uiso   1.00
N809   N     0.83335   0.83334   0.61736   0.00000  Uiso   1.00
N810   N     0.83332   0.83332   0.38264   0.00000  Uiso   1.00
O811   O     0.83333   0.77322   0.53958   0.00000  Uiso   1.00
O812   O     0.83334   0.89345   0.46042   0.00000  Uiso   1.00
O813   O     0.83333   0.77321   0.46039   0.00000  Uiso   1.00
O814   O     0.83334   0.89346   0.53961   0.00000  Uiso   1.00
O815   O     0.75828   0.83334   0.53046   0.00000  Uiso   1.00
O816   O     0.90839   0.83333   0.46954   0.00000  Uiso   1.00
O817   O     0.75828   0.83333   0.45127   0.00000  Uiso   1.00
O818   O     0.90839   0.83334   0.54873   0.00000  Uiso   1.00
O819   O     0.76691   0.78297   0.37494   0.00000  Uiso   1.00
C820   C     0.76378   0.74263   0.35609   0.00000  Uiso   1.00
H821   H     0.80194   0.73078   0.34940   0.00000  Uiso   1.00
H822   H     0.73537   0.74118   0.65674   0.00000  Uiso   1.00
H823   H     0.74961   0.72181   0.38219   0.00000  Uiso   1.00
O824   O     0.89976   0.88370   0.62506   0.00000  Uiso   1.00
C825   C     0.90288   0.92404   0.64391   0.00000  Uiso   1.00
H826   H     0.93129   0.92549   0.34326   0.00000  Uiso   1.00
H827   H     0.86472   0.93589   0.65060   0.00000  Uiso   1.00
H828   H     0.91705   0.94486   0.61781   0.00000  Uiso   1.00
C829   C     0.16663   0.08737   0.83326   0.00000  Uiso   1.00
C830   C     0.16670   0.24596   0.83340   0.00000  Uiso   1.00
C831   C     0.06791   0.16664   0.82121   0.00000  Uiso   1.00
C832   C     0.26543   0.16670   0.84545   0.00000  Uiso   1.00
C833   C     0.01259   0.16666   0.81457   0.00000  Uiso   1.00
C834   C     0.32074   0.16667   0.85210   0.00000  Uiso   1.00
C835   C     0.17551   0.02118   0.79271   0.00000  Uiso   1.00
C836   C     0.15783   0.31215   0.87396   0.00000  Uiso   1.00
C837   C     0.17548   0.31192   0.79275   0.00000  Uiso   1.00
C838   C     0.15785   0.02142   0.87392   0.00000  Uiso   1.00
C839   C     0.16670   0.29058   0.83340   0.00000  Uiso   1.00
C840   C     0.16664   0.04275   0.83326   0.00000  Uiso   1.00
C841   C     0.13431   0.14077   0.68743   0.00000  Uiso   1.00
C842   C     0.19903   0.19256   0.97924   0.00000  Uiso   1.00
C843   C     0.13400   0.14156   0.97070   0.00000  Uiso   1.00
C844   C     0.19933   0.19177   0.69597   0.00000  Uiso   1.00
Cu845  Cu    0.16667   0.16667   0.88022   0.00000  Uiso   1.00
Cu846  Cu    0.16667   0.16666   0.78645   0.00000  Uiso   1.00
H847   H     0.32584   0.16668   0.77860   0.00000  Uiso   1.00
H848   H     0.00749   0.16665   0.88807   0.00000  Uiso   1.00
H849   H     0.18289   0.03715   0.76115   0.00000  Uiso   1.00
H850   H     0.15045   0.29618   0.90552   0.00000  Uiso   1.00
H851   H     0.18267   0.29577   0.76112   0.00000  Uiso   1.00
H852   H     0.15066   0.03756   0.90555   0.00000  Uiso   1.00
H853   H     0.10749   0.12235   0.94769   0.00000  Uiso   1.00
H854   H     0.22585   0.21098   0.71897   0.00000  Uiso   1.00
N855   N     0.16668   0.16668   0.95069   0.00000  Uiso   1.00
N856   N     0.16665   0.16666   0.71597   0.00000  Uiso   1.00
O857   O     0.16666   0.10655   0.87291   0.00000  Uiso   1.00
O858   O     0.16667   0.22678   0.79375   0.00000  Uiso   1.00
O859   O     0.16666   0.10654   0.79372   0.00000  Uiso   1.00
O860   O     0.16667   0.22679   0.87294   0.00000  Uiso   1.00
O861   O     0.09161   0.16667   0.86379   0.00000  Uiso   1.00
O862   O     0.24172   0.16666   0.80288   0.00000  Uiso   1.00
O863   O     0.09161   0.16666   0.78460   0.00000  Uiso   1.00
O864   O     0.24172   0.16667   0.88207   0.00000  Uiso   1.00
O865   O     0.10024   0.11630   0.70827   0.00000  Uiso   1.00
C866   C     0.09712   0.07596   0.68943   0.00000  Uiso   1.00
H867   H     0.13528   0.06411   0.68273   0.00000  Uiso   1.00
H868   H     0.06871   0.07451   0.99008   0.00000  Uiso   1.00
H869   H     0.08294   0.05514   0.71552   0.00000  Uiso   1.00
O870   O     0.23309   0.21703   0.95839   0.00000  Uiso   1.00
C871   C     0.23622   0.25737   0.97724   0.00000  Uiso   1.00
H872   H     0.26463   0.25882   0.67659   0.00000  Uiso   1.00
H873   H     0.19806   0.26922   0.98393   0.00000  Uiso   1.00
H874   H     0.25039   0.27819   0.95114   0.00000  Uiso   1.00
C875   C     0.49996   0.08737   0.83326   0.00000  Uiso   1.00
C876   C     0.50003   0.24596   0.83340   0.00000  Uiso   1.00
C877   C     0.40124   0.16664   0.82121   0.00000  Uiso   1.00
C878   C     0.59876   0.16670   0.84545   0.00000  Uiso   1.00
C879   C     0.34592   0.16666   0.81457   0.00000  Uiso   1.00
C880   C     0.65408   0.16667   0.85210   0.00000  Uiso   1.00
C881   C     0.50884   0.02118   0.79271   0.00000  Uiso   1.00
C882   C     0.49116   0.31215   0.87396   0.00000  Uiso   1.00
C883   C     0.50881   0.31192   0.79275   0.00000  Uiso   1.00
C884   C     0.49119   0.02142   0.87392   0.00000  Uiso   1.00
C885   C     0.50003   0.29058   0.83340   0.00000  Uiso   1.00
C886   C     0.49997   0.04275   0.83326   0.00000  Uiso   1.00
C887   C     0.46764   0.14077   0.68743   0.00000  Uiso   1.00
C888   C     0.53236   0.19256   0.97924   0.00000  Uiso   1.00
C889   C     0.46733   0.14156   0.97070   0.00000  Uiso   1.00
C890   C     0.53266   0.19177   0.69597   0.00000  Uiso   1.00
Cu891  Cu    0.50000   0.16667   0.88022   0.00000  Uiso   1.00
Cu892  Cu    0.50000   0.16666   0.78645   0.00000  Uiso   1.00
H893   H     0.65918   0.16668   0.77860   0.00000  Uiso   1.00
H894   H     0.34082   0.16665   0.88807   0.00000  Uiso   1.00
H895   H     0.51622   0.03715   0.76115   0.00000  Uiso   1.00
H896   H     0.48378   0.29618   0.90552   0.00000  Uiso   1.00
H897   H     0.51600   0.29577   0.76112   0.00000  Uiso   1.00
H898   H     0.48400   0.03756   0.90555   0.00000  Uiso   1.00
H899   H     0.44082   0.12235   0.94769   0.00000  Uiso   1.00
H900   H     0.55918   0.21098   0.71897   0.00000  Uiso   1.00
N901   N     0.50001   0.16668   0.95069   0.00000  Uiso   1.00
N902   N     0.49999   0.16666   0.71597   0.00000  Uiso   1.00
O903   O     0.50000   0.10655   0.87291   0.00000  Uiso   1.00
O904   O     0.50000   0.22678   0.79375   0.00000  Uiso   1.00
O905   O     0.50000   0.10654   0.79372   0.00000  Uiso   1.00
O906   O     0.50000   0.22679   0.87294   0.00000  Uiso   1.00
O907   O     0.42495   0.16667   0.86379   0.00000  Uiso   1.00
O908   O     0.57505   0.16666   0.80288   0.00000  Uiso   1.00
O909   O     0.42494   0.16666   0.78460   0.00000  Uiso   1.00
O910   O     0.57506   0.16667   0.88207   0.00000  Uiso   1.00
O911   O     0.43357   0.11630   0.70827   0.00000  Uiso   1.00
C912   C     0.43045   0.07596   0.68943   0.00000  Uiso   1.00
H913   H     0.46861   0.06411   0.68273   0.00000  Uiso   1.00
H914   H     0.40204   0.07451   0.99008   0.00000  Uiso   1.00
H915   H     0.41628   0.05514   0.71552   0.00000  Uiso   1.00
O916   O     0.56643   0.21703   0.95839   0.00000  Uiso   1.00
C917   C     0.56955   0.25737   0.97724   0.00000  Uiso   1.00
H918   H     0.59796   0.25882   0.67659   0.00000  Uiso   1.00
H919   H     0.53139   0.26922   0.98393   0.00000  Uiso   1.00
H920   H     0.58372   0.27819   0.95114   0.00000  Uiso   1.00
C921   C     0.83330   0.08737   0.83326   0.00000  Uiso   1.00
C922   C     0.83337   0.24596   0.83340   0.00000  Uiso   1.00
C923   C     0.73457   0.16664   0.82121   0.00000  Uiso   1.00
C924   C     0.93209   0.16670   0.84545   0.00000  Uiso   1.00
C925   C     0.67926   0.16666   0.81457   0.00000  Uiso   1.00
C926   C     0.98741   0.16667   0.85210   0.00000  Uiso   1.00
C927   C     0.84217   0.02118   0.79271   0.00000  Uiso   1.00
C928   C     0.82449   0.31215   0.87396   0.00000  Uiso   1.00
C929   C     0.84215   0.31192   0.79275   0.00000  Uiso   1.00
C930   C     0.82452   0.02142   0.87392   0.00000  Uiso   1.00
C931   C     0.83336   0.29058   0.83340   0.00000  Uiso   1.00
C932   C     0.83330   0.04275   0.83326   0.00000  Uiso   1.00
C933   C     0.80097   0.14077   0.68743   0.00000  Uiso   1.00
C934   C     0.86569   0.19256   0.97924   0.00000  Uiso   1.00
C935   C     0.80067   0.14156   0.97070   0.00000  Uiso   1.00
C936   C     0.86600   0.19177   0.69597   0.00000  Uiso   1.00
Cu937  Cu    0.83333   0.16667   0.88022   0.00000  Uiso   1.00
Cu938  Cu    0.83333   0.16666   0.78645   0.00000  Uiso   1.00
H939   H     0.99251   0.16668   0.77860   0.00000  Uiso   1.00
H940   H     0.67416   0.16665   0.88807   0.00000  Uiso   1.00
H941   H     0.84955   0.03715   0.76115   0.00000  Uiso   1.00
H942   H     0.81711   0.29618   0.90552   0.00000  Uiso   1.00
H943   H     0.84934   0.29577   0.76112   0.00000  Uiso   1.00
H944   H     0.81733   0.03756   0.90555   0.00000  Uiso   1.00
H945   H     0.77415   0.12235   0.94769   0.00000  Uiso   1.00
H946   H     0.89251   0.21098   0.71897   0.00000  Uiso   1.00
N947   N     0.83335   0.16668   0.95069   0.00000  Uiso   1.00
N948   N     0.83332   0.16666   0.71597   0.00000  Uiso   1.00
O949   O     0.83333   0.10655   0.87291   0.00000  Uiso   1.00
O950   O     0.83334   0.22678   0.79375   0.00000  Uiso   1.00
O951   O     0.83333   0.10654   0.79372   0.00000  Uiso   1.00
O952   O     0.83334   0.22679   0.87294   0.00000  Uiso   1.00
O953   O     0.75828   0.16667   0.86379   0.00000  Uiso   1.00
O954   O     0.90839   0.16666   0.80288   0.00000  Uiso   1.00
O955   O     0.75828   0.16666   0.78460   0.00000  Uiso   1.00
O956   O     0.90839   0.16667   0.88207   0.00000  Uiso   1.00
O957   O     0.76691   0.11630   0.70827   0.00000  Uiso   1.00
C958   C     0.76378   0.07596   0.68943   0.00000  Uiso   1.00
H959   H     0.80194   0.06411   0.68273   0.00000  Uiso   1.00
H960   H     0.73537   0.07451   0.99008   0.00000  Uiso   1.00
H961   H     0.74961   0.05514   0.71552   0.00000  Uiso   1.00
O962   O     0.89976   0.21703   0.95839   0.00000  Uiso   1.00
C963   C     0.90288   0.25737   0.97724   0.00000  Uiso   1.00
H964   H     0.93129   0.25882   0.67659   0.00000  Uiso   1.00
H965   H     0.86472   0.26922   0.98393   0.00000  Uiso   1.00
H966   H     0.91705   0.27819   0.95114   0.00000  Uiso   1.00
C967   C     0.16663   0.42071   0.83326   0.00000  Uiso   1.00
C968   C     0.16670   0.57929   0.83340   0.00000  Uiso   1.00
C969   C     0.06791   0.49997   0.82121   0.00000  Uiso   1.00
C970   C     0.26543   0.50003   0.84545   0.00000  Uiso   1.00
C971   C     0.01259   0.49999   0.81457   0.00000  Uiso   1.00
C972   C     0.32074   0.50001   0.85210   0.00000  Uiso   1.00
C973   C     0.17551   0.35452   0.79271   0.00000  Uiso   1.00
C974   C     0.15783   0.64548   0.87396   0.00000  Uiso   1.00
C975   C     0.17548   0.64525   0.79275   0.00000  Uiso   1.00
C976   C     0.15785   0.35475   0.87392   0.00000  Uiso   1.00
C977   C     0.16670   0.62392   0.83340   0.00000  Uiso   1.00
C978   C     0.16664   0.37609   0.83326   0.00000  Uiso   1.00
C979   C     0.13431   0.47411   0.68743   0.00000  Uiso   1.00
C980   C     0.19903   0.52590   0.97924   0.00000  Uiso   1.00
C981   C     0.13400   0.47489   0.97070   0.00000  Uiso   1.00
C982   C     0.19933   0.52511   0.69597   0.00000  Uiso   1.00
Cu983  Cu    0.16667   0.50001   0.88022   0.00000  Uiso   1.00
Cu984  Cu    0.16667   0.49999   0.78645   0.00000  Uiso   1.00
H985   H     0.32584   0.50001   0.77860   0.00000  Uiso   1.00
H986   H     0.00749   0.49999   0.88807   0.00000  Uiso   1.00
H987   H     0.18289   0.37048   0.76115   0.00000  Uiso   1.00
H988   H     0.15045   0.62952   0.90552   0.00000  Uiso   1.00
H989   H     0.18267   0.62911   0.76112   0.00000  Uiso   1.00
H990   H     0.15066   0.37089   0.90555   0.00000  Uiso   1.00
H991   H     0.10749   0.45569   0.94769   0.00000  Uiso   1.00
H992   H     0.22585   0.54431   0.71897   0.00000  Uiso   1.00
N993   N     0.16668   0.50001   0.95069   0.00000  Uiso   1.00
N994   N     0.16665   0.49999   0.71597   0.00000  Uiso   1.00
O995   O     0.16666   0.43989   0.87291   0.00000  Uiso   1.00
O996   O     0.16667   0.56011   0.79375   0.00000  Uiso   1.00
O997   O     0.16666   0.43988   0.79372   0.00000  Uiso   1.00
O998   O     0.16667   0.56012   0.87294   0.00000  Uiso   1.00
O999   O     0.09161   0.50000   0.86379   0.00000  Uiso   1.00
O1000  O     0.24172   0.50000   0.80288   0.00000  Uiso   1.00
O1001  O     0.09161   0.49999   0.78460   0.00000  Uiso   1.00
O1002  O     0.24172   0.50001   0.88207   0.00000  Uiso   1.00
O1003  O     0.10024   0.44964   0.70827   0.00000  Uiso   1.00
C1004  C     0.09712   0.40930   0.68943   0.00000  Uiso   1.00
H1005  H     0.13528   0.39745   0.68273   0.00000  Uiso   1.00
H1006  H     0.06871   0.40785   0.99008   0.00000  Uiso   1.00
H1007  H     0.08294   0.38848   0.71552   0.00000  Uiso   1.00
O1008  O     0.23309   0.55036   0.95839   0.00000  Uiso   1.00
C1009  C     0.23622   0.59070   0.97724   0.00000  Uiso   1.00
H1010  H     0.26463   0.59216   0.67659   0.00000  Uiso   1.00
H1011  H     0.19806   0.60255   0.98393   0.00000  Uiso   1.00
H1012  H     0.25039   0.61152   0.95114   0.00000  Uiso   1.00
C1013  C     0.49996   0.42071   0.83326   0.00000  Uiso   1.00
C1014  C     0.50003   0.57929   0.83340   0.00000  Uiso   1.00
C1015  C     0.40124   0.49997   0.82121   0.00000  Uiso   1.00
C1016  C     0.59876   0.50003   0.84545   0.00000  Uiso   1.00
C1017  C     0.34592   0.49999   0.81457   0.00000  Uiso   1.00
C1018  C     0.65408   0.50001   0.85210   0.00000  Uiso   1.00
C1019  C     0.50884   0.35452   0.79271   0.00000  Uiso   1.00
C1020  C     0.49116   0.64548   0.87396   0.00000  Uiso   1.00
C1021  C     0.50881   0.64525   0.79275   0.00000  Uiso   1.00
C1022  C     0.49119   0.35475   0.87392   0.00000  Uiso   1.00
C1023  C     0.50003   0.62392   0.83340   0.00000  Uiso   1.00
C1024  C     0.49997   0.37609   0.83326   0.00000  Uiso   1.00
C1025  C     0.46764   0.47411   0.68743   0.00000  Uiso   1.00
C1026  C     0.53236   0.52590   0.97924   0.00000  Uiso   1.00
C1027  C     0.46733   0.47489   0.97070   0.00000  Uiso   1.00
C1028  C     0.53266   0.52511   0.69597   0.00000  Uiso   1.00
Cu1029 Cu    0.50000   0.50001   0.88022   0.00000  Uiso   1.00
Cu1030 Cu    0.50000   0.49999   0.78645   0.00000  Uiso   1.00
H1031  H     0.65918   0.50001   0.77860   0.00000  Uiso   1.00
H1032  H     0.34082   0.49999   0.88807   0.00000  Uiso   1.00
H1033  H     0.51622   0.37048   0.76115   0.00000  Uiso   1.00
H1034  H     0.48378   0.62952   0.90552   0.00000  Uiso   1.00
H1035  H     0.51600   0.62911   0.76112   0.00000  Uiso   1.00
H1036  H     0.48400   0.37089   0.90555   0.00000  Uiso   1.00
H1037  H     0.44082   0.45569   0.94769   0.00000  Uiso   1.00
H1038  H     0.55918   0.54431   0.71897   0.00000  Uiso   1.00
N1039  N     0.50001   0.50001   0.95069   0.00000  Uiso   1.00
N1040  N     0.49999   0.49999   0.71597   0.00000  Uiso   1.00
O1041  O     0.50000   0.43989   0.87291   0.00000  Uiso   1.00
O1042  O     0.50000   0.56011   0.79375   0.00000  Uiso   1.00
O1043  O     0.50000   0.43988   0.79372   0.00000  Uiso   1.00
O1044  O     0.50000   0.56012   0.87294   0.00000  Uiso   1.00
O1045  O     0.42495   0.50000   0.86379   0.00000  Uiso   1.00
O1046  O     0.57505   0.50000   0.80288   0.00000  Uiso   1.00
O1047  O     0.42494   0.49999   0.78460   0.00000  Uiso   1.00
O1048  O     0.57506   0.50001   0.88207   0.00000  Uiso   1.00
O1049  O     0.43357   0.44964   0.70827   0.00000  Uiso   1.00
C1050  C     0.43045   0.40930   0.68943   0.00000  Uiso   1.00
H1051  H     0.46861   0.39745   0.68273   0.00000  Uiso   1.00
H1052  H     0.40204   0.40785   0.99008   0.00000  Uiso   1.00
H1053  H     0.41628   0.38848   0.71552   0.00000  Uiso   1.00
O1054  O     0.56643   0.55036   0.95839   0.00000  Uiso   1.00
C1055  C     0.56955   0.59070   0.97724   0.00000  Uiso   1.00
H1056  H     0.59796   0.59216   0.67659   0.00000  Uiso   1.00
H1057  H     0.53139   0.60255   0.98393   0.00000  Uiso   1.00
H1058  H     0.58372   0.61152   0.95114   0.00000  Uiso   1.00
C1059  C     0.83330   0.42071   0.83326   0.00000  Uiso   1.00
C1060  C     0.83337   0.57929   0.83340   0.00000  Uiso   1.00
C1061  C     0.73457   0.49997   0.82121   0.00000  Uiso   1.00
C1062  C     0.93209   0.50003   0.84545   0.00000  Uiso   1.00
C1063  C     0.67926   0.49999   0.81457   0.00000  Uiso   1.00
C1064  C     0.98741   0.50001   0.85210   0.00000  Uiso   1.00
C1065  C     0.84217   0.35452   0.79271   0.00000  Uiso   1.00
C1066  C     0.82449   0.64548   0.87396   0.00000  Uiso   1.00
C1067  C     0.84215   0.64525   0.79275   0.00000  Uiso   1.00
C1068  C     0.82452   0.35475   0.87392   0.00000  Uiso   1.00
C1069  C     0.83336   0.62392   0.83340   0.00000  Uiso   1.00
C1070  C     0.83330   0.37609   0.83326   0.00000  Uiso   1.00
C1071  C     0.80097   0.47411   0.68743   0.00000  Uiso   1.00
C1072  C     0.86569   0.52590   0.97924   0.00000  Uiso   1.00
C1073  C     0.80067   0.47489   0.97070   0.00000  Uiso   1.00
C1074  C     0.86600   0.52511   0.69597   0.00000  Uiso   1.00
Cu1075 Cu    0.83333   0.50001   0.88022   0.00000  Uiso   1.00
Cu1076 Cu    0.83333   0.49999   0.78645   0.00000  Uiso   1.00
H1077  H     0.99251   0.50001   0.77860   0.00000  Uiso   1.00
H1078  H     0.67416   0.49999   0.88807   0.00000  Uiso   1.00
H1079  H     0.84955   0.37048   0.76115   0.00000  Uiso   1.00
H1080  H     0.81711   0.62952   0.90552   0.00000  Uiso   1.00
H1081  H     0.84934   0.62911   0.76112   0.00000  Uiso   1.00
H1082  H     0.81733   0.37089   0.90555   0.00000  Uiso   1.00
H1083  H     0.77415   0.45569   0.94769   0.00000  Uiso   1.00
H1084  H     0.89251   0.54431   0.71897   0.00000  Uiso   1.00
N1085  N     0.83335   0.50001   0.95069   0.00000  Uiso   1.00
N1086  N     0.83332   0.49999   0.71597   0.00000  Uiso   1.00
O1087  O     0.83333   0.43989   0.87291   0.00000  Uiso   1.00
O1088  O     0.83334   0.56011   0.79375   0.00000  Uiso   1.00
O1089  O     0.83333   0.43988   0.79372   0.00000  Uiso   1.00
O1090  O     0.83334   0.56012   0.87294   0.00000  Uiso   1.00
O1091  O     0.75828   0.50000   0.86379   0.00000  Uiso   1.00
O1092  O     0.90839   0.50000   0.80288   0.00000  Uiso   1.00
O1093  O     0.75828   0.49999   0.78460   0.00000  Uiso   1.00
O1094  O     0.90839   0.50001   0.88207   0.00000  Uiso   1.00
O1095  O     0.76691   0.44964   0.70827   0.00000  Uiso   1.00
C1096  C     0.76378   0.40930   0.68943   0.00000  Uiso   1.00
H1097  H     0.80194   0.39745   0.68273   0.00000  Uiso   1.00
H1098  H     0.73537   0.40785   0.99008   0.00000  Uiso   1.00
H1099  H     0.74961   0.38848   0.71552   0.00000  Uiso   1.00
O1100  O     0.89976   0.55036   0.95839   0.00000  Uiso   1.00
C1101  C     0.90288   0.59070   0.97724   0.00000  Uiso   1.00
H1102  H     0.93129   0.59216   0.67659   0.00000  Uiso   1.00
H1103  H     0.86472   0.60255   0.98393   0.00000  Uiso   1.00
H1104  H     0.91705   0.61152   0.95114   0.00000  Uiso   1.00
C1105  C     0.16663   0.75404   0.83326   0.00000  Uiso   1.00
C1106  C     0.16670   0.91263   0.83340   0.00000  Uiso   1.00
C1107  C     0.06791   0.83330   0.82121   0.00000  Uiso   1.00
C1108  C     0.26543   0.83336   0.84545   0.00000  Uiso   1.00
C1109  C     0.01259   0.83333   0.81457   0.00000  Uiso   1.00
C1110  C     0.32074   0.83334   0.85210   0.00000  Uiso   1.00
C1111  C     0.17551   0.68785   0.79271   0.00000  Uiso   1.00
C1112  C     0.15783   0.97882   0.87396   0.00000  Uiso   1.00
C1113  C     0.17548   0.97858   0.79275   0.00000  Uiso   1.00
C1114  C     0.15785   0.68808   0.87392   0.00000  Uiso   1.00
C1115  C     0.16670   0.95725   0.83340   0.00000  Uiso   1.00
C1116  C     0.16664   0.70942   0.83326   0.00000  Uiso   1.00
C1117  C     0.13431   0.80744   0.68743   0.00000  Uiso   1.00
C1118  C     0.19903   0.85923   0.97924   0.00000  Uiso   1.00
C1119  C     0.13400   0.80823   0.97070   0.00000  Uiso   1.00
C1120  C     0.19933   0.85844   0.69597   0.00000  Uiso   1.00
Cu1121 Cu    0.16667   0.83334   0.88022   0.00000  Uiso   1.00
Cu1122 Cu    0.16667   0.83333   0.78645   0.00000  Uiso   1.00
H1123  H     0.32584   0.83335   0.77860   0.00000  Uiso   1.00
H1124  H     0.00749   0.83332   0.88807   0.00000  Uiso   1.00
H1125  H     0.18289   0.70382   0.76115   0.00000  Uiso   1.00
H1126  H     0.15045   0.96285   0.90552   0.00000  Uiso   1.00
H1127  H     0.18267   0.96244   0.76112   0.00000  Uiso   1.00
H1128  H     0.15066   0.70423   0.90555   0.00000  Uiso   1.00
H1129  H     0.10749   0.78902   0.94769   0.00000  Uiso   1.00
H1130  H     0.22585   0.87765   0.71897   0.00000  Uiso   1.00
N1131  N     0.16668   0.83334   0.95069   0.00000  Uiso   1.00
N1132  N     0.16665   0.83332   0.71597   0.00000  Uiso   1.00
O1133  O     0.16666   0.77322   0.87291   0.00000  Uiso   1.00
O1134  O     0.16667   0.89345   0.79375   0.00000  Uiso   1.00
O1135  O     0.16666   0.77321   0.79372   0.00000  Uiso   1.00
O1136  O     0.16667   0.89346   0.87294   0.00000  Uiso   1.00
O1137  O     0.09161   0.83334   0.86379   0.00000  Uiso   1.00
O1138  O     0.24172   0.83333   0.80288   0.00000  Uiso   1.00
O1139  O     0.09161   0.83333   0.78460   0.00000  Uiso   1.00
O1140  O     0.24172   0.83334   0.88207   0.00000  Uiso   1.00
O1141  O     0.10024   0.78297   0.70827   0.00000  Uiso   1.00
C1142  C     0.09712   0.74263   0.68943   0.00000  Uiso   1.00
H1143  H     0.13528   0.73078   0.68273   0.00000  Uiso   1.00
H1144  H     0.06871   0.74118   0.99008   0.00000  Uiso   1.00
H1145  H     0.08294   0.72181   0.71552   0.00000  Uiso   1.00
O1146  O     0.23309   0.88370   0.95839   0.00000  Uiso   1.00
C1147  C     0.23622   0.92404   0.97724   0.00000  Uiso   1.00
H1148  H     0.26463   0.92549   0.67659   0.00000  Uiso   1.00
H1149  H     0.19806   0.93589   0.98393   0.00000  Uiso   1.00
H1150  H     0.25039   0.94486   0.95114   0.00000  Uiso   1.00
C1151  C     0.49996   0.75404   0.83326   0.00000  Uiso   1.00
C1152  C     0.50003   0.91263   0.83340   0.00000  Uiso   1.00
C1153  C     0.40124   0.83330   0.82121   0.00000  Uiso   1.00
C1154  C     0.59876   0.83336   0.84545   0.00000  Uiso   1.00
C1155  C     0.34592   0.83333   0.81457   0.00000  Uiso   1.00
C1156  C     0.65408   0.83334   0.85210   0.00000  Uiso   1.00
C1157  C     0.50884   0.68785   0.79271   0.00000  Uiso   1.00
C1158  C     0.49116   0.97882   0.87396   0.00000  Uiso   1.00
C1159  C     0.50881   0.97858   0.79275   0.00000  Uiso   1.00
C1160  C     0.49119   0.68808   0.87392   0.00000  Uiso   1.00
C1161  C     0.50003   0.95725   0.83340   0.00000  Uiso   1.00
C1162  C     0.49997   0.70942   0.83326   0.00000  Uiso   1.00
C1163  C     0.46764   0.80744   0.68743   0.00000  Uiso   1.00
C1164  C     0.53236   0.85923   0.97924   0.00000  Uiso   1.00
C1165  C     0.46733   0.80823   0.97070   0.00000  Uiso   1.00
C1166  C     0.53266   0.85844   0.69597   0.00000  Uiso   1.00
Cu1167 Cu    0.50000   0.83334   0.88022   0.00000  Uiso   1.00
Cu1168 Cu    0.50000   0.83333   0.78645   0.00000  Uiso   1.00
H1169  H     0.65918   0.83335   0.77860   0.00000  Uiso   1.00
H1170  H     0.34082   0.83332   0.88807   0.00000  Uiso   1.00
H1171  H     0.51622   0.70382   0.76115   0.00000  Uiso   1.00
H1172  H     0.48378   0.96285   0.90552   0.00000  Uiso   1.00
H1173  H     0.51600   0.96244   0.76112   0.00000  Uiso   1.00
H1174  H     0.48400   0.70423   0.90555   0.00000  Uiso   1.00
H1175  H     0.44082   0.78902   0.94769   0.00000  Uiso   1.00
H1176  H     0.55918   0.87765   0.71897   0.00000  Uiso   1.00
N1177  N     0.50001   0.83334   0.95069   0.00000  Uiso   1.00
N1178  N     0.49999   0.83332   0.71597   0.00000  Uiso   1.00
O1179  O     0.50000   0.77322   0.87291   0.00000  Uiso   1.00
O1180  O     0.50000   0.89345   0.79375   0.00000  Uiso   1.00
O1181  O     0.50000   0.77321   0.79372   0.00000  Uiso   1.00
O1182  O     0.50000   0.89346   0.87294   0.00000  Uiso   1.00
O1183  O     0.42495   0.83334   0.86379   0.00000  Uiso   1.00
O1184  O     0.57505   0.83333   0.80288   0.00000  Uiso   1.00
O1185  O     0.42494   0.83333   0.78460   0.00000  Uiso   1.00
O1186  O     0.57506   0.83334   0.88207   0.00000  Uiso   1.00
O1187  O     0.43357   0.78297   0.70827   0.00000  Uiso   1.00
C1188  C     0.43045   0.74263   0.68943   0.00000  Uiso   1.00
H1189  H     0.46861   0.73078   0.68273   0.00000  Uiso   1.00
H1190  H     0.40204   0.74118   0.99008   0.00000  Uiso   1.00
H1191  H     0.41628   0.72181   0.71552   0.00000  Uiso   1.00
O1192  O     0.56643   0.88370   0.95839   0.00000  Uiso   1.00
C1193  C     0.56955   0.92404   0.97724   0.00000  Uiso   1.00
H1194  H     0.59796   0.92549   0.67659   0.00000  Uiso   1.00
H1195  H     0.53139   0.93589   0.98393   0.00000  Uiso   1.00
H1196  H     0.58372   0.94486   0.95114   0.00000  Uiso   1.00
C1197  C     0.83330   0.75404   0.83326   0.00000  Uiso   1.00
C1198  C     0.83337   0.91263   0.83340   0.00000  Uiso   1.00
C1199  C     0.73457   0.83330   0.82121   0.00000  Uiso   1.00
C1200  C     0.93209   0.83336   0.84545   0.00000  Uiso   1.00
C1201  C     0.67926   0.83333   0.81457   0.00000  Uiso   1.00
C1202  C     0.98741   0.83334   0.85210   0.00000  Uiso   1.00
C1203  C     0.84217   0.68785   0.79271   0.00000  Uiso   1.00
C1204  C     0.82449   0.97882   0.87396   0.00000  Uiso   1.00
C1205  C     0.84215   0.97858   0.79275   0.00000  Uiso   1.00
C1206  C     0.82452   0.68808   0.87392   0.00000  Uiso   1.00
C1207  C     0.83336   0.95725   0.83340   0.00000  Uiso   1.00
C1208  C     0.83330   0.70942   0.83326   0.00000  Uiso   1.00
C1209  C     0.80097   0.80744   0.68743   0.00000  Uiso   1.00
C1210  C     0.86569   0.85923   0.97924   0.00000  Uiso   1.00
C1211  C     0.80067   0.80823   0.97070   0.00000  Uiso   1.00
C1212  C     0.86600   0.85844   0.69597   0.00000  Uiso   1.00
Cu1213 Cu    0.83333   0.83334   0.88022   0.00000  Uiso   1.00
Cu1214 Cu    0.83333   0.83333   0.78645   0.00000  Uiso   1.00
H1215  H     0.99251   0.83335   0.77860   0.00000  Uiso   1.00
H1216  H     0.67416   0.83332   0.88807   0.00000  Uiso   1.00
H1217  H     0.84955   0.70382   0.76115   0.00000  Uiso   1.00
H1218  H     0.81711   0.96285   0.90552   0.00000  Uiso   1.00
H1219  H     0.84934   0.96244   0.76112   0.00000  Uiso   1.00
H1220  H     0.81733   0.70423   0.90555   0.00000  Uiso   1.00
H1221  H     0.77415   0.78902   0.94769   0.00000  Uiso   1.00
H1222  H     0.89251   0.87765   0.71897   0.00000  Uiso   1.00
N1223  N     0.83335   0.83334   0.95069   0.00000  Uiso   1.00
N1224  N     0.83332   0.83332   0.71597   0.00000  Uiso   1.00
O1225  O     0.83333   0.77322   0.87291   0.00000  Uiso   1.00
O1226  O     0.83334   0.89345   0.79375   0.00000  Uiso   1.00
O1227  O     0.83333   0.77321   0.79372   0.00000  Uiso   1.00
O1228  O     0.83334   0.89346   0.87294   0.00000  Uiso   1.00
O1229  O     0.75828   0.83334   0.86379   0.00000  Uiso   1.00
O1230  O     0.90839   0.83333   0.80288   0.00000  Uiso   1.00
O1231  O     0.75828   0.83333   0.78460   0.00000  Uiso   1.00
O1232  O     0.90839   0.83334   0.88207   0.00000  Uiso   1.00
O1233  O     0.76691   0.78297   0.70827   0.00000  Uiso   1.00
C1234  C     0.76378   0.74263   0.68943   0.00000  Uiso   1.00
H1235  H     0.80194   0.73078   0.68273   0.00000  Uiso   1.00
H1236  H     0.73537   0.74118   0.99008   0.00000  Uiso   1.00
H1237  H     0.74961   0.72181   0.71552   0.00000  Uiso   1.00
O1238  O     0.89976   0.88370   0.95839   0.00000  Uiso   1.00
C1239  C     0.90288   0.92404   0.97724   0.00000  Uiso   1.00
H1240  H     0.93129   0.92549   0.67659   0.00000  Uiso   1.00
H1241  H     0.86472   0.93589   0.98393   0.00000  Uiso   1.00
H1242  H     0.91705   0.94486   0.95114   0.00000  Uiso   1.00
loop_
_geom_bond_atom_site_label_1
_geom_bond_atom_site_label_2
_geom_bond_distance
_geom_bond_site_symmetry_2
_ccdc_geom_bond_type
C1     O29     1.291   .     A
C1     C12     1.449   .     S
C1     O31     1.293   .     A
C2     C11     1.449   .     S
C2     O32     1.293   .     A
C2     O30     1.291   .     A
C3     O35     1.290   .     A
C3     O33     1.286   .     A
C3     C5      1.435   .     S
C4     O36     1.290   .     A
C4     C6      1.435   .     S
C4     O34     1.286   .     A
C5     C98     1.336   1_455 S
C5     H111    1.087   1_455 S
C6     C51     1.336   .     S
C6     H66     1.087   .     S
C7     C12     1.400   .     A
C7     H21     1.083   .     S
C7     C285    1.384   1_545 S
C8     H22     1.083   .     S
C8     C11     1.400   .     A
C8     C148    1.384   .     S
C9     C11     1.401   .     A
C9     H23     1.083   .     S
C9     C145    1.384   .     S
C10    C12     1.401   .     A
C10    H24     1.084   .     S
C10    C284    1.384   1_545 S
C13    N28     1.372   .     A
C13    O37     1.389   .     S
C13    C843    1.431   1_554 S
C14    N27     1.372   .     A
C14    O42     1.389   .     S
C14    C430    1.431   .     S
C15    H25     1.080   .     S
C15    N27     1.363   .     A
C15    C427    1.431   .     S
C16    N28     1.363   .     A
C16    H26     1.080   .     S
C16    C842    1.431   1_554 S
Cu17   O36     1.960   .     S
Cu17   Cu18    2.681   .     S
Cu17   O29     1.963   .     S
Cu17   O33     1.957   .     S
Cu17   N27     2.015   .     S
Cu17   O32     1.964   .     S
Cu18   O35     1.960   .     S
Cu18   N28     2.015   .     S
Cu18   O30     1.963   .     S
Cu18   O34     1.957   .     S
Cu18   O31     1.964   .     S
H19    C51     1.087   .     S
H20    C98     1.087   1_455 S
O37    C38     1.412   .     S
C38    H41     1.109   .     S
C38    H39     1.115   .     S
C38    H868    1.110   1_554 S
H40    C452    1.110   .     S
O42    C43     1.412   .     S
C43    H45     1.115   .     S
C43    H46     1.109   .     S
C43    H458    1.110   .     S
H44    C871    1.110   1_554 S
C47    O75     1.291   .     A
C47    C58     1.449   .     S
C47    O77     1.293   .     A
C48    C57     1.449   .     S
C48    O78     1.293   .     A
C48    O76     1.291   .     A
C49    O81     1.290   .     A
C49    O79     1.286   .     A
C49    C51     1.435   .     S
C50    O82     1.290   .     A
C50    C52     1.435   .     S
C50    O80     1.286   .     A
C52    C97     1.336   .     S
C52    H112    1.087   .     S
C53    C58     1.400   .     A
C53    H67     1.083   .     S
C53    C331    1.384   1_545 S
C54    H68     1.083   .     S
C54    C57     1.400   .     A
C54    C194    1.384   .     S
C55    C57     1.401   .     A
C55    H69     1.083   .     S
C55    C191    1.384   .     S
C56    C58     1.401   .     A
C56    H70     1.084   .     S
C56    C330    1.384   1_545 S
C59    N74     1.372   .     A
C59    O83     1.389   .     S
C59    C889    1.431   1_554 S
C60    N73     1.372   .     A
C60    O88     1.389   .     S
C60    C476    1.431   .     S
C61    H71     1.080   .     S
C61    N73     1.363   .     A
C61    C473    1.431   .     S
C62    N74     1.363   .     A
C62    H72     1.080   .     S
C62    C888    1.431   1_554 S
Cu63   O82     1.960   .     S
Cu63   Cu64    2.681   .     S
Cu63   O75     1.963   .     S
Cu63   O79     1.957   .     S
Cu63   N73     2.015   .     S
Cu63   O78     1.964   .     S
Cu64   O81     1.960   .     S
Cu64   N74     2.015   .     S
Cu64   O76     1.963   .     S
Cu64   O80     1.957   .     S
Cu64   O77     1.964   .     S
H65    C97     1.087   .     S
O83    C84     1.412   .     S
C84    H87     1.109   .     S
C84    H85     1.115   .     S
C84    H914    1.110   1_554 S
H86    C498    1.110   .     S
O88    C89     1.412   .     S
C89    H91     1.115   .     S
C89    H92     1.109   .     S
C89    H504    1.110   .     S
H90    C917    1.110   1_554 S
C93    O121    1.291   .     A
C93    C104    1.449   .     S
C93    O123    1.293   .     A
C94    C103    1.449   .     S
C94    O124    1.293   .     A
C94    O122    1.291   .     A
C95    O127    1.290   .     A
C95    O125    1.286   .     A
C95    C97     1.435   .     S
C96    O128    1.290   .     A
C96    C98     1.435   .     S
C96    O126    1.286   .     A
C98    C5      1.336   1_655 S
C98    H20     1.087   1_655 S
C99    C104    1.400   .     A
C99    H113    1.083   .     S
C99    C377    1.384   1_545 S
C100   H114    1.083   .     S
C100   C103    1.400   .     A
C100   C240    1.384   .     S
C101   C103    1.401   .     A
C101   H115    1.083   .     S
C101   C237    1.384   .     S
C102   C104    1.401   .     A
C102   H116    1.084   .     S
C102   C376    1.384   1_545 S
C105   N120    1.372   .     A
C105   O129    1.389   .     S
C105   C935    1.431   1_554 S
C106   N119    1.372   .     A
C106   O134    1.389   .     S
C106   C522    1.431   .     S
C107   H117    1.080   .     S
C107   N119    1.363   .     A
C107   C519    1.431   .     S
C108   N120    1.363   .     A
C108   H118    1.080   .     S
C108   C934    1.431   1_554 S
Cu109  O128    1.960   .     S
Cu109  Cu110   2.681   .     S
Cu109  O121    1.963   .     S
Cu109  O125    1.957   .     S
Cu109  N119    2.015   .     S
Cu109  O124    1.964   .     S
Cu110  O127    1.960   .     S
Cu110  N120    2.015   .     S
Cu110  O122    1.963   .     S
Cu110  O126    1.957   .     S
Cu110  O123    1.964   .     S
H111   C5      1.087   1_655 S
O129   C130    1.412   .     S
C130   H133    1.109   .     S
C130   H131    1.115   .     S
C130   H960    1.110   1_554 S
H132   C544    1.110   .     S
O134   C135    1.412   .     S
C135   H137    1.115   .     S
C135   H138    1.109   .     S
C135   H550    1.110   .     S
H136   C963    1.110   1_554 S
C139   O167    1.291   .     A
C139   C150    1.449   .     S
C139   O169    1.293   .     A
C140   C149    1.449   .     S
C140   O170    1.293   .     A
C140   O168    1.291   .     A
C141   O173    1.290   .     A
C141   O171    1.286   .     A
C141   C143    1.435   .     S
C142   O174    1.290   .     A
C142   C144    1.435   .     S
C142   O172    1.286   .     A
C143   C236    1.336   1_455 S
C143   H249    1.087   1_455 S
C144   C189    1.336   .     S
C144   H204    1.087   .     S
C145   C150    1.400   .     A
C145   H159    1.083   .     S
C146   H160    1.083   .     S
C146   C149    1.400   .     A
C146   C286    1.384   .     S
C147   C149    1.401   .     A
C147   H161    1.083   .     S
C147   C283    1.384   .     S
C148   C150    1.401   .     A
C148   H162    1.084   .     S
C151   N166    1.372   .     A
C151   O175    1.389   .     S
C151   C981    1.431   1_554 S
C152   N165    1.372   .     A
C152   O180    1.389   .     S
C152   C568    1.431   .     S
C153   H163    1.080   .     S
C153   N165    1.363   .     A
C153   C565    1.431   .     S
C154   N166    1.363   .     A
C154   H164    1.080   .     S
C154   C980    1.431   1_554 S
Cu155  O174    1.960   .     S
Cu155  Cu156   2.681   .     S
Cu155  O167    1.963   .     S
Cu155  O171    1.957   .     S
Cu155  N165    2.015   .     S
Cu155  O170    1.964   .     S
Cu156  O173    1.960   .     S
Cu156  N166    2.015   .     S
Cu156  O168    1.963   .     S
Cu156  O172    1.957   .     S
Cu156  O169    1.964   .     S
H157   C189    1.087   .     S
H158   C236    1.087   1_455 S
O175   C176    1.412   .     S
C176   H179    1.109   .     S
C176   H177    1.115   .     S
C176   H1006   1.110   1_554 S
H178   C590    1.110   .     S
O180   C181    1.412   .     S
C181   H183    1.115   .     S
C181   H184    1.109   .     S
C181   H596    1.110   .     S
H182   C1009   1.110   1_554 S
C185   O213    1.291   .     A
C185   C196    1.449   .     S
C185   O215    1.293   .     A
C186   C195    1.449   .     S
C186   O216    1.293   .     A
C186   O214    1.291   .     A
C187   O219    1.290   .     A
C187   O217    1.286   .     A
C187   C189    1.435   .     S
C188   O220    1.290   .     A
C188   C190    1.435   .     S
C188   O218    1.286   .     A
C190   C235    1.336   .     S
C190   H250    1.087   .     S
C191   C196    1.400   .     A
C191   H205    1.083   .     S
C192   H206    1.083   .     S
C192   C195    1.400   .     A
C192   C332    1.384   .     S
C193   C195    1.401   .     A
C193   H207    1.083   .     S
C193   C329    1.384   .     S
C194   C196    1.401   .     A
C194   H208    1.084   .     S
C197   N212    1.372   .     A
C197   O221    1.389   .     S
C197   C1027   1.431   1_554 S
C198   N211    1.372   .     A
C198   O226    1.389   .     S
C198   C614    1.431   .     S
C199   H209    1.080   .     S
C199   N211    1.363   .     A
C199   C611    1.431   .     S
C200   N212    1.363   .     A
C200   H210    1.080   .     S
C200   C1026   1.431   1_554 S
Cu201  O220    1.960   .     S
Cu201  Cu202   2.681   .     S
Cu201  O213    1.963   .     S
Cu201  O217    1.957   .     S
Cu201  N211    2.015   .     S
Cu201  O216    1.964   .     S
Cu202  O219    1.960   .     S
Cu202  N212    2.015   .     S
Cu202  O214    1.963   .     S
Cu202  O218    1.957   .     S
Cu202  O215    1.964   .     S
H203   C235    1.087   .     S
O221   C222    1.412   .     S
C222   H225    1.109   .     S
C222   H223    1.115   .     S
C222   H1052   1.110   1_554 S
H224   C636    1.110   .     S
O226   C227    1.412   .     S
C227   H229    1.115   .     S
C227   H230    1.109   .     S
C227   H642    1.110   .     S
H228   C1055   1.110   1_554 S
C231   O259    1.291   .     A
C231   C242    1.449   .     S
C231   O261    1.293   .     A
C232   C241    1.449   .     S
C232   O262    1.293   .     A
C232   O260    1.291   .     A
C233   O265    1.290   .     A
C233   O263    1.286   .     A
C233   C235    1.435   .     S
C234   O266    1.290   .     A
C234   C236    1.435   .     S
C234   O264    1.286   .     A
C236   C143    1.336   1_655 S
C236   H158    1.087   1_655 S
C237   C242    1.400   .     A
C237   H251    1.083   .     S
C238   H252    1.083   .     S
C238   C241    1.400   .     A
C238   C378    1.384   .     S
C239   C241    1.401   .     A
C239   H253    1.083   .     S
C239   C375    1.384   .     S
C240   C242    1.401   .     A
C240   H254    1.084   .     S
C243   N258    1.372   .     A
C243   O267    1.389   .     S
C243   C1073   1.431   1_554 S
C244   N257    1.372   .     A
C244   O272    1.389   .     S
C244   C660    1.431   .     S
C245   H255    1.080   .     S
C245   N257    1.363   .     A
C245   C657    1.431   .     S
C246   N258    1.363   .     A
C246   H256    1.080   .     S
C246   C1072   1.431   1_554 S
Cu247  O266    1.960   .     S
Cu247  Cu248   2.681   .     S
Cu247  O259    1.963   .     S
Cu247  O263    1.957   .     S
Cu247  N257    2.015   .     S
Cu247  O262    1.964   .     S
Cu248  O265    1.960   .     S
Cu248  N258    2.015   .     S
Cu248  O260    1.963   .     S
Cu248  O264    1.957   .     S
Cu248  O261    1.964   .     S
H249   C143    1.087   1_655 S
O267   C268    1.412   .     S
C268   H271    1.109   .     S
C268   H269    1.115   .     S
C268   H1098   1.110   1_554 S
H270   C682    1.110   .     S
O272   C273    1.412   .     S
C273   H275    1.115   .     S
C273   H276    1.109   .     S
C273   H688    1.110   .     S
H274   C1101   1.110   1_554 S
C277   O305    1.291   .     A
C277   C288    1.449   .     S
C277   O307    1.293   .     A
C278   C287    1.449   .     S
C278   O308    1.293   .     A
C278   O306    1.291   .     A
C279   O311    1.290   .     A
C279   O309    1.286   .     A
C279   C281    1.435   .     S
C280   O312    1.290   .     A
C280   C282    1.435   .     S
C280   O310    1.286   .     A
C281   C374    1.336   1_455 S
C281   H387    1.087   1_455 S
C282   C327    1.336   .     S
C282   H342    1.087   .     S
C283   C288    1.400   .     A
C283   H297    1.083   .     S
C284   H298    1.083   .     S
C284   C287    1.400   .     A
C284   C10     1.384   1_565 S
C285   C287    1.401   .     A
C285   H299    1.083   .     S
C285   C7      1.384   1_565 S
C286   C288    1.401   .     A
C286   H300    1.084   .     S
C289   N304    1.372   .     A
C289   O313    1.389   .     S
C289   C1119   1.431   1_554 S
C290   N303    1.372   .     A
C290   O318    1.389   .     S
C290   C706    1.431   .     S
C291   H301    1.080   .     S
C291   N303    1.363   .     A
C291   C703    1.431   .     S
C292   N304    1.363   .     A
C292   H302    1.080   .     S
C292   C1118   1.431   1_554 S
Cu293  O312    1.960   .     S
Cu293  Cu294   2.681   .     S
Cu293  O305    1.963   .     S
Cu293  O309    1.957   .     S
Cu293  N303    2.015   .     S
Cu293  O308    1.964   .     S
Cu294  O311    1.960   .     S
Cu294  N304    2.015   .     S
Cu294  O306    1.963   .     S
Cu294  O310    1.957   .     S
Cu294  O307    1.964   .     S
H295   C327    1.087   .     S
H296   C374    1.087   1_455 S
O313   C314    1.412   .     S
C314   H317    1.109   .     S
C314   H315    1.115   .     S
C314   H1144   1.110   1_554 S
H316   C728    1.110   .     S
O318   C319    1.412   .     S
C319   H321    1.115   .     S
C319   H322    1.109   .     S
C319   H734    1.110   .     S
H320   C1147   1.110   1_554 S
C323   O351    1.291   .     A
C323   C334    1.449   .     S
C323   O353    1.293   .     A
C324   C333    1.449   .     S
C324   O354    1.293   .     A
C324   O352    1.291   .     A
C325   O357    1.290   .     A
C325   O355    1.286   .     A
C325   C327    1.435   .     S
C326   O358    1.290   .     A
C326   C328    1.435   .     S
C326   O356    1.286   .     A
C328   C373    1.336   .     S
C328   H388    1.087   .     S
C329   C334    1.400   .     A
C329   H343    1.083   .     S
C330   H344    1.083   .     S
C330   C333    1.400   .     A
C330   C56     1.384   1_565 S
C331   C333    1.401   .     A
C331   H345    1.083   .     S
C331   C53     1.384   1_565 S
C332   C334    1.401   .     A
C332   H346    1.084   .     S
C335   N350    1.372   .     A
C335   O359    1.389   .     S
C335   C1165   1.431   1_554 S
C336   N349    1.372   .     A
C336   O364    1.389   .     S
C336   C752    1.431   .     S
C337   H347    1.080   .     S
C337   N349    1.363   .     A
C337   C749    1.431   .     S
C338   N350    1.363   .     A
C338   H348    1.080   .     S
C338   C1164   1.431   1_554 S
Cu339  O358    1.960   .     S
Cu339  Cu340   2.681   .     S
Cu339  O351    1.963   .     S
Cu339  O355    1.957   .     S
Cu339  N349    2.015   .     S
Cu339  O354    1.964   .     S
Cu340  O357    1.960   .     S
Cu340  N350    2.015   .     S
Cu340  O352    1.963   .     S
Cu340  O356    1.957   .     S
Cu340  O353    1.964   .     S
H341   C373    1.087   .     S
O359   C360    1.412   .     S
C360   H363    1.109   .     S
C360   H361    1.115   .     S
C360   H1190   1.110   1_554 S
H362   C774    1.110   .     S
O364   C365    1.412   .     S
C365   H367    1.115   .     S
C365   H368    1.109   .     S
C365   H780    1.110   .     S
H366   C1193   1.110   1_554 S
C369   O397    1.291   .     A
C369   C380    1.449   .     S
C369   O399    1.293   .     A
C370   C379    1.449   .     S
C370   O400    1.293   .     A
C370   O398    1.291   .     A
C371   O403    1.290   .     A
C371   O401    1.286   .     A
C371   C373    1.435   .     S
C372   O404    1.290   .     A
C372   C374    1.435   .     S
C372   O402    1.286   .     A
C374   C281    1.336   1_655 S
C374   H296    1.087   1_655 S
C375   C380    1.400   .     A
C375   H389    1.083   .     S
C376   H390    1.083   .     S
C376   C379    1.400   .     A
C376   C102    1.384   1_565 S
C377   C379    1.401   .     A
C377   H391    1.083   .     S
C377   C99     1.384   1_565 S
C378   C380    1.401   .     A
C378   H392    1.084   .     S
C381   N396    1.372   .     A
C381   O405    1.389   .     S
C381   C1211   1.431   1_554 S
C382   N395    1.372   .     A
C382   O410    1.389   .     S
C382   C798    1.431   .     S
C383   H393    1.080   .     S
C383   N395    1.363   .     A
C383   C795    1.431   .     S
C384   N396    1.363   .     A
C384   H394    1.080   .     S
C384   C1210   1.431   1_554 S
Cu385  O404    1.960   .     S
Cu385  Cu386   2.681   .     S
Cu385  O397    1.963   .     S
Cu385  O401    1.957   .     S
Cu385  N395    2.015   .     S
Cu385  O400    1.964   .     S
Cu386  O403    1.960   .     S
Cu386  N396    2.015   .     S
Cu386  O398    1.963   .     S
Cu386  O402    1.957   .     S
Cu386  O399    1.964   .     S
H387   C281    1.087   1_655 S
O405   C406    1.412   .     S
C406   H409    1.109   .     S
C406   H407    1.115   .     S
C406   H1236   1.110   1_554 S
H408   C820    1.110   .     S
O410   C411    1.412   .     S
C411   H413    1.115   .     S
C411   H414    1.109   .     S
C411   H826    1.110   .     S
H412   C1239   1.110   1_554 S
C415   O443    1.291   .     A
C415   C426    1.449   .     S
C415   O445    1.293   .     A
C416   C425    1.449   .     S
C416   O446    1.293   .     A
C416   O444    1.291   .     A
C417   O449    1.290   .     A
C417   O447    1.286   .     A
C417   C419    1.435   .     S
C418   O450    1.290   .     A
C418   C420    1.435   .     S
C418   O448    1.286   .     A
C419   C512    1.336   1_455 S
C419   H525    1.087   1_455 S
C420   C465    1.336   .     S
C420   H480    1.087   .     S
C421   C426    1.400   .     A
C421   H435    1.083   .     S
C421   C699    1.384   1_545 S
C422   H436    1.083   .     S
C422   C425    1.400   .     A
C422   C562    1.384   .     S
C423   C425    1.401   .     A
C423   H437    1.083   .     S
C423   C559    1.384   .     S
C424   C426    1.401   .     A
C424   H438    1.084   .     S
C424   C698    1.384   1_545 S
C427   N442    1.372   .     A
C427   O451    1.389   .     S
C428   N441    1.372   .     A
C428   O456    1.389   .     S
C428   C844    1.431   .     S
C429   H439    1.080   .     S
C429   N441    1.363   .     A
C429   C841    1.431   .     S
C430   N442    1.363   .     A
C430   H440    1.080   .     S
Cu431  O450    1.960   .     S
Cu431  Cu432   2.681   .     S
Cu431  O443    1.963   .     S
Cu431  O447    1.957   .     S
Cu431  N441    2.015   .     S
Cu431  O446    1.964   .     S
Cu432  O449    1.960   .     S
Cu432  N442    2.015   .     S
Cu432  O444    1.963   .     S
Cu432  O448    1.957   .     S
Cu432  O445    1.964   .     S
H433   C465    1.087   .     S
H434   C512    1.087   1_455 S
O451   C452    1.412   .     S
C452   H455    1.109   .     S
C452   H453    1.115   .     S
H454   C866    1.110   .     S
O456   C457    1.412   .     S
C457   H459    1.115   .     S
C457   H460    1.109   .     S
C457   H872    1.110   .     S
C461   O489    1.291   .     A
C461   C472    1.449   .     S
C461   O491    1.293   .     A
C462   C471    1.449   .     S
C462   O492    1.293   .     A
C462   O490    1.291   .     A
C463   O495    1.290   .     A
C463   O493    1.286   .     A
C463   C465    1.435   .     S
C464   O496    1.290   .     A
C464   C466    1.435   .     S
C464   O494    1.286   .     A
C466   C511    1.336   .     S
C466   H526    1.087   .     S
C467   C472    1.400   .     A
C467   H481    1.083   .     S
C467   C745    1.384   1_545 S
C468   H482    1.083   .     S
C468   C471    1.400   .     A
C468   C608    1.384   .     S
C469   C471    1.401   .     A
C469   H483    1.083   .     S
C469   C605    1.384   .     S
C470   C472    1.401   .     A
C470   H484    1.084   .     S
C470   C744    1.384   1_545 S
C473   N488    1.372   .     A
C473   O497    1.389   .     S
C474   N487    1.372   .     A
C474   O502    1.389   .     S
C474   C890    1.431   .     S
C475   H485    1.080   .     S
C475   N487    1.363   .     A
C475   C887    1.431   .     S
C476   N488    1.363   .     A
C476   H486    1.080   .     S
Cu477  O496    1.960   .     S
Cu477  Cu478   2.681   .     S
Cu477  O489    1.963   .     S
Cu477  O493    1.957   .     S
Cu477  N487    2.015   .     S
Cu477  O492    1.964   .     S
Cu478  O495    1.960   .     S
Cu478  N488    2.015   .     S
Cu478  O490    1.963   .     S
Cu478  O494    1.957   .     S
Cu478  O491    1.964   .     S
H479   C511    1.087   .     S
O497   C498    1.412   .     S
C498   H501    1.109   .     S
C498   H499    1.115   .     S
H500   C912    1.110   .     S
O502   C503    1.412   .     S
C503   H505    1.115   .     S
C503   H506    1.109   .     S
C503   H918    1.110   .     S
C507   O535    1.291   .     A
C507   C518    1.449   .     S
C507   O537    1.293   .     A
C508   C517    1.449   .     S
C508   O538    1.293   .     A
C508   O536    1.291   .     A
C509   O541    1.290   .     A
C509   O539    1.286   .     A
C509   C511    1.435   .     S
C510   O542    1.290   .     A
C510   C512    1.435   .     S
C510   O540    1.286   .     A
C512   C419    1.336   1_655 S
C512   H434    1.087   1_655 S
C513   C518    1.400   .     A
C513   H527    1.083   .     S
C513   C791    1.384   1_545 S
C514   H528    1.083   .     S
C514   C517    1.400   .     A
C514   C654    1.384   .     S
C515   C517    1.401   .     A
C515   H529    1.083   .     S
C515   C651    1.384   .     S
C516   C518    1.401   .     A
C516   H530    1.084   .     S
C516   C790    1.384   1_545 S
C519   N534    1.372   .     A
C519   O543    1.389   .     S
C520   N533    1.372   .     A
C520   O548    1.389   .     S
C520   C936    1.431   .     S
C521   H531    1.080   .     S
C521   N533    1.363   .     A
C521   C933    1.431   .     S
C522   N534    1.363   .     A
C522   H532    1.080   .     S
Cu523  O542    1.960   .     S
Cu523  Cu524   2.681   .     S
Cu523  O535    1.963   .     S
Cu523  O539    1.957   .     S
Cu523  N533    2.015   .     S
Cu523  O538    1.964   .     S
Cu524  O541    1.960   .     S
Cu524  N534    2.015   .     S
Cu524  O536    1.963   .     S
Cu524  O540    1.957   .     S
Cu524  O537    1.964   .     S
H525   C419    1.087   1_655 S
O543   C544    1.412   .     S
C544   H547    1.109   .     S
C544   H545    1.115   .     S
H546   C958    1.110   .     S
O548   C549    1.412   .     S
C549   H551    1.115   .     S
C549   H552    1.109   .     S
C549   H964    1.110   .     S
C553   O581    1.291   .     A
C553   C564    1.449   .     S
C553   O583    1.293   .     A
C554   C563    1.449   .     S
C554   O584    1.293   .     A
C554   O582    1.291   .     A
C555   O587    1.290   .     A
C555   O585    1.286   .     A
C555   C557    1.435   .     S
C556   O588    1.290   .     A
C556   C558    1.435   .     S
C556   O586    1.286   .     A
C557   C650    1.336   1_455 S
C557   H663    1.087   1_455 S
C558   C603    1.336   .     S
C558   H618    1.087   .     S
C559   C564    1.400   .     A
C559   H573    1.083   .     S
C560   H574    1.083   .     S
C560   C563    1.400   .     A
C560   C700    1.384   .     S
C561   C563    1.401   .     A
C561   H575    1.083   .     S
C561   C697    1.384   .     S
C562   C564    1.401   .     A
C562   H576    1.084   .     S
C565   N580    1.372   .     A
C565   O589    1.389   .     S
C566   N579    1.372   .     A
C566   O594    1.389   .     S
C566   C982    1.431   .     S
C567   H577    1.080   .     S
C567   N579    1.363   .     A
C567   C979    1.431   .     S
C568   N580    1.363   .     A
C568   H578    1.080   .     S
Cu569  O588    1.960   .     S
Cu569  Cu570   2.681   .     S
Cu569  O581    1.963   .     S
Cu569  O585    1.957   .     S
Cu569  N579    2.015   .     S
Cu569  O584    1.964   .     S
Cu570  O587    1.960   .     S
Cu570  N580    2.015   .     S
Cu570  O582    1.963   .     S
Cu570  O586    1.957   .     S
Cu570  O583    1.964   .     S
H571   C603    1.087   .     S
H572   C650    1.087   1_455 S
O589   C590    1.412   .     S
C590   H593    1.109   .     S
C590   H591    1.115   .     S
H592   C1004   1.110   .     S
O594   C595    1.412   .     S
C595   H597    1.115   .     S
C595   H598    1.109   .     S
C595   H1010   1.110   .     S
C599   O627    1.291   .     A
C599   C610    1.449   .     S
C599   O629    1.293   .     A
C600   C609    1.449   .     S
C600   O630    1.293   .     A
C600   O628    1.291   .     A
C601   O633    1.290   .     A
C601   O631    1.286   .     A
C601   C603    1.435   .     S
C602   O634    1.290   .     A
C602   C604    1.435   .     S
C602   O632    1.286   .     A
C604   C649    1.336   .     S
C604   H664    1.087   .     S
C605   C610    1.400   .     A
C605   H619    1.083   .     S
C606   H620    1.083   .     S
C606   C609    1.400   .     A
C606   C746    1.384   .     S
C607   C609    1.401   .     A
C607   H621    1.083   .     S
C607   C743    1.384   .     S
C608   C610    1.401   .     A
C608   H622    1.084   .     S
C611   N626    1.372   .     A
C611   O635    1.389   .     S
C612   N625    1.372   .     A
C612   O640    1.389   .     S
C612   C1028   1.431   .     S
C613   H623    1.080   .     S
C613   N625    1.363   .     A
C613   C1025   1.431   .     S
C614   N626    1.363   .     A
C614   H624    1.080   .     S
Cu615  O634    1.960   .     S
Cu615  Cu616   2.681   .     S
Cu615  O627    1.963   .     S
Cu615  O631    1.957   .     S
Cu615  N625    2.015   .     S
Cu615  O630    1.964   .     S
Cu616  O633    1.960   .     S
Cu616  N626    2.015   .     S
Cu616  O628    1.963   .     S
Cu616  O632    1.957   .     S
Cu616  O629    1.964   .     S
H617   C649    1.087   .     S
O635   C636    1.412   .     S
C636   H639    1.109   .     S
C636   H637    1.115   .     S
H638   C1050   1.110   .     S
O640   C641    1.412   .     S
C641   H643    1.115   .     S
C641   H644    1.109   .     S
C641   H1056   1.110   .     S
C645   O673    1.291   .     A
C645   C656    1.449   .     S
C645   O675    1.293   .     A
C646   C655    1.449   .     S
C646   O676    1.293   .     A
C646   O674    1.291   .     A
C647   O679    1.290   .     A
C647   O677    1.286   .     A
C647   C649    1.435   .     S
C648   O680    1.290   .     A
C648   C650    1.435   .     S
C648   O678    1.286   .     A
C650   C557    1.336   1_655 S
C650   H572    1.087   1_655 S
C651   C656    1.400   .     A
C651   H665    1.083   .     S
C652   H666    1.083   .     S
C652   C655    1.400   .     A
C652   C792    1.384   .     S
C653   C655    1.401   .     A
C653   H667    1.083   .     S
C653   C789    1.384   .     S
C654   C656    1.401   .     A
C654   H668    1.084   .     S
C657   N672    1.372   .     A
C657   O681    1.389   .     S
C658   N671    1.372   .     A
C658   O686    1.389   .     S
C658   C1074   1.431   .     S
C659   H669    1.080   .     S
C659   N671    1.363   .     A
C659   C1071   1.431   .     S
C660   N672    1.363   .     A
C660   H670    1.080   .     S
Cu661  O680    1.960   .     S
Cu661  Cu662   2.681   .     S
Cu661  O673    1.963   .     S
Cu661  O677    1.957   .     S
Cu661  N671    2.015   .     S
Cu661  O676    1.964   .     S
Cu662  O679    1.960   .     S
Cu662  N672    2.015   .     S
Cu662  O674    1.963   .     S
Cu662  O678    1.957   .     S
Cu662  O675    1.964   .     S
H663   C557    1.087   1_655 S
O681   C682    1.412   .     S
C682   H685    1.109   .     S
C682   H683    1.115   .     S
H684   C1096   1.110   .     S
O686   C687    1.412   .     S
C687   H689    1.115   .     S
C687   H690    1.109   .     S
C687   H1102   1.110   .     S
C691   O719    1.291   .     A
C691   C702    1.449   .     S
C691   O721    1.293   .     A
C692   C701    1.449   .     S
C692   O722    1.293   .     A
C692   O720    1.291   .     A
C693   O725    1.290   .     A
C693   O723    1.286   .     A
C693   C695    1.435   .     S
C694   O726    1.290   .     A
C694   C696    1.435   .     S
C694   O724    1.286   .     A
C695   C788    1.336   1_455 S
C695   H801    1.087   1_455 S
C696   C741    1.336   .     S
C696   H756    1.087   .     S
C697   C702    1.400   .     A
C697   H711    1.083   .     S
C698   H712    1.083   .     S
C698   C701    1.400   .     A
C698   C424    1.384   1_565 S
C699   C701    1.401   .     A
C699   H713    1.083   .     S
C699   C421    1.384   1_565 S
C700   C702    1.401   .     A
C700   H714    1.084   .     S
C703   N718    1.372   .     A
C703   O727    1.389   .     S
C704   N717    1.372   .     A
C704   O732    1.389   .     S
C704   C1120   1.431   .     S
C705   H715    1.080   .     S
C705   N717    1.363   .     A
C705   C1117   1.431   .     S
C706   N718    1.363   .     A
C706   H716    1.080   .     S
Cu707  O726    1.960   .     S
Cu707  Cu708   2.681   .     S
Cu707  O719    1.963   .     S
Cu707  O723    1.957   .     S
Cu707  N717    2.015   .     S
Cu707  O722    1.964   .     S
Cu708  O725    1.960   .     S
Cu708  N718    2.015   .     S
Cu708  O720    1.963   .     S
Cu708  O724    1.957   .     S
Cu708  O721    1.964   .     S
H709   C741    1.087   .     S
H710   C788    1.087   1_455 S
O727   C728    1.412   .     S
C728   H731    1.109   .     S
C728   H729    1.115   .     S
H730   C1142   1.110   .     S
O732   C733    1.412   .     S
C733   H735    1.115   .     S
C733   H736    1.109   .     S
C733   H1148   1.110   .     S
C737   O765    1.291   .     A
C737   C748    1.449   .     S
C737   O767    1.293   .     A
C738   C747    1.449   .     S
C738   O768    1.293   .     A
C738   O766    1.291   .     A
C739   O771    1.290   .     A
C739   O769    1.286   .     A
C739   C741    1.435   .     S
C740   O772    1.290   .     A
C740   C742    1.435   .     S
C740   O770    1.286   .     A
C742   C787    1.336   .     S
C742   H802    1.087   .     S
C743   C748    1.400   .     A
C743   H757    1.083   .     S
C744   H758    1.083   .     S
C744   C747    1.400   .     A
C744   C470    1.384   1_565 S
C745   C747    1.401   .     A
C745   H759    1.083   .     S
C745   C467    1.384   1_565 S
C746   C748    1.401   .     A
C746   H760    1.084   .     S
C749   N764    1.372   .     A
C749   O773    1.389   .     S
C750   N763    1.372   .     A
C750   O778    1.389   .     S
C750   C1166   1.431   .     S
C751   H761    1.080   .     S
C751   N763    1.363   .     A
C751   C1163   1.431   .     S
C752   N764    1.363   .     A
C752   H762    1.080   .     S
Cu753  O772    1.960   .     S
Cu753  Cu754   2.681   .     S
Cu753  O765    1.963   .     S
Cu753  O769    1.957   .     S
Cu753  N763    2.015   .     S
Cu753  O768    1.964   .     S
Cu754  O771    1.960   .     S
Cu754  N764    2.015   .     S
Cu754  O766    1.963   .     S
Cu754  O770    1.957   .     S
Cu754  O767    1.964   .     S
H755   C787    1.087   .     S
O773   C774    1.412   .     S
C774   H777    1.109   .     S
C774   H775    1.115   .     S
H776   C1188   1.110   .     S
O778   C779    1.412   .     S
C779   H781    1.115   .     S
C779   H782    1.109   .     S
C779   H1194   1.110   .     S
C783   O811    1.291   .     A
C783   C794    1.449   .     S
C783   O813    1.293   .     A
C784   C793    1.449   .     S
C784   O814    1.293   .     A
C784   O812    1.291   .     A
C785   O817    1.290   .     A
C785   O815    1.286   .     A
C785   C787    1.435   .     S
C786   O818    1.290   .     A
C786   C788    1.435   .     S
C786   O816    1.286   .     A
C788   C695    1.336   1_655 S
C788   H710    1.087   1_655 S
C789   C794    1.400   .     A
C789   H803    1.083   .     S
C790   H804    1.083   .     S
C790   C793    1.400   .     A
C790   C516    1.384   1_565 S
C791   C793    1.401   .     A
C791   H805    1.083   .     S
C791   C513    1.384   1_565 S
C792   C794    1.401   .     A
C792   H806    1.084   .     S
C795   N810    1.372   .     A
C795   O819    1.389   .     S
C796   N809    1.372   .     A
C796   O824    1.389   .     S
C796   C1212   1.431   .     S
C797   H807    1.080   .     S
C797   N809    1.363   .     A
C797   C1209   1.431   .     S
C798   N810    1.363   .     A
C798   H808    1.080   .     S
Cu799  O818    1.960   .     S
Cu799  Cu800   2.681   .     S
Cu799  O811    1.963   .     S
Cu799  O815    1.957   .     S
Cu799  N809    2.015   .     S
Cu799  O814    1.964   .     S
Cu800  O817    1.960   .     S
Cu800  N810    2.015   .     S
Cu800  O812    1.963   .     S
Cu800  O816    1.957   .     S
Cu800  O813    1.964   .     S
H801   C695    1.087   1_655 S
O819   C820    1.412   .     S
C820   H823    1.109   .     S
C820   H821    1.115   .     S
H822   C1234   1.110   .     S
O824   C825    1.412   .     S
C825   H827    1.115   .     S
C825   H828    1.109   .     S
C825   H1240   1.110   .     S
C829   O857    1.291   .     A
C829   C840    1.449   .     S
C829   O859    1.293   .     A
C830   C839    1.449   .     S
C830   O860    1.293   .     A
C830   O858    1.291   .     A
C831   O863    1.290   .     A
C831   O861    1.286   .     A
C831   C833    1.435   .     S
C832   O864    1.290   .     A
C832   C834    1.435   .     S
C832   O862    1.286   .     A
C833   C926    1.336   1_455 S
C833   H939    1.087   1_455 S
C834   C879    1.336   .     S
C834   H894    1.087   .     S
C835   C840    1.400   .     A
C835   H849    1.083   .     S
C835   C1113   1.384   1_545 S
C836   H850    1.083   .     S
C836   C839    1.400   .     A
C836   C976    1.384   .     S
C837   C839    1.401   .     A
C837   H851    1.083   .     S
C837   C973    1.384   .     S
C838   C840    1.401   .     A
C838   H852    1.084   .     S
C838   C1112   1.384   1_545 S
C841   N856    1.372   .     A
C841   O865    1.389   .     S
C842   N855    1.372   .     A
C842   O870    1.389   .     S
C842   C16     1.431   1_556 S
C843   H853    1.080   .     S
C843   N855    1.363   .     A
C843   C13     1.431   1_556 S
C844   N856    1.363   .     A
C844   H854    1.080   .     S
Cu845  O864    1.960   .     S
Cu845  Cu846   2.681   .     S
Cu845  O857    1.963   .     S
Cu845  O861    1.957   .     S
Cu845  N855    2.015   .     S
Cu845  O860    1.964   .     S
Cu846  O863    1.960   .     S
Cu846  N856    2.015   .     S
Cu846  O858    1.963   .     S
Cu846  O862    1.957   .     S
Cu846  O859    1.964   .     S
H847   C879    1.087   .     S
H848   C926    1.087   1_455 S
O865   C866    1.412   .     S
C866   H869    1.109   .     S
C866   H867    1.115   .     S
H868   C38     1.110   1_556 S
O870   C871    1.412   .     S
C871   H873    1.115   .     S
C871   H874    1.109   .     S
C871   H44     1.110   1_556 S
C875   O903    1.291   .     A
C875   C886    1.449   .     S
C875   O905    1.293   .     A
C876   C885    1.449   .     S
C876   O906    1.293   .     A
C876   O904    1.291   .     A
C877   O909    1.290   .     A
C877   O907    1.286   .     A
C877   C879    1.435   .     S
C878   O910    1.290   .     A
C878   C880    1.435   .     S
C878   O908    1.286   .     A
C880   C925    1.336   .     S
C880   H940    1.087   .     S
C881   C886    1.400   .     A
C881   H895    1.083   .     S
C881   C1159   1.384   1_545 S
C882   H896    1.083   .     S
C882   C885    1.400   .     A
C882   C1022   1.384   .     S
C883   C885    1.401   .     A
C883   H897    1.083   .     S
C883   C1019   1.384   .     S
C884   C886    1.401   .     A
C884   H898    1.084   .     S
C884   C1158   1.384   1_545 S
C887   N902    1.372   .     A
C887   O911    1.389   .     S
C888   N901    1.372   .     A
C888   O916    1.389   .     S
C888   C62     1.431   1_556 S
C889   H899    1.080   .     S
C889   N901    1.363   .     A
C889   C59     1.431   1_556 S
C890   N902    1.363   .     A
C890   H900    1.080   .     S
Cu891  O910    1.960   .     S
Cu891  Cu892   2.681   .     S
Cu891  O903    1.963   .     S
Cu891  O907    1.957   .     S
Cu891  N901    2.015   .     S
Cu891  O906    1.964   .     S
Cu892  O909    1.960   .     S
Cu892  N902    2.015   .     S
Cu892  O904    1.963   .     S
Cu892  O908    1.957   .     S
Cu892  O905    1.964   .     S
H893   C925    1.087   .     S
O911   C912    1.412   .     S
C912   H915    1.109   .     S
C912   H913    1.115   .     S
H914   C84     1.110   1_556 S
O916   C917    1.412   .     S
C917   H919    1.115   .     S
C917   H920    1.109   .     S
C917   H90     1.110   1_556 S
C921   O949    1.291   .     A
C921   C932    1.449   .     S
C921   O951    1.293   .     A
C922   C931    1.449   .     S
C922   O952    1.293   .     A
C922   O950    1.291   .     A
C923   O955    1.290   .     A
C923   O953    1.286   .     A
C923   C925    1.435   .     S
C924   O956    1.290   .     A
C924   C926    1.435   .     S
C924   O954    1.286   .     A
C926   C833    1.336   1_655 S
C926   H848    1.087   1_655 S
C927   C932    1.400   .     A
C927   H941    1.083   .     S
C927   C1205   1.384   1_545 S
C928   H942    1.083   .     S
C928   C931    1.400   .     A
C928   C1068   1.384   .     S
C929   C931    1.401   .     A
C929   H943    1.083   .     S
C929   C1065   1.384   .     S
C930   C932    1.401   .     A
C930   H944    1.084   .     S
C930   C1204   1.384   1_545 S
C933   N948    1.372   .     A
C933   O957    1.389   .     S
C934   N947    1.372   .     A
C934   O962    1.389   .     S
C934   C108    1.431   1_556 S
C935   H945    1.080   .     S
C935   N947    1.363   .     A
C935   C105    1.431   1_556 S
C936   N948    1.363   .     A
C936   H946    1.080   .     S
Cu937  O956    1.960   .     S
Cu937  Cu938   2.681   .     S
Cu937  O949    1.963   .     S
Cu937  O953    1.957   .     S
Cu937  N947    2.015   .     S
Cu937  O952    1.964   .     S
Cu938  O955    1.960   .     S
Cu938  N948    2.015   .     S
Cu938  O950    1.963   .     S
Cu938  O954    1.957   .     S
Cu938  O951    1.964   .     S
H939   C833    1.087   1_655 S
O957   C958    1.412   .     S
C958   H961    1.109   .     S
C958   H959    1.115   .     S
H960   C130    1.110   1_556 S
O962   C963    1.412   .     S
C963   H965    1.115   .     S
C963   H966    1.109   .     S
C963   H136    1.110   1_556 S
C967   O995    1.291   .     A
C967   C978    1.449   .     S
C967   O997    1.293   .     A
C968   C977    1.449   .     S
C968   O998    1.293   .     A
C968   O996    1.291   .     A
C969   O1001   1.290   .     A
C969   O999    1.286   .     A
C969   C971    1.435   .     S
C970   O1002   1.290   .     A
C970   C972    1.435   .     S
C970   O1000   1.286   .     A
C971   C1064   1.336   1_455 S
C971   H1077   1.087   1_455 S
C972   C1017   1.336   .     S
C972   H1032   1.087   .     S
C973   C978    1.400   .     A
C973   H987    1.083   .     S
C974   H988    1.083   .     S
C974   C977    1.400   .     A
C974   C1114   1.384   .     S
C975   C977    1.401   .     A
C975   H989    1.083   .     S
C975   C1111   1.384   .     S
C976   C978    1.401   .     A
C976   H990    1.084   .     S
C979   N994    1.372   .     A
C979   O1003   1.389   .     S
C980   N993    1.372   .     A
C980   O1008   1.389   .     S
C980   C154    1.431   1_556 S
C981   H991    1.080   .     S
C981   N993    1.363   .     A
C981   C151    1.431   1_556 S
C982   N994    1.363   .     A
C982   H992    1.080   .     S
Cu983  O1002   1.960   .     S
Cu983  Cu984   2.681   .     S
Cu983  O995    1.963   .     S
Cu983  O999    1.957   .     S
Cu983  N993    2.015   .     S
Cu983  O998    1.964   .     S
Cu984  O1001   1.960   .     S
Cu984  N994    2.015   .     S
Cu984  O996    1.963   .     S
Cu984  O1000   1.957   .     S
Cu984  O997    1.964   .     S
H985   C1017   1.087   .     S
H986   C1064   1.087   1_455 S
O1003  C1004   1.412   .     S
C1004  H1007   1.109   .     S
C1004  H1005   1.115   .     S
H1006  C176    1.110   1_556 S
O1008  C1009   1.412   .     S
C1009  H1011   1.115   .     S
C1009  H1012   1.109   .     S
C1009  H182    1.110   1_556 S
C1013  O1041   1.291   .     A
C1013  C1024   1.449   .     S
C1013  O1043   1.293   .     A
C1014  C1023   1.449   .     S
C1014  O1044   1.293   .     A
C1014  O1042   1.291   .     A
C1015  O1047   1.290   .     A
C1015  O1045   1.286   .     A
C1015  C1017   1.435   .     S
C1016  O1048   1.290   .     A
C1016  C1018   1.435   .     S
C1016  O1046   1.286   .     A
C1018  C1063   1.336   .     S
C1018  H1078   1.087   .     S
C1019  C1024   1.400   .     A
C1019  H1033   1.083   .     S
C1020  H1034   1.083   .     S
C1020  C1023   1.400   .     A
C1020  C1160   1.384   .     S
C1021  C1023   1.401   .     A
C1021  H1035   1.083   .     S
C1021  C1157   1.384   .     S
C1022  C1024   1.401   .     A
C1022  H1036   1.084   .     S
C1025  N1040   1.372   .     A
C1025  O1049   1.389   .     S
C1026  N1039   1.372   .     A
C1026  O1054   1.389   .     S
C1026  C200    1.431   1_556 S
C1027  H1037   1.080   .     S
C1027  N1039   1.363   .     A
C1027  C197    1.431   1_556 S
C1028  N1040   1.363   .     A
C1028  H1038   1.080   .     S
Cu1029 O1048   1.960   .     S
Cu1029 Cu1030  2.681   .     S
Cu1029 O1041   1.963   .     S
Cu1029 O1045   1.957   .     S
Cu1029 N1039   2.015   .     S
Cu1029 O1044   1.964   .     S
Cu1030 O1047   1.960   .     S
Cu1030 N1040   2.015   .     S
Cu1030 O1042   1.963   .     S
Cu1030 O1046   1.957   .     S
Cu1030 O1043   1.964   .     S
H1031  C1063   1.087   .     S
O1049  C1050   1.412   .     S
C1050  H1053   1.109   .     S
C1050  H1051   1.115   .     S
H1052  C222    1.110   1_556 S
O1054  C1055   1.412   .     S
C1055  H1057   1.115   .     S
C1055  H1058   1.109   .     S
C1055  H228    1.110   1_556 S
C1059  O1087   1.291   .     A
C1059  C1070   1.449   .     S
C1059  O1089   1.293   .     A
C1060  C1069   1.449   .     S
C1060  O1090   1.293   .     A
C1060  O1088   1.291   .     A
C1061  O1093   1.290   .     A
C1061  O1091   1.286   .     A
C1061  C1063   1.435   .     S
C1062  O1094   1.290   .     A
C1062  C1064   1.435   .     S
C1062  O1092   1.286   .     A
C1064  C971    1.336   1_655 S
C1064  H986    1.087   1_655 S
C1065  C1070   1.400   .     A
C1065  H1079   1.083   .     S
C1066  H1080   1.083   .     S
C1066  C1069   1.400   .     A
C1066  C1206   1.384   .     S
C1067  C1069   1.401   .     A
C1067  H1081   1.083   .     S
C1067  C1203   1.384   .     S
C1068  C1070   1.401   .     A
C1068  H1082   1.084   .     S
C1071  N1086   1.372   .     A
C1071  O1095   1.389   .     S
C1072  N1085   1.372   .     A
C1072  O1100   1.389   .     S
C1072  C246    1.431   1_556 S
C1073  H1083   1.080   .     S
C1073  N1085   1.363   .     A
C1073  C243    1.431   1_556 S
C1074  N1086   1.363   .     A
C1074  H1084   1.080   .     S
Cu1075 O1094   1.960   .     S
Cu1075 Cu1076  2.681   .     S
Cu1075 O1087   1.963   .     S
Cu1075 O1091   1.957   .     S
Cu1075 N1085   2.015   .     S
Cu1075 O1090   1.964   .     S
Cu1076 O1093   1.960   .     S
Cu1076 N1086   2.015   .     S
Cu1076 O1088   1.963   .     S
Cu1076 O1092   1.957   .     S
Cu1076 O1089   1.964   .     S
H1077  C971    1.087   1_655 S
O1095  C1096   1.412   .     S
C1096  H1099   1.109   .     S
C1096  H1097   1.115   .     S
H1098  C268    1.110   1_556 S
O1100  C1101   1.412   .     S
C1101  H1103   1.115   .     S
C1101  H1104   1.109   .     S
C1101  H274    1.110   1_556 S
C1105  O1133   1.291   .     A
C1105  C1116   1.449   .     S
C1105  O1135   1.293   .     A
C1106  C1115   1.449   .     S
C1106  O1136   1.293   .     A
C1106  O1134   1.291   .     A
C1107  O1139   1.290   .     A
C1107  O1137   1.286   .     A
C1107  C1109   1.435   .     S
C1108  O1140   1.290   .     A
C1108  C1110   1.435   .     S
C1108  O1138   1.286   .     A
C1109  C1202   1.336   1_455 S
C1109  H1215   1.087   1_455 S
C1110  C1155   1.336   .     S
C1110  H1170   1.087   .     S
C1111  C1116   1.400   .     A
C1111  H1125   1.083   .     S
C1112  H1126   1.083   .     S
C1112  C1115   1.400   .     A
C1112  C838    1.384   1_565 S
C1113  C1115   1.401   .     A
C1113  H1127   1.083   .     S
C1113  C835    1.384   1_565 S
C1114  C1116   1.401   .     A
C1114  H1128   1.084   .     S
C1117  N1132   1.372   .     A
C1117  O1141   1.389   .     S
C1118  N1131   1.372   .     A
C1118  O1146   1.389   .     S
C1118  C292    1.431   1_556 S
C1119  H1129   1.080   .     S
C1119  N1131   1.363   .     A
C1119  C289    1.431   1_556 S
C1120  N1132   1.363   .     A
C1120  H1130   1.080   .     S
Cu1121 O1140   1.960   .     S
Cu1121 Cu1122  2.681   .     S
Cu1121 O1133   1.963   .     S
Cu1121 O1137   1.957   .     S
Cu1121 N1131   2.015   .     S
Cu1121 O1136   1.964   .     S
Cu1122 O1139   1.960   .     S
Cu1122 N1132   2.015   .     S
Cu1122 O1134   1.963   .     S
Cu1122 O1138   1.957   .     S
Cu1122 O1135   1.964   .     S
H1123  C1155   1.087   .     S
H1124  C1202   1.087   1_455 S
O1141  C1142   1.412   .     S
C1142  H1145   1.109   .     S
C1142  H1143   1.115   .     S
H1144  C314    1.110   1_556 S
O1146  C1147   1.412   .     S
C1147  H1149   1.115   .     S
C1147  H1150   1.109   .     S
C1147  H320    1.110   1_556 S
C1151  O1179   1.291   .     A
C1151  C1162   1.449   .     S
C1151  O1181   1.293   .     A
C1152  C1161   1.449   .     S
C1152  O1182   1.293   .     A
C1152  O1180   1.291   .     A
C1153  O1185   1.290   .     A
C1153  O1183   1.286   .     A
C1153  C1155   1.435   .     S
C1154  O1186   1.290   .     A
C1154  C1156   1.435   .     S
C1154  O1184   1.286   .     A
C1156  C1201   1.336   .     S
C1156  H1216   1.087   .     S
C1157  C1162   1.400   .     A
C1157  H1171   1.083   .     S
C1158  H1172   1.083   .     S
C1158  C1161   1.400   .     A
C1158  C884    1.384   1_565 S
C1159  C1161   1.401   .     A
C1159  H1173   1.083   .     S
C1159  C881    1.384   1_565 S
C1160  C1162   1.401   .     A
C1160  H1174   1.084   .     S
C1163  N1178   1.372   .     A
C1163  O1187   1.389   .     S
C1164  N1177   1.372   .     A
C1164  O1192   1.389   .     S
C1164  C338    1.431   1_556 S
C1165  H1175   1.080   .     S
C1165  N1177   1.363   .     A
C1165  C335    1.431   1_556 S
C1166  N1178   1.363   .     A
C1166  H1176   1.080   .     S
Cu1167 O1186   1.960   .     S
Cu1167 Cu1168  2.681   .     S
Cu1167 O1179   1.963   .     S
Cu1167 O1183   1.957   .     S
Cu1167 N1177   2.015   .     S
Cu1167 O1182   1.964   .     S
Cu1168 O1185   1.960   .     S
Cu1168 N1178   2.015   .     S
Cu1168 O1180   1.963   .     S
Cu1168 O1184   1.957   .     S
Cu1168 O1181   1.964   .     S
H1169  C1201   1.087   .     S
O1187  C1188   1.412   .     S
C1188  H1191   1.109   .     S
C1188  H1189   1.115   .     S
H1190  C360    1.110   1_556 S
O1192  C1193   1.412   .     S
C1193  H1195   1.115   .     S
C1193  H1196   1.109   .     S
C1193  H366    1.110   1_556 S
C1197  O1225   1.291   .     A
C1197  C1208   1.449   .     S
C1197  O1227   1.293   .     A
C1198  C1207   1.449   .     S
C1198  O1228   1.293   .     A
C1198  O1226   1.291   .     A
C1199  O1231   1.290   .     A
C1199  O1229   1.286   .     A
C1199  C1201   1.435   .     S
C1200  O1232   1.290   .     A
C1200  C1202   1.435   .     S
C1200  O1230   1.286   .     A
C1202  C1109   1.336   1_655 S
C1202  H1124   1.087   1_655 S
C1203  C1208   1.400   .     A
C1203  H1217   1.083   .     S
C1204  H1218   1.083   .     S
C1204  C1207   1.400   .     A
C1204  C930    1.384   1_565 S
C1205  C1207   1.401   .     A
C1205  H1219   1.083   .     S
C1205  C927    1.384   1_565 S
C1206  C1208   1.401   .     A
C1206  H1220   1.084   .     S
C1209  N1224   1.372   .     A
C1209  O1233   1.389   .     S
C1210  N1223   1.372   .     A
C1210  O1238   1.389   .     S
C1210  C384    1.431   1_556 S
C1211  H1221   1.080   .     S
C1211  N1223   1.363   .     A
C1211  C381    1.431   1_556 S
C1212  N1224   1.363   .     A
C1212  H1222   1.080   .     S
Cu1213 O1232   1.960   .     S
Cu1213 Cu1214  2.681   .     S
Cu1213 O1225   1.963   .     S
Cu1213 O1229   1.957   .     S
Cu1213 N1223   2.015   .     S
Cu1213 O1228   1.964   .     S
Cu1214 O1231   1.960   .     S
Cu1214 N1224   2.015   .     S
Cu1214 O1226   1.963   .     S
Cu1214 O1230   1.957   .     S
Cu1214 O1227   1.964   .     S
H1215  C1109   1.087   1_655 S
O1233  C1234   1.412   .     S
C1234  H1237   1.109   .     S
C1234  H1235   1.115   .     S
H1236  C406    1.110   1_556 S
O1238  C1239   1.412   .     S
C1239  H1241   1.115   .     S
C1239  H1242   1.109   .     S
C1239  H412    1.110   1_556 S
