data_str_m3_o2_o5_pcu_sym.46
_audit_creation_date              2020-01-03
_audit_creation_method            'Materials Studio'
_symmetry_space_group_name_H-M    'P1'
_symmetry_Int_Tables_number       1
_symmetry_cell_setting            triclinic
loop_
_symmetry_equiv_pos_as_xyz
  x,y,z
_cell_length_a                    30.0162
_cell_length_b                    28.7942
_cell_length_c                    26.8881
_cell_angle_alpha                 90.0007
_cell_angle_beta                  95.8037
_cell_angle_gamma                 90.0004
loop_
_atom_site_label
_atom_site_type_symbol
_atom_site_fract_x
_atom_site_fract_y
_atom_site_fract_z
_atom_site_U_iso_or_equiv
_atom_site_adp_type
_atom_site_occupancy
C1     C     0.16410   0.25009   0.16761   0.00000  Uiso   1.00
C2     C     0.22701   0.44810   0.12826   0.00000  Uiso   1.00
C3     C     0.24995   0.25000   0.07297   0.00000  Uiso   1.00
C4     C     0.25004   0.25000   0.26036   0.00000  Uiso   1.00
C5     C     0.25001   0.02632   0.16666   0.00000  Uiso   1.00
C6     C     0.25001   0.47360   0.16666   0.00000  Uiso   1.00
C7     C     0.24999   0.25000   0.02178   0.00000  Uiso   1.00
C8     C     0.25001   0.25000   0.31155   0.00000  Uiso   1.00
C9     C     0.04549   0.28885   0.14954   0.00000  Uiso   1.00
C10    C     0.45138   0.21230   0.14562   0.00000  Uiso   1.00
C11    C     0.45450   0.28888   0.18393   0.00000  Uiso   1.00
C12    C     0.33590   0.25009   0.16573   0.00000  Uiso   1.00
C13    C     0.04869   0.21237   0.18810   0.00000  Uiso   1.00
C14    C     0.09150   0.28929   0.15093   0.00000  Uiso   1.00
C15    C     0.40517   0.21278   0.14418   0.00000  Uiso   1.00
C16    C     0.40849   0.28933   0.18243   0.00000  Uiso   1.00
C17    C     0.09489   0.21284   0.18942   0.00000  Uiso   1.00
C18    C     0.11623   0.25064   0.16931   0.00000  Uiso   1.00
C19    C     0.38379   0.25064   0.16411   0.00000  Uiso   1.00
C20    C     0.02408   0.25020   0.16759   0.00000  Uiso   1.00
C21    C     0.47596   0.25019   0.16606   0.00000  Uiso   1.00
C22    C     0.21560   0.10086   0.14036   0.00000  Uiso   1.00
C23    C     0.27425   0.39903   0.20451   0.00000  Uiso   1.00
C24    C     0.28439   0.10086   0.19298   0.00000  Uiso   1.00
C25    C     0.22575   0.39903   0.12882   0.00000  Uiso   1.00
C26    C     0.21490   0.05182   0.14240   0.00000  Uiso   1.00
C27    C     0.27300   0.44811   0.20506   0.00000  Uiso   1.00
C28    C     0.28511   0.05182   0.19093   0.00000  Uiso   1.00
H29    H     0.14423   0.18539   0.06311   0.00000  Uiso   1.00
H30    H     0.38619   0.18399   0.12704   0.00000  Uiso   1.00
H31    H     0.39258   0.31976   0.19607   0.00000  Uiso   1.00
H32    H     0.11391   0.18409   0.20660   0.00000  Uiso   1.00
H33    H     0.18606   0.03335   0.12502   0.00000  Uiso   1.00
H34    H     0.28933   0.46663   0.23677   0.00000  Uiso   1.00
H35    H     0.31395   0.03336   0.20831   0.00000  Uiso   1.00
H36    H     0.21068   0.46663   0.09655   0.00000  Uiso   1.00
H37    H     0.34254   0.31464   0.28462   0.00000  Uiso   1.00
H38    H     0.35584   0.18568   0.26969   0.00000  Uiso   1.00
H39    H     0.15748   0.31463   0.04871   0.00000  Uiso   1.00
H40    H     0.02657   0.31841   0.13398   0.00000  Uiso   1.00
H41    H     0.46790   0.18286   0.13036   0.00000  Uiso   1.00
H42    H     0.47339   0.31850   0.19942   0.00000  Uiso   1.00
H43    H     0.03220   0.18298   0.20348   0.00000  Uiso   1.00
H44    H     0.10737   0.31967   0.13715   0.00000  Uiso   1.00
N45    N     0.25000   0.12624   0.16667   0.00000  Uiso   1.00
N46    N     0.25000   0.37377   0.16667   0.00000  Uiso   1.00
O47    O     0.18453   0.28974   0.16667   0.00000  Uiso   1.00
O48    O     0.13123   0.12944   0.13864   0.00000  Uiso   1.00
O49    O     0.17474   0.17523   0.07610   0.00000  Uiso   1.00
O50    O     0.33661   0.40943   0.28288   0.00000  Uiso   1.00
O51    O     0.26992   0.36465   0.29449   0.00000  Uiso   1.00
O52    O     0.33236   0.32585   0.25052   0.00000  Uiso   1.00
O53    O     0.34816   0.09039   0.26920   0.00000  Uiso   1.00
O54    O     0.36882   0.12928   0.19484   0.00000  Uiso   1.00
O55    O     0.32528   0.17529   0.25718   0.00000  Uiso   1.00
O56    O     0.16338   0.40942   0.05046   0.00000  Uiso   1.00
O57    O     0.23008   0.36466   0.03883   0.00000  Uiso   1.00
O58    O     0.31547   0.21026   0.16666   0.00000  Uiso   1.00
O59    O     0.16765   0.32583   0.08281   0.00000  Uiso   1.00
O60    O     0.31547   0.28974   0.16666   0.00000  Uiso   1.00
O61    O     0.18453   0.21026   0.16667   0.00000  Uiso   1.00
O62    O     0.25000   0.28973   0.09511   0.00000  Uiso   1.00
O63    O     0.25000   0.21027   0.23822   0.00000  Uiso   1.00
O64    O     0.25000   0.28973   0.23822   0.00000  Uiso   1.00
O65    O     0.25000   0.21027   0.09511   0.00000  Uiso   1.00
O66    O     0.15169   0.09035   0.06430   0.00000  Uiso   1.00
S67    S     0.16757   0.12448   0.10459   0.00000  Uiso   1.00
S68    S     0.30382   0.37458   0.25892   0.00000  Uiso   1.00
S69    S     0.33240   0.12447   0.22881   0.00000  Uiso   1.00
S70    S     0.19618   0.37457   0.07441   0.00000  Uiso   1.00
Zn71   Zn    0.25000   0.30307   0.16667   0.00000  Uiso   1.00
Zn72   Zn    0.25000   0.19693   0.16667   0.00000  Uiso   1.00
C73    C     0.66410   0.25009   0.16761   0.00000  Uiso   1.00
C74    C     0.72701   0.44810   0.12826   0.00000  Uiso   1.00
C75    C     0.74995   0.25000   0.07297   0.00000  Uiso   1.00
C76    C     0.75004   0.25000   0.26036   0.00000  Uiso   1.00
C77    C     0.75001   0.02632   0.16666   0.00000  Uiso   1.00
C78    C     0.75001   0.47360   0.16666   0.00000  Uiso   1.00
C79    C     0.74999   0.25000   0.02178   0.00000  Uiso   1.00
C80    C     0.75001   0.25000   0.31155   0.00000  Uiso   1.00
C81    C     0.54549   0.28885   0.14954   0.00000  Uiso   1.00
C82    C     0.95138   0.21230   0.14562   0.00000  Uiso   1.00
C83    C     0.95450   0.28888   0.18393   0.00000  Uiso   1.00
C84    C     0.83590   0.25009   0.16573   0.00000  Uiso   1.00
C85    C     0.54869   0.21237   0.18810   0.00000  Uiso   1.00
C86    C     0.59150   0.28929   0.15093   0.00000  Uiso   1.00
C87    C     0.90517   0.21278   0.14418   0.00000  Uiso   1.00
C88    C     0.90849   0.28933   0.18243   0.00000  Uiso   1.00
C89    C     0.59489   0.21284   0.18942   0.00000  Uiso   1.00
C90    C     0.61623   0.25064   0.16931   0.00000  Uiso   1.00
C91    C     0.88379   0.25064   0.16411   0.00000  Uiso   1.00
C92    C     0.52408   0.25020   0.16759   0.00000  Uiso   1.00
C93    C     0.97596   0.25019   0.16606   0.00000  Uiso   1.00
C94    C     0.71560   0.10086   0.14036   0.00000  Uiso   1.00
C95    C     0.77425   0.39903   0.20451   0.00000  Uiso   1.00
C96    C     0.78439   0.10086   0.19298   0.00000  Uiso   1.00
C97    C     0.72575   0.39903   0.12882   0.00000  Uiso   1.00
C98    C     0.71490   0.05182   0.14240   0.00000  Uiso   1.00
C99    C     0.77300   0.44811   0.20506   0.00000  Uiso   1.00
C100   C     0.78511   0.05182   0.19093   0.00000  Uiso   1.00
H101   H     0.64423   0.18539   0.06311   0.00000  Uiso   1.00
H102   H     0.88619   0.18399   0.12704   0.00000  Uiso   1.00
H103   H     0.89258   0.31976   0.19607   0.00000  Uiso   1.00
H104   H     0.61391   0.18409   0.20660   0.00000  Uiso   1.00
H105   H     0.68606   0.03335   0.12502   0.00000  Uiso   1.00
H106   H     0.78933   0.46663   0.23677   0.00000  Uiso   1.00
H107   H     0.81395   0.03336   0.20831   0.00000  Uiso   1.00
H108   H     0.71068   0.46663   0.09655   0.00000  Uiso   1.00
H109   H     0.84254   0.31464   0.28462   0.00000  Uiso   1.00
H110   H     0.85584   0.18568   0.26969   0.00000  Uiso   1.00
H111   H     0.65748   0.31463   0.04871   0.00000  Uiso   1.00
H112   H     0.52657   0.31841   0.13398   0.00000  Uiso   1.00
H113   H     0.96790   0.18286   0.13036   0.00000  Uiso   1.00
H114   H     0.97339   0.31850   0.19942   0.00000  Uiso   1.00
H115   H     0.53220   0.18298   0.20348   0.00000  Uiso   1.00
H116   H     0.60737   0.31967   0.13715   0.00000  Uiso   1.00
N117   N     0.75000   0.12624   0.16667   0.00000  Uiso   1.00
N118   N     0.75000   0.37377   0.16667   0.00000  Uiso   1.00
O119   O     0.68453   0.28974   0.16667   0.00000  Uiso   1.00
O120   O     0.63123   0.12944   0.13864   0.00000  Uiso   1.00
O121   O     0.67474   0.17523   0.07610   0.00000  Uiso   1.00
O122   O     0.83661   0.40943   0.28288   0.00000  Uiso   1.00
O123   O     0.76992   0.36465   0.29449   0.00000  Uiso   1.00
O124   O     0.83236   0.32585   0.25052   0.00000  Uiso   1.00
O125   O     0.84816   0.09039   0.26920   0.00000  Uiso   1.00
O126   O     0.86882   0.12928   0.19484   0.00000  Uiso   1.00
O127   O     0.82528   0.17529   0.25718   0.00000  Uiso   1.00
O128   O     0.66338   0.40942   0.05046   0.00000  Uiso   1.00
O129   O     0.73008   0.36466   0.03883   0.00000  Uiso   1.00
O130   O     0.81547   0.21026   0.16666   0.00000  Uiso   1.00
O131   O     0.66765   0.32583   0.08281   0.00000  Uiso   1.00
O132   O     0.81547   0.28974   0.16666   0.00000  Uiso   1.00
O133   O     0.68453   0.21026   0.16667   0.00000  Uiso   1.00
O134   O     0.75000   0.28973   0.09511   0.00000  Uiso   1.00
O135   O     0.75000   0.21027   0.23822   0.00000  Uiso   1.00
O136   O     0.75000   0.28973   0.23822   0.00000  Uiso   1.00
O137   O     0.75000   0.21027   0.09511   0.00000  Uiso   1.00
O138   O     0.65169   0.09035   0.06430   0.00000  Uiso   1.00
S139   S     0.66757   0.12448   0.10459   0.00000  Uiso   1.00
S140   S     0.80382   0.37458   0.25892   0.00000  Uiso   1.00
S141   S     0.83240   0.12447   0.22881   0.00000  Uiso   1.00
S142   S     0.69618   0.37457   0.07441   0.00000  Uiso   1.00
Zn143  Zn    0.75000   0.30307   0.16667   0.00000  Uiso   1.00
Zn144  Zn    0.75000   0.19693   0.16667   0.00000  Uiso   1.00
C145   C     0.16410   0.75009   0.16761   0.00000  Uiso   1.00
C146   C     0.22701   0.94810   0.12826   0.00000  Uiso   1.00
C147   C     0.24995   0.75000   0.07297   0.00000  Uiso   1.00
C148   C     0.25004   0.75000   0.26036   0.00000  Uiso   1.00
C149   C     0.25001   0.52632   0.16666   0.00000  Uiso   1.00
C150   C     0.25001   0.97360   0.16666   0.00000  Uiso   1.00
C151   C     0.24999   0.75000   0.02178   0.00000  Uiso   1.00
C152   C     0.25001   0.75000   0.31155   0.00000  Uiso   1.00
C153   C     0.04549   0.78885   0.14954   0.00000  Uiso   1.00
C154   C     0.45138   0.71230   0.14562   0.00000  Uiso   1.00
C155   C     0.45450   0.78888   0.18393   0.00000  Uiso   1.00
C156   C     0.33590   0.75009   0.16573   0.00000  Uiso   1.00
C157   C     0.04869   0.71237   0.18810   0.00000  Uiso   1.00
C158   C     0.09150   0.78929   0.15093   0.00000  Uiso   1.00
C159   C     0.40517   0.71278   0.14418   0.00000  Uiso   1.00
C160   C     0.40849   0.78933   0.18243   0.00000  Uiso   1.00
C161   C     0.09489   0.71284   0.18942   0.00000  Uiso   1.00
C162   C     0.11623   0.75064   0.16931   0.00000  Uiso   1.00
C163   C     0.38379   0.75064   0.16411   0.00000  Uiso   1.00
C164   C     0.02408   0.75020   0.16759   0.00000  Uiso   1.00
C165   C     0.47596   0.75019   0.16606   0.00000  Uiso   1.00
C166   C     0.21560   0.60086   0.14036   0.00000  Uiso   1.00
C167   C     0.27425   0.89903   0.20451   0.00000  Uiso   1.00
C168   C     0.28439   0.60086   0.19298   0.00000  Uiso   1.00
C169   C     0.22575   0.89903   0.12882   0.00000  Uiso   1.00
C170   C     0.21490   0.55182   0.14240   0.00000  Uiso   1.00
C171   C     0.27300   0.94811   0.20506   0.00000  Uiso   1.00
C172   C     0.28511   0.55182   0.19093   0.00000  Uiso   1.00
H173   H     0.14423   0.68539   0.06311   0.00000  Uiso   1.00
H174   H     0.38619   0.68399   0.12704   0.00000  Uiso   1.00
H175   H     0.39258   0.81976   0.19607   0.00000  Uiso   1.00
H176   H     0.11391   0.68409   0.20660   0.00000  Uiso   1.00
H177   H     0.18606   0.53335   0.12502   0.00000  Uiso   1.00
H178   H     0.28933   0.96663   0.23677   0.00000  Uiso   1.00
H179   H     0.31395   0.53336   0.20831   0.00000  Uiso   1.00
H180   H     0.21068   0.96663   0.09655   0.00000  Uiso   1.00
H181   H     0.34254   0.81464   0.28462   0.00000  Uiso   1.00
H182   H     0.35584   0.68568   0.26969   0.00000  Uiso   1.00
H183   H     0.15748   0.81463   0.04871   0.00000  Uiso   1.00
H184   H     0.02657   0.81841   0.13398   0.00000  Uiso   1.00
H185   H     0.46790   0.68286   0.13036   0.00000  Uiso   1.00
H186   H     0.47339   0.81850   0.19942   0.00000  Uiso   1.00
H187   H     0.03220   0.68298   0.20348   0.00000  Uiso   1.00
H188   H     0.10737   0.81967   0.13715   0.00000  Uiso   1.00
N189   N     0.25000   0.62624   0.16667   0.00000  Uiso   1.00
N190   N     0.25000   0.87377   0.16667   0.00000  Uiso   1.00
O191   O     0.18453   0.78974   0.16667   0.00000  Uiso   1.00
O192   O     0.13123   0.62944   0.13864   0.00000  Uiso   1.00
O193   O     0.17474   0.67523   0.07610   0.00000  Uiso   1.00
O194   O     0.33661   0.90943   0.28288   0.00000  Uiso   1.00
O195   O     0.26992   0.86465   0.29449   0.00000  Uiso   1.00
O196   O     0.33236   0.82585   0.25052   0.00000  Uiso   1.00
O197   O     0.34816   0.59039   0.26920   0.00000  Uiso   1.00
O198   O     0.36882   0.62928   0.19484   0.00000  Uiso   1.00
O199   O     0.32528   0.67529   0.25718   0.00000  Uiso   1.00
O200   O     0.16338   0.90942   0.05046   0.00000  Uiso   1.00
O201   O     0.23008   0.86466   0.03883   0.00000  Uiso   1.00
O202   O     0.31547   0.71026   0.16666   0.00000  Uiso   1.00
O203   O     0.16765   0.82583   0.08281   0.00000  Uiso   1.00
O204   O     0.31547   0.78974   0.16666   0.00000  Uiso   1.00
O205   O     0.18453   0.71026   0.16667   0.00000  Uiso   1.00
O206   O     0.25000   0.78973   0.09511   0.00000  Uiso   1.00
O207   O     0.25000   0.71027   0.23822   0.00000  Uiso   1.00
O208   O     0.25000   0.78973   0.23822   0.00000  Uiso   1.00
O209   O     0.25000   0.71027   0.09511   0.00000  Uiso   1.00
O210   O     0.15169   0.59035   0.06430   0.00000  Uiso   1.00
S211   S     0.16757   0.62448   0.10459   0.00000  Uiso   1.00
S212   S     0.30382   0.87458   0.25892   0.00000  Uiso   1.00
S213   S     0.33240   0.62447   0.22881   0.00000  Uiso   1.00
S214   S     0.19618   0.87457   0.07441   0.00000  Uiso   1.00
Zn215  Zn    0.25000   0.80307   0.16667   0.00000  Uiso   1.00
Zn216  Zn    0.25000   0.69693   0.16667   0.00000  Uiso   1.00
C217   C     0.66410   0.75009   0.16761   0.00000  Uiso   1.00
C218   C     0.72701   0.94810   0.12826   0.00000  Uiso   1.00
C219   C     0.74995   0.75000   0.07297   0.00000  Uiso   1.00
C220   C     0.75004   0.75000   0.26036   0.00000  Uiso   1.00
C221   C     0.75001   0.52632   0.16666   0.00000  Uiso   1.00
C222   C     0.75001   0.97360   0.16666   0.00000  Uiso   1.00
C223   C     0.74999   0.75000   0.02178   0.00000  Uiso   1.00
C224   C     0.75001   0.75000   0.31155   0.00000  Uiso   1.00
C225   C     0.54549   0.78885   0.14954   0.00000  Uiso   1.00
C226   C     0.95138   0.71230   0.14562   0.00000  Uiso   1.00
C227   C     0.95450   0.78888   0.18393   0.00000  Uiso   1.00
C228   C     0.83590   0.75009   0.16573   0.00000  Uiso   1.00
C229   C     0.54869   0.71237   0.18810   0.00000  Uiso   1.00
C230   C     0.59150   0.78929   0.15093   0.00000  Uiso   1.00
C231   C     0.90517   0.71278   0.14418   0.00000  Uiso   1.00
C232   C     0.90849   0.78933   0.18243   0.00000  Uiso   1.00
C233   C     0.59489   0.71284   0.18942   0.00000  Uiso   1.00
C234   C     0.61623   0.75064   0.16931   0.00000  Uiso   1.00
C235   C     0.88379   0.75064   0.16411   0.00000  Uiso   1.00
C236   C     0.52408   0.75020   0.16759   0.00000  Uiso   1.00
C237   C     0.97596   0.75019   0.16606   0.00000  Uiso   1.00
C238   C     0.71560   0.60086   0.14036   0.00000  Uiso   1.00
C239   C     0.77425   0.89903   0.20451   0.00000  Uiso   1.00
C240   C     0.78439   0.60086   0.19298   0.00000  Uiso   1.00
C241   C     0.72575   0.89903   0.12882   0.00000  Uiso   1.00
C242   C     0.71490   0.55182   0.14240   0.00000  Uiso   1.00
C243   C     0.77300   0.94811   0.20506   0.00000  Uiso   1.00
C244   C     0.78511   0.55182   0.19093   0.00000  Uiso   1.00
H245   H     0.64423   0.68539   0.06311   0.00000  Uiso   1.00
H246   H     0.88619   0.68399   0.12704   0.00000  Uiso   1.00
H247   H     0.89258   0.81976   0.19607   0.00000  Uiso   1.00
H248   H     0.61391   0.68409   0.20660   0.00000  Uiso   1.00
H249   H     0.68606   0.53335   0.12502   0.00000  Uiso   1.00
H250   H     0.78933   0.96663   0.23677   0.00000  Uiso   1.00
H251   H     0.81395   0.53336   0.20831   0.00000  Uiso   1.00
H252   H     0.71068   0.96663   0.09655   0.00000  Uiso   1.00
H253   H     0.84254   0.81464   0.28462   0.00000  Uiso   1.00
H254   H     0.85584   0.68568   0.26969   0.00000  Uiso   1.00
H255   H     0.65748   0.81463   0.04871   0.00000  Uiso   1.00
H256   H     0.52657   0.81841   0.13398   0.00000  Uiso   1.00
H257   H     0.96790   0.68286   0.13036   0.00000  Uiso   1.00
H258   H     0.97339   0.81850   0.19942   0.00000  Uiso   1.00
H259   H     0.53220   0.68298   0.20348   0.00000  Uiso   1.00
H260   H     0.60737   0.81967   0.13715   0.00000  Uiso   1.00
N261   N     0.75000   0.62624   0.16667   0.00000  Uiso   1.00
N262   N     0.75000   0.87377   0.16667   0.00000  Uiso   1.00
O263   O     0.68453   0.78974   0.16667   0.00000  Uiso   1.00
O264   O     0.63123   0.62944   0.13864   0.00000  Uiso   1.00
O265   O     0.67474   0.67523   0.07610   0.00000  Uiso   1.00
O266   O     0.83661   0.90943   0.28288   0.00000  Uiso   1.00
O267   O     0.76992   0.86465   0.29449   0.00000  Uiso   1.00
O268   O     0.83236   0.82585   0.25052   0.00000  Uiso   1.00
O269   O     0.84816   0.59039   0.26920   0.00000  Uiso   1.00
O270   O     0.86882   0.62928   0.19484   0.00000  Uiso   1.00
O271   O     0.82528   0.67529   0.25718   0.00000  Uiso   1.00
O272   O     0.66338   0.90942   0.05046   0.00000  Uiso   1.00
O273   O     0.73008   0.86466   0.03883   0.00000  Uiso   1.00
O274   O     0.81547   0.71026   0.16666   0.00000  Uiso   1.00
O275   O     0.66765   0.82583   0.08281   0.00000  Uiso   1.00
O276   O     0.81547   0.78974   0.16666   0.00000  Uiso   1.00
O277   O     0.68453   0.71026   0.16667   0.00000  Uiso   1.00
O278   O     0.75000   0.78973   0.09511   0.00000  Uiso   1.00
O279   O     0.75000   0.71027   0.23822   0.00000  Uiso   1.00
O280   O     0.75000   0.78973   0.23822   0.00000  Uiso   1.00
O281   O     0.75000   0.71027   0.09511   0.00000  Uiso   1.00
O282   O     0.65169   0.59035   0.06430   0.00000  Uiso   1.00
S283   S     0.66757   0.62448   0.10459   0.00000  Uiso   1.00
S284   S     0.80382   0.87458   0.25892   0.00000  Uiso   1.00
S285   S     0.83240   0.62447   0.22881   0.00000  Uiso   1.00
S286   S     0.69618   0.87457   0.07441   0.00000  Uiso   1.00
Zn287  Zn    0.75000   0.80307   0.16667   0.00000  Uiso   1.00
Zn288  Zn    0.75000   0.69693   0.16667   0.00000  Uiso   1.00
C289   C     0.16410   0.25009   0.50095   0.00000  Uiso   1.00
C290   C     0.22701   0.44810   0.46159   0.00000  Uiso   1.00
C291   C     0.24995   0.25000   0.40631   0.00000  Uiso   1.00
C292   C     0.25004   0.25000   0.59369   0.00000  Uiso   1.00
C293   C     0.25001   0.02632   0.49999   0.00000  Uiso   1.00
C294   C     0.25001   0.47360   0.49999   0.00000  Uiso   1.00
C295   C     0.24999   0.25000   0.35511   0.00000  Uiso   1.00
C296   C     0.25001   0.25000   0.64488   0.00000  Uiso   1.00
C297   C     0.04549   0.28885   0.48287   0.00000  Uiso   1.00
C298   C     0.45138   0.21230   0.47895   0.00000  Uiso   1.00
C299   C     0.45450   0.28888   0.51726   0.00000  Uiso   1.00
C300   C     0.33590   0.25009   0.49906   0.00000  Uiso   1.00
C301   C     0.04869   0.21237   0.52143   0.00000  Uiso   1.00
C302   C     0.09150   0.28929   0.48426   0.00000  Uiso   1.00
C303   C     0.40517   0.21278   0.47751   0.00000  Uiso   1.00
C304   C     0.40849   0.28933   0.51577   0.00000  Uiso   1.00
C305   C     0.09489   0.21284   0.52276   0.00000  Uiso   1.00
C306   C     0.11623   0.25064   0.50265   0.00000  Uiso   1.00
C307   C     0.38379   0.25064   0.49745   0.00000  Uiso   1.00
C308   C     0.02408   0.25020   0.50092   0.00000  Uiso   1.00
C309   C     0.47596   0.25019   0.49939   0.00000  Uiso   1.00
C310   C     0.21560   0.10086   0.47369   0.00000  Uiso   1.00
C311   C     0.27425   0.39903   0.53784   0.00000  Uiso   1.00
C312   C     0.28439   0.10086   0.52631   0.00000  Uiso   1.00
C313   C     0.22575   0.39903   0.46215   0.00000  Uiso   1.00
C314   C     0.21490   0.05182   0.47573   0.00000  Uiso   1.00
C315   C     0.27300   0.44811   0.53840   0.00000  Uiso   1.00
C316   C     0.28511   0.05182   0.52426   0.00000  Uiso   1.00
H317   H     0.14423   0.18539   0.39645   0.00000  Uiso   1.00
H318   H     0.38619   0.18399   0.46038   0.00000  Uiso   1.00
H319   H     0.39258   0.31976   0.52940   0.00000  Uiso   1.00
H320   H     0.11391   0.18409   0.53993   0.00000  Uiso   1.00
H321   H     0.18606   0.03335   0.45836   0.00000  Uiso   1.00
H322   H     0.28933   0.46663   0.57010   0.00000  Uiso   1.00
H323   H     0.31395   0.03336   0.54164   0.00000  Uiso   1.00
H324   H     0.21068   0.46663   0.42989   0.00000  Uiso   1.00
H325   H     0.34254   0.31464   0.61795   0.00000  Uiso   1.00
H326   H     0.35584   0.18568   0.60302   0.00000  Uiso   1.00
H327   H     0.15748   0.31463   0.38204   0.00000  Uiso   1.00
H328   H     0.02657   0.31841   0.46731   0.00000  Uiso   1.00
H329   H     0.46790   0.18286   0.46369   0.00000  Uiso   1.00
H330   H     0.47339   0.31850   0.53275   0.00000  Uiso   1.00
H331   H     0.03220   0.18298   0.53682   0.00000  Uiso   1.00
H332   H     0.10737   0.31967   0.47048   0.00000  Uiso   1.00
N333   N     0.25000   0.12624   0.50000   0.00000  Uiso   1.00
N334   N     0.25000   0.37377   0.50000   0.00000  Uiso   1.00
O335   O     0.18453   0.28974   0.50000   0.00000  Uiso   1.00
O336   O     0.13123   0.12944   0.47198   0.00000  Uiso   1.00
O337   O     0.17474   0.17523   0.40943   0.00000  Uiso   1.00
O338   O     0.33661   0.40943   0.61621   0.00000  Uiso   1.00
O339   O     0.26992   0.36465   0.62782   0.00000  Uiso   1.00
O340   O     0.33236   0.32585   0.58385   0.00000  Uiso   1.00
O341   O     0.34816   0.09039   0.60254   0.00000  Uiso   1.00
O342   O     0.36882   0.12928   0.52817   0.00000  Uiso   1.00
O343   O     0.32528   0.17529   0.59052   0.00000  Uiso   1.00
O344   O     0.16338   0.40942   0.38380   0.00000  Uiso   1.00
O345   O     0.23008   0.36466   0.37217   0.00000  Uiso   1.00
O346   O     0.31547   0.21026   0.50000   0.00000  Uiso   1.00
O347   O     0.16765   0.32583   0.41614   0.00000  Uiso   1.00
O348   O     0.31547   0.28974   0.50000   0.00000  Uiso   1.00
O349   O     0.18453   0.21026   0.50000   0.00000  Uiso   1.00
O350   O     0.25000   0.28973   0.42845   0.00000  Uiso   1.00
O351   O     0.25000   0.21027   0.57155   0.00000  Uiso   1.00
O352   O     0.25000   0.28973   0.57155   0.00000  Uiso   1.00
O353   O     0.25000   0.21027   0.42845   0.00000  Uiso   1.00
O354   O     0.15169   0.09035   0.39763   0.00000  Uiso   1.00
S355   S     0.16757   0.12448   0.43793   0.00000  Uiso   1.00
S356   S     0.30382   0.37458   0.59225   0.00000  Uiso   1.00
S357   S     0.33240   0.12447   0.56214   0.00000  Uiso   1.00
S358   S     0.19618   0.37457   0.40774   0.00000  Uiso   1.00
Zn359  Zn    0.25000   0.30307   0.50000   0.00000  Uiso   1.00
Zn360  Zn    0.25000   0.19693   0.50000   0.00000  Uiso   1.00
C361   C     0.66410   0.25009   0.50095   0.00000  Uiso   1.00
C362   C     0.72701   0.44810   0.46159   0.00000  Uiso   1.00
C363   C     0.74995   0.25000   0.40631   0.00000  Uiso   1.00
C364   C     0.75004   0.25000   0.59369   0.00000  Uiso   1.00
C365   C     0.75001   0.02632   0.49999   0.00000  Uiso   1.00
C366   C     0.75001   0.47360   0.49999   0.00000  Uiso   1.00
C367   C     0.74999   0.25000   0.35511   0.00000  Uiso   1.00
C368   C     0.75001   0.25000   0.64488   0.00000  Uiso   1.00
C369   C     0.54549   0.28885   0.48287   0.00000  Uiso   1.00
C370   C     0.95138   0.21230   0.47895   0.00000  Uiso   1.00
C371   C     0.95450   0.28888   0.51726   0.00000  Uiso   1.00
C372   C     0.83590   0.25009   0.49906   0.00000  Uiso   1.00
C373   C     0.54869   0.21237   0.52143   0.00000  Uiso   1.00
C374   C     0.59150   0.28929   0.48426   0.00000  Uiso   1.00
C375   C     0.90517   0.21278   0.47751   0.00000  Uiso   1.00
C376   C     0.90849   0.28933   0.51577   0.00000  Uiso   1.00
C377   C     0.59489   0.21284   0.52276   0.00000  Uiso   1.00
C378   C     0.61623   0.25064   0.50265   0.00000  Uiso   1.00
C379   C     0.88379   0.25064   0.49745   0.00000  Uiso   1.00
C380   C     0.52408   0.25020   0.50092   0.00000  Uiso   1.00
C381   C     0.97596   0.25019   0.49939   0.00000  Uiso   1.00
C382   C     0.71560   0.10086   0.47369   0.00000  Uiso   1.00
C383   C     0.77425   0.39903   0.53784   0.00000  Uiso   1.00
C384   C     0.78439   0.10086   0.52631   0.00000  Uiso   1.00
C385   C     0.72575   0.39903   0.46215   0.00000  Uiso   1.00
C386   C     0.71490   0.05182   0.47573   0.00000  Uiso   1.00
C387   C     0.77300   0.44811   0.53840   0.00000  Uiso   1.00
C388   C     0.78511   0.05182   0.52426   0.00000  Uiso   1.00
H389   H     0.64423   0.18539   0.39645   0.00000  Uiso   1.00
H390   H     0.88619   0.18399   0.46038   0.00000  Uiso   1.00
H391   H     0.89258   0.31976   0.52940   0.00000  Uiso   1.00
H392   H     0.61391   0.18409   0.53993   0.00000  Uiso   1.00
H393   H     0.68606   0.03335   0.45836   0.00000  Uiso   1.00
H394   H     0.78933   0.46663   0.57010   0.00000  Uiso   1.00
H395   H     0.81395   0.03336   0.54164   0.00000  Uiso   1.00
H396   H     0.71068   0.46663   0.42989   0.00000  Uiso   1.00
H397   H     0.84254   0.31464   0.61795   0.00000  Uiso   1.00
H398   H     0.85584   0.18568   0.60302   0.00000  Uiso   1.00
H399   H     0.65748   0.31463   0.38204   0.00000  Uiso   1.00
H400   H     0.52657   0.31841   0.46731   0.00000  Uiso   1.00
H401   H     0.96790   0.18286   0.46369   0.00000  Uiso   1.00
H402   H     0.97339   0.31850   0.53275   0.00000  Uiso   1.00
H403   H     0.53220   0.18298   0.53682   0.00000  Uiso   1.00
H404   H     0.60737   0.31967   0.47048   0.00000  Uiso   1.00
N405   N     0.75000   0.12624   0.50000   0.00000  Uiso   1.00
N406   N     0.75000   0.37377   0.50000   0.00000  Uiso   1.00
O407   O     0.68453   0.28974   0.50000   0.00000  Uiso   1.00
O408   O     0.63123   0.12944   0.47198   0.00000  Uiso   1.00
O409   O     0.67474   0.17523   0.40943   0.00000  Uiso   1.00
O410   O     0.83661   0.40943   0.61621   0.00000  Uiso   1.00
O411   O     0.76992   0.36465   0.62782   0.00000  Uiso   1.00
O412   O     0.83236   0.32585   0.58385   0.00000  Uiso   1.00
O413   O     0.84816   0.09039   0.60254   0.00000  Uiso   1.00
O414   O     0.86882   0.12928   0.52817   0.00000  Uiso   1.00
O415   O     0.82528   0.17529   0.59052   0.00000  Uiso   1.00
O416   O     0.66338   0.40942   0.38380   0.00000  Uiso   1.00
O417   O     0.73008   0.36466   0.37217   0.00000  Uiso   1.00
O418   O     0.81547   0.21026   0.50000   0.00000  Uiso   1.00
O419   O     0.66765   0.32583   0.41614   0.00000  Uiso   1.00
O420   O     0.81547   0.28974   0.50000   0.00000  Uiso   1.00
O421   O     0.68453   0.21026   0.50000   0.00000  Uiso   1.00
O422   O     0.75000   0.28973   0.42845   0.00000  Uiso   1.00
O423   O     0.75000   0.21027   0.57155   0.00000  Uiso   1.00
O424   O     0.75000   0.28973   0.57155   0.00000  Uiso   1.00
O425   O     0.75000   0.21027   0.42845   0.00000  Uiso   1.00
O426   O     0.65169   0.09035   0.39763   0.00000  Uiso   1.00
S427   S     0.66757   0.12448   0.43793   0.00000  Uiso   1.00
S428   S     0.80382   0.37458   0.59225   0.00000  Uiso   1.00
S429   S     0.83240   0.12447   0.56214   0.00000  Uiso   1.00
S430   S     0.69618   0.37457   0.40774   0.00000  Uiso   1.00
Zn431  Zn    0.75000   0.30307   0.50000   0.00000  Uiso   1.00
Zn432  Zn    0.75000   0.19693   0.50000   0.00000  Uiso   1.00
C433   C     0.16410   0.75009   0.50095   0.00000  Uiso   1.00
C434   C     0.22701   0.94810   0.46159   0.00000  Uiso   1.00
C435   C     0.24995   0.75000   0.40631   0.00000  Uiso   1.00
C436   C     0.25004   0.75000   0.59369   0.00000  Uiso   1.00
C437   C     0.25001   0.52632   0.49999   0.00000  Uiso   1.00
C438   C     0.25001   0.97360   0.49999   0.00000  Uiso   1.00
C439   C     0.24999   0.75000   0.35511   0.00000  Uiso   1.00
C440   C     0.25001   0.75000   0.64488   0.00000  Uiso   1.00
C441   C     0.04549   0.78885   0.48287   0.00000  Uiso   1.00
C442   C     0.45138   0.71230   0.47895   0.00000  Uiso   1.00
C443   C     0.45450   0.78888   0.51726   0.00000  Uiso   1.00
C444   C     0.33590   0.75009   0.49906   0.00000  Uiso   1.00
C445   C     0.04869   0.71237   0.52143   0.00000  Uiso   1.00
C446   C     0.09150   0.78929   0.48426   0.00000  Uiso   1.00
C447   C     0.40517   0.71278   0.47751   0.00000  Uiso   1.00
C448   C     0.40849   0.78933   0.51577   0.00000  Uiso   1.00
C449   C     0.09489   0.71284   0.52276   0.00000  Uiso   1.00
C450   C     0.11623   0.75064   0.50265   0.00000  Uiso   1.00
C451   C     0.38379   0.75064   0.49745   0.00000  Uiso   1.00
C452   C     0.02408   0.75020   0.50092   0.00000  Uiso   1.00
C453   C     0.47596   0.75019   0.49939   0.00000  Uiso   1.00
C454   C     0.21560   0.60086   0.47369   0.00000  Uiso   1.00
C455   C     0.27425   0.89903   0.53784   0.00000  Uiso   1.00
C456   C     0.28439   0.60086   0.52631   0.00000  Uiso   1.00
C457   C     0.22575   0.89903   0.46215   0.00000  Uiso   1.00
C458   C     0.21490   0.55182   0.47573   0.00000  Uiso   1.00
C459   C     0.27300   0.94811   0.53840   0.00000  Uiso   1.00
C460   C     0.28511   0.55182   0.52426   0.00000  Uiso   1.00
H461   H     0.14423   0.68539   0.39645   0.00000  Uiso   1.00
H462   H     0.38619   0.68399   0.46038   0.00000  Uiso   1.00
H463   H     0.39258   0.81976   0.52940   0.00000  Uiso   1.00
H464   H     0.11391   0.68409   0.53993   0.00000  Uiso   1.00
H465   H     0.18606   0.53335   0.45836   0.00000  Uiso   1.00
H466   H     0.28933   0.96663   0.57010   0.00000  Uiso   1.00
H467   H     0.31395   0.53336   0.54164   0.00000  Uiso   1.00
H468   H     0.21068   0.96663   0.42989   0.00000  Uiso   1.00
H469   H     0.34254   0.81464   0.61795   0.00000  Uiso   1.00
H470   H     0.35584   0.68568   0.60302   0.00000  Uiso   1.00
H471   H     0.15748   0.81463   0.38204   0.00000  Uiso   1.00
H472   H     0.02657   0.81841   0.46731   0.00000  Uiso   1.00
H473   H     0.46790   0.68286   0.46369   0.00000  Uiso   1.00
H474   H     0.47339   0.81850   0.53275   0.00000  Uiso   1.00
H475   H     0.03220   0.68298   0.53682   0.00000  Uiso   1.00
H476   H     0.10737   0.81967   0.47048   0.00000  Uiso   1.00
N477   N     0.25000   0.62624   0.50000   0.00000  Uiso   1.00
N478   N     0.25000   0.87377   0.50000   0.00000  Uiso   1.00
O479   O     0.18453   0.78974   0.50000   0.00000  Uiso   1.00
O480   O     0.13123   0.62944   0.47198   0.00000  Uiso   1.00
O481   O     0.17474   0.67523   0.40943   0.00000  Uiso   1.00
O482   O     0.33661   0.90943   0.61621   0.00000  Uiso   1.00
O483   O     0.26992   0.86465   0.62782   0.00000  Uiso   1.00
O484   O     0.33236   0.82585   0.58385   0.00000  Uiso   1.00
O485   O     0.34816   0.59039   0.60254   0.00000  Uiso   1.00
O486   O     0.36882   0.62928   0.52817   0.00000  Uiso   1.00
O487   O     0.32528   0.67529   0.59052   0.00000  Uiso   1.00
O488   O     0.16338   0.90942   0.38380   0.00000  Uiso   1.00
O489   O     0.23008   0.86466   0.37217   0.00000  Uiso   1.00
O490   O     0.31547   0.71026   0.50000   0.00000  Uiso   1.00
O491   O     0.16765   0.82583   0.41614   0.00000  Uiso   1.00
O492   O     0.31547   0.78974   0.50000   0.00000  Uiso   1.00
O493   O     0.18453   0.71026   0.50000   0.00000  Uiso   1.00
O494   O     0.25000   0.78973   0.42845   0.00000  Uiso   1.00
O495   O     0.25000   0.71027   0.57155   0.00000  Uiso   1.00
O496   O     0.25000   0.78973   0.57155   0.00000  Uiso   1.00
O497   O     0.25000   0.71027   0.42845   0.00000  Uiso   1.00
O498   O     0.15169   0.59035   0.39763   0.00000  Uiso   1.00
S499   S     0.16757   0.62448   0.43793   0.00000  Uiso   1.00
S500   S     0.30382   0.87458   0.59225   0.00000  Uiso   1.00
S501   S     0.33240   0.62447   0.56214   0.00000  Uiso   1.00
S502   S     0.19618   0.87457   0.40774   0.00000  Uiso   1.00
Zn503  Zn    0.25000   0.80307   0.50000   0.00000  Uiso   1.00
Zn504  Zn    0.25000   0.69693   0.50000   0.00000  Uiso   1.00
C505   C     0.66410   0.75009   0.50095   0.00000  Uiso   1.00
C506   C     0.72701   0.94810   0.46159   0.00000  Uiso   1.00
C507   C     0.74995   0.75000   0.40631   0.00000  Uiso   1.00
C508   C     0.75004   0.75000   0.59369   0.00000  Uiso   1.00
C509   C     0.75001   0.52632   0.49999   0.00000  Uiso   1.00
C510   C     0.75001   0.97360   0.49999   0.00000  Uiso   1.00
C511   C     0.74999   0.75000   0.35511   0.00000  Uiso   1.00
C512   C     0.75001   0.75000   0.64488   0.00000  Uiso   1.00
C513   C     0.54549   0.78885   0.48287   0.00000  Uiso   1.00
C514   C     0.95138   0.71230   0.47895   0.00000  Uiso   1.00
C515   C     0.95450   0.78888   0.51726   0.00000  Uiso   1.00
C516   C     0.83590   0.75009   0.49906   0.00000  Uiso   1.00
C517   C     0.54869   0.71237   0.52143   0.00000  Uiso   1.00
C518   C     0.59150   0.78929   0.48426   0.00000  Uiso   1.00
C519   C     0.90517   0.71278   0.47751   0.00000  Uiso   1.00
C520   C     0.90849   0.78933   0.51577   0.00000  Uiso   1.00
C521   C     0.59489   0.71284   0.52276   0.00000  Uiso   1.00
C522   C     0.61623   0.75064   0.50265   0.00000  Uiso   1.00
C523   C     0.88379   0.75064   0.49745   0.00000  Uiso   1.00
C524   C     0.52408   0.75020   0.50092   0.00000  Uiso   1.00
C525   C     0.97596   0.75019   0.49939   0.00000  Uiso   1.00
C526   C     0.71560   0.60086   0.47369   0.00000  Uiso   1.00
C527   C     0.77425   0.89903   0.53784   0.00000  Uiso   1.00
C528   C     0.78439   0.60086   0.52631   0.00000  Uiso   1.00
C529   C     0.72575   0.89903   0.46215   0.00000  Uiso   1.00
C530   C     0.71490   0.55182   0.47573   0.00000  Uiso   1.00
C531   C     0.77300   0.94811   0.53840   0.00000  Uiso   1.00
C532   C     0.78511   0.55182   0.52426   0.00000  Uiso   1.00
H533   H     0.64423   0.68539   0.39645   0.00000  Uiso   1.00
H534   H     0.88619   0.68399   0.46038   0.00000  Uiso   1.00
H535   H     0.89258   0.81976   0.52940   0.00000  Uiso   1.00
H536   H     0.61391   0.68409   0.53993   0.00000  Uiso   1.00
H537   H     0.68606   0.53335   0.45836   0.00000  Uiso   1.00
H538   H     0.78933   0.96663   0.57010   0.00000  Uiso   1.00
H539   H     0.81395   0.53336   0.54164   0.00000  Uiso   1.00
H540   H     0.71068   0.96663   0.42989   0.00000  Uiso   1.00
H541   H     0.84254   0.81464   0.61795   0.00000  Uiso   1.00
H542   H     0.85584   0.68568   0.60302   0.00000  Uiso   1.00
H543   H     0.65748   0.81463   0.38204   0.00000  Uiso   1.00
H544   H     0.52657   0.81841   0.46731   0.00000  Uiso   1.00
H545   H     0.96790   0.68286   0.46369   0.00000  Uiso   1.00
H546   H     0.97339   0.81850   0.53275   0.00000  Uiso   1.00
H547   H     0.53220   0.68298   0.53682   0.00000  Uiso   1.00
H548   H     0.60737   0.81967   0.47048   0.00000  Uiso   1.00
N549   N     0.75000   0.62624   0.50000   0.00000  Uiso   1.00
N550   N     0.75000   0.87377   0.50000   0.00000  Uiso   1.00
O551   O     0.68453   0.78974   0.50000   0.00000  Uiso   1.00
O552   O     0.63123   0.62944   0.47198   0.00000  Uiso   1.00
O553   O     0.67474   0.67523   0.40943   0.00000  Uiso   1.00
O554   O     0.83661   0.90943   0.61621   0.00000  Uiso   1.00
O555   O     0.76992   0.86465   0.62782   0.00000  Uiso   1.00
O556   O     0.83236   0.82585   0.58385   0.00000  Uiso   1.00
O557   O     0.84816   0.59039   0.60254   0.00000  Uiso   1.00
O558   O     0.86882   0.62928   0.52817   0.00000  Uiso   1.00
O559   O     0.82528   0.67529   0.59052   0.00000  Uiso   1.00
O560   O     0.66338   0.90942   0.38380   0.00000  Uiso   1.00
O561   O     0.73008   0.86466   0.37217   0.00000  Uiso   1.00
O562   O     0.81547   0.71026   0.50000   0.00000  Uiso   1.00
O563   O     0.66765   0.82583   0.41614   0.00000  Uiso   1.00
O564   O     0.81547   0.78974   0.50000   0.00000  Uiso   1.00
O565   O     0.68453   0.71026   0.50000   0.00000  Uiso   1.00
O566   O     0.75000   0.78973   0.42845   0.00000  Uiso   1.00
O567   O     0.75000   0.71027   0.57155   0.00000  Uiso   1.00
O568   O     0.75000   0.78973   0.57155   0.00000  Uiso   1.00
O569   O     0.75000   0.71027   0.42845   0.00000  Uiso   1.00
O570   O     0.65169   0.59035   0.39763   0.00000  Uiso   1.00
S571   S     0.66757   0.62448   0.43793   0.00000  Uiso   1.00
S572   S     0.80382   0.87458   0.59225   0.00000  Uiso   1.00
S573   S     0.83240   0.62447   0.56214   0.00000  Uiso   1.00
S574   S     0.69618   0.87457   0.40774   0.00000  Uiso   1.00
Zn575  Zn    0.75000   0.80307   0.50000   0.00000  Uiso   1.00
Zn576  Zn    0.75000   0.69693   0.50000   0.00000  Uiso   1.00
C577   C     0.16410   0.25009   0.83428   0.00000  Uiso   1.00
C578   C     0.22701   0.44810   0.79493   0.00000  Uiso   1.00
C579   C     0.24995   0.25000   0.73964   0.00000  Uiso   1.00
C580   C     0.25004   0.25000   0.92703   0.00000  Uiso   1.00
C581   C     0.25001   0.02632   0.83332   0.00000  Uiso   1.00
C582   C     0.25001   0.47360   0.83333   0.00000  Uiso   1.00
C583   C     0.24999   0.25000   0.68845   0.00000  Uiso   1.00
C584   C     0.25001   0.25000   0.97822   0.00000  Uiso   1.00
C585   C     0.04549   0.28885   0.81621   0.00000  Uiso   1.00
C586   C     0.45138   0.21230   0.81229   0.00000  Uiso   1.00
C587   C     0.45450   0.28888   0.85060   0.00000  Uiso   1.00
C588   C     0.33590   0.25009   0.83240   0.00000  Uiso   1.00
C589   C     0.04869   0.21237   0.85476   0.00000  Uiso   1.00
C590   C     0.09150   0.28929   0.81759   0.00000  Uiso   1.00
C591   C     0.40517   0.21278   0.81085   0.00000  Uiso   1.00
C592   C     0.40849   0.28933   0.84910   0.00000  Uiso   1.00
C593   C     0.09489   0.21284   0.85609   0.00000  Uiso   1.00
C594   C     0.11623   0.25064   0.83598   0.00000  Uiso   1.00
C595   C     0.38379   0.25064   0.83078   0.00000  Uiso   1.00
C596   C     0.02408   0.25020   0.83425   0.00000  Uiso   1.00
C597   C     0.47596   0.25019   0.83272   0.00000  Uiso   1.00
C598   C     0.21560   0.10086   0.80703   0.00000  Uiso   1.00
C599   C     0.27425   0.39903   0.87118   0.00000  Uiso   1.00
C600   C     0.28439   0.10086   0.85965   0.00000  Uiso   1.00
C601   C     0.22575   0.39903   0.79549   0.00000  Uiso   1.00
C602   C     0.21490   0.05182   0.80906   0.00000  Uiso   1.00
C603   C     0.27300   0.44811   0.87173   0.00000  Uiso   1.00
C604   C     0.28511   0.05182   0.85759   0.00000  Uiso   1.00
H605   H     0.14423   0.18539   0.72978   0.00000  Uiso   1.00
H606   H     0.38619   0.18399   0.79371   0.00000  Uiso   1.00
H607   H     0.39258   0.31976   0.86273   0.00000  Uiso   1.00
H608   H     0.11391   0.18409   0.87327   0.00000  Uiso   1.00
H609   H     0.18606   0.03335   0.79169   0.00000  Uiso   1.00
H610   H     0.28933   0.46663   0.90343   0.00000  Uiso   1.00
H611   H     0.31395   0.03336   0.87497   0.00000  Uiso   1.00
H612   H     0.21068   0.46663   0.76322   0.00000  Uiso   1.00
H613   H     0.34254   0.31464   0.95129   0.00000  Uiso   1.00
H614   H     0.35584   0.18568   0.93635   0.00000  Uiso   1.00
H615   H     0.15748   0.31463   0.71537   0.00000  Uiso   1.00
H616   H     0.02657   0.31841   0.80064   0.00000  Uiso   1.00
H617   H     0.46790   0.18286   0.79703   0.00000  Uiso   1.00
H618   H     0.47339   0.31850   0.86609   0.00000  Uiso   1.00
H619   H     0.03220   0.18298   0.87015   0.00000  Uiso   1.00
H620   H     0.10737   0.31967   0.80381   0.00000  Uiso   1.00
N621   N     0.25000   0.12624   0.83333   0.00000  Uiso   1.00
N622   N     0.25000   0.37377   0.83333   0.00000  Uiso   1.00
O623   O     0.18453   0.28974   0.83334   0.00000  Uiso   1.00
O624   O     0.13123   0.12944   0.80531   0.00000  Uiso   1.00
O625   O     0.17474   0.17523   0.74277   0.00000  Uiso   1.00
O626   O     0.33661   0.40943   0.94955   0.00000  Uiso   1.00
O627   O     0.26992   0.36465   0.96116   0.00000  Uiso   1.00
O628   O     0.33236   0.32585   0.91719   0.00000  Uiso   1.00
O629   O     0.34816   0.09039   0.93587   0.00000  Uiso   1.00
O630   O     0.36882   0.12928   0.86150   0.00000  Uiso   1.00
O631   O     0.32528   0.17529   0.92385   0.00000  Uiso   1.00
O632   O     0.16338   0.40942   0.71713   0.00000  Uiso   1.00
O633   O     0.23008   0.36466   0.70550   0.00000  Uiso   1.00
O634   O     0.31547   0.21026   0.83333   0.00000  Uiso   1.00
O635   O     0.16765   0.32583   0.74948   0.00000  Uiso   1.00
O636   O     0.31547   0.28974   0.83333   0.00000  Uiso   1.00
O637   O     0.18453   0.21026   0.83334   0.00000  Uiso   1.00
O638   O     0.25000   0.28973   0.76178   0.00000  Uiso   1.00
O639   O     0.25000   0.21027   0.90489   0.00000  Uiso   1.00
O640   O     0.25000   0.28973   0.90489   0.00000  Uiso   1.00
O641   O     0.25000   0.21027   0.76178   0.00000  Uiso   1.00
O642   O     0.15169   0.09035   0.73096   0.00000  Uiso   1.00
S643   S     0.16757   0.12448   0.77126   0.00000  Uiso   1.00
S644   S     0.30382   0.37458   0.92559   0.00000  Uiso   1.00
S645   S     0.33240   0.12447   0.89548   0.00000  Uiso   1.00
S646   S     0.19618   0.37457   0.74108   0.00000  Uiso   1.00
Zn647  Zn    0.25000   0.30307   0.83333   0.00000  Uiso   1.00
Zn648  Zn    0.25000   0.19693   0.83333   0.00000  Uiso   1.00
C649   C     0.66410   0.25009   0.83428   0.00000  Uiso   1.00
C650   C     0.72701   0.44810   0.79493   0.00000  Uiso   1.00
C651   C     0.74995   0.25000   0.73964   0.00000  Uiso   1.00
C652   C     0.75004   0.25000   0.92703   0.00000  Uiso   1.00
C653   C     0.75001   0.02632   0.83332   0.00000  Uiso   1.00
C654   C     0.75001   0.47360   0.83333   0.00000  Uiso   1.00
C655   C     0.74999   0.25000   0.68845   0.00000  Uiso   1.00
C656   C     0.75001   0.25000   0.97822   0.00000  Uiso   1.00
C657   C     0.54549   0.28885   0.81621   0.00000  Uiso   1.00
C658   C     0.95138   0.21230   0.81229   0.00000  Uiso   1.00
C659   C     0.95450   0.28888   0.85060   0.00000  Uiso   1.00
C660   C     0.83590   0.25009   0.83240   0.00000  Uiso   1.00
C661   C     0.54869   0.21237   0.85476   0.00000  Uiso   1.00
C662   C     0.59150   0.28929   0.81759   0.00000  Uiso   1.00
C663   C     0.90517   0.21278   0.81085   0.00000  Uiso   1.00
C664   C     0.90849   0.28933   0.84910   0.00000  Uiso   1.00
C665   C     0.59489   0.21284   0.85609   0.00000  Uiso   1.00
C666   C     0.61623   0.25064   0.83598   0.00000  Uiso   1.00
C667   C     0.88379   0.25064   0.83078   0.00000  Uiso   1.00
C668   C     0.52408   0.25020   0.83425   0.00000  Uiso   1.00
C669   C     0.97596   0.25019   0.83272   0.00000  Uiso   1.00
C670   C     0.71560   0.10086   0.80703   0.00000  Uiso   1.00
C671   C     0.77425   0.39903   0.87118   0.00000  Uiso   1.00
C672   C     0.78439   0.10086   0.85965   0.00000  Uiso   1.00
C673   C     0.72575   0.39903   0.79549   0.00000  Uiso   1.00
C674   C     0.71490   0.05182   0.80906   0.00000  Uiso   1.00
C675   C     0.77300   0.44811   0.87173   0.00000  Uiso   1.00
C676   C     0.78511   0.05182   0.85759   0.00000  Uiso   1.00
H677   H     0.64423   0.18539   0.72978   0.00000  Uiso   1.00
H678   H     0.88619   0.18399   0.79371   0.00000  Uiso   1.00
H679   H     0.89258   0.31976   0.86273   0.00000  Uiso   1.00
H680   H     0.61391   0.18409   0.87327   0.00000  Uiso   1.00
H681   H     0.68606   0.03335   0.79169   0.00000  Uiso   1.00
H682   H     0.78933   0.46663   0.90343   0.00000  Uiso   1.00
H683   H     0.81395   0.03336   0.87497   0.00000  Uiso   1.00
H684   H     0.71068   0.46663   0.76322   0.00000  Uiso   1.00
H685   H     0.84254   0.31464   0.95129   0.00000  Uiso   1.00
H686   H     0.85584   0.18568   0.93635   0.00000  Uiso   1.00
H687   H     0.65748   0.31463   0.71537   0.00000  Uiso   1.00
H688   H     0.52657   0.31841   0.80064   0.00000  Uiso   1.00
H689   H     0.96790   0.18286   0.79703   0.00000  Uiso   1.00
H690   H     0.97339   0.31850   0.86609   0.00000  Uiso   1.00
H691   H     0.53220   0.18298   0.87015   0.00000  Uiso   1.00
H692   H     0.60737   0.31967   0.80381   0.00000  Uiso   1.00
N693   N     0.75000   0.12624   0.83333   0.00000  Uiso   1.00
N694   N     0.75000   0.37377   0.83333   0.00000  Uiso   1.00
O695   O     0.68453   0.28974   0.83334   0.00000  Uiso   1.00
O696   O     0.63123   0.12944   0.80531   0.00000  Uiso   1.00
O697   O     0.67474   0.17523   0.74277   0.00000  Uiso   1.00
O698   O     0.83661   0.40943   0.94955   0.00000  Uiso   1.00
O699   O     0.76992   0.36465   0.96116   0.00000  Uiso   1.00
O700   O     0.83236   0.32585   0.91719   0.00000  Uiso   1.00
O701   O     0.84816   0.09039   0.93587   0.00000  Uiso   1.00
O702   O     0.86882   0.12928   0.86150   0.00000  Uiso   1.00
O703   O     0.82528   0.17529   0.92385   0.00000  Uiso   1.00
O704   O     0.66338   0.40942   0.71713   0.00000  Uiso   1.00
O705   O     0.73008   0.36466   0.70550   0.00000  Uiso   1.00
O706   O     0.81547   0.21026   0.83333   0.00000  Uiso   1.00
O707   O     0.66765   0.32583   0.74948   0.00000  Uiso   1.00
O708   O     0.81547   0.28974   0.83333   0.00000  Uiso   1.00
O709   O     0.68453   0.21026   0.83334   0.00000  Uiso   1.00
O710   O     0.75000   0.28973   0.76178   0.00000  Uiso   1.00
O711   O     0.75000   0.21027   0.90489   0.00000  Uiso   1.00
O712   O     0.75000   0.28973   0.90489   0.00000  Uiso   1.00
O713   O     0.75000   0.21027   0.76178   0.00000  Uiso   1.00
O714   O     0.65169   0.09035   0.73096   0.00000  Uiso   1.00
S715   S     0.66757   0.12448   0.77126   0.00000  Uiso   1.00
S716   S     0.80382   0.37458   0.92559   0.00000  Uiso   1.00
S717   S     0.83240   0.12447   0.89548   0.00000  Uiso   1.00
S718   S     0.69618   0.37457   0.74108   0.00000  Uiso   1.00
Zn719  Zn    0.75000   0.30307   0.83333   0.00000  Uiso   1.00
Zn720  Zn    0.75000   0.19693   0.83333   0.00000  Uiso   1.00
C721   C     0.16410   0.75009   0.83428   0.00000  Uiso   1.00
C722   C     0.22701   0.94810   0.79493   0.00000  Uiso   1.00
C723   C     0.24995   0.75000   0.73964   0.00000  Uiso   1.00
C724   C     0.25004   0.75000   0.92703   0.00000  Uiso   1.00
C725   C     0.25001   0.52632   0.83332   0.00000  Uiso   1.00
C726   C     0.25001   0.97360   0.83333   0.00000  Uiso   1.00
C727   C     0.24999   0.75000   0.68845   0.00000  Uiso   1.00
C728   C     0.25001   0.75000   0.97822   0.00000  Uiso   1.00
C729   C     0.04549   0.78885   0.81621   0.00000  Uiso   1.00
C730   C     0.45138   0.71230   0.81229   0.00000  Uiso   1.00
C731   C     0.45450   0.78888   0.85060   0.00000  Uiso   1.00
C732   C     0.33590   0.75009   0.83240   0.00000  Uiso   1.00
C733   C     0.04869   0.71237   0.85476   0.00000  Uiso   1.00
C734   C     0.09150   0.78929   0.81759   0.00000  Uiso   1.00
C735   C     0.40517   0.71278   0.81085   0.00000  Uiso   1.00
C736   C     0.40849   0.78933   0.84910   0.00000  Uiso   1.00
C737   C     0.09489   0.71284   0.85609   0.00000  Uiso   1.00
C738   C     0.11623   0.75064   0.83598   0.00000  Uiso   1.00
C739   C     0.38379   0.75064   0.83078   0.00000  Uiso   1.00
C740   C     0.02408   0.75020   0.83425   0.00000  Uiso   1.00
C741   C     0.47596   0.75019   0.83272   0.00000  Uiso   1.00
C742   C     0.21560   0.60086   0.80703   0.00000  Uiso   1.00
C743   C     0.27425   0.89903   0.87118   0.00000  Uiso   1.00
C744   C     0.28439   0.60086   0.85965   0.00000  Uiso   1.00
C745   C     0.22575   0.89903   0.79549   0.00000  Uiso   1.00
C746   C     0.21490   0.55182   0.80906   0.00000  Uiso   1.00
C747   C     0.27300   0.94811   0.87173   0.00000  Uiso   1.00
C748   C     0.28511   0.55182   0.85759   0.00000  Uiso   1.00
H749   H     0.14423   0.68539   0.72978   0.00000  Uiso   1.00
H750   H     0.38619   0.68399   0.79371   0.00000  Uiso   1.00
H751   H     0.39258   0.81976   0.86273   0.00000  Uiso   1.00
H752   H     0.11391   0.68409   0.87327   0.00000  Uiso   1.00
H753   H     0.18606   0.53335   0.79169   0.00000  Uiso   1.00
H754   H     0.28933   0.96663   0.90343   0.00000  Uiso   1.00
H755   H     0.31395   0.53336   0.87497   0.00000  Uiso   1.00
H756   H     0.21068   0.96663   0.76322   0.00000  Uiso   1.00
H757   H     0.34254   0.81464   0.95129   0.00000  Uiso   1.00
H758   H     0.35584   0.68568   0.93635   0.00000  Uiso   1.00
H759   H     0.15748   0.81463   0.71537   0.00000  Uiso   1.00
H760   H     0.02657   0.81841   0.80064   0.00000  Uiso   1.00
H761   H     0.46790   0.68286   0.79703   0.00000  Uiso   1.00
H762   H     0.47339   0.81850   0.86609   0.00000  Uiso   1.00
H763   H     0.03220   0.68298   0.87015   0.00000  Uiso   1.00
H764   H     0.10737   0.81967   0.80381   0.00000  Uiso   1.00
N765   N     0.25000   0.62624   0.83333   0.00000  Uiso   1.00
N766   N     0.25000   0.87377   0.83333   0.00000  Uiso   1.00
O767   O     0.18453   0.78974   0.83334   0.00000  Uiso   1.00
O768   O     0.13123   0.62944   0.80531   0.00000  Uiso   1.00
O769   O     0.17474   0.67523   0.74277   0.00000  Uiso   1.00
O770   O     0.33661   0.90943   0.94955   0.00000  Uiso   1.00
O771   O     0.26992   0.86465   0.96116   0.00000  Uiso   1.00
O772   O     0.33236   0.82585   0.91719   0.00000  Uiso   1.00
O773   O     0.34816   0.59039   0.93587   0.00000  Uiso   1.00
O774   O     0.36882   0.62928   0.86150   0.00000  Uiso   1.00
O775   O     0.32528   0.67529   0.92385   0.00000  Uiso   1.00
O776   O     0.16338   0.90942   0.71713   0.00000  Uiso   1.00
O777   O     0.23008   0.86466   0.70550   0.00000  Uiso   1.00
O778   O     0.31547   0.71026   0.83333   0.00000  Uiso   1.00
O779   O     0.16765   0.82583   0.74948   0.00000  Uiso   1.00
O780   O     0.31547   0.78974   0.83333   0.00000  Uiso   1.00
O781   O     0.18453   0.71026   0.83334   0.00000  Uiso   1.00
O782   O     0.25000   0.78973   0.76178   0.00000  Uiso   1.00
O783   O     0.25000   0.71027   0.90489   0.00000  Uiso   1.00
O784   O     0.25000   0.78973   0.90489   0.00000  Uiso   1.00
O785   O     0.25000   0.71027   0.76178   0.00000  Uiso   1.00
O786   O     0.15169   0.59035   0.73096   0.00000  Uiso   1.00
S787   S     0.16757   0.62448   0.77126   0.00000  Uiso   1.00
S788   S     0.30382   0.87458   0.92559   0.00000  Uiso   1.00
S789   S     0.33240   0.62447   0.89548   0.00000  Uiso   1.00
S790   S     0.19618   0.87457   0.74108   0.00000  Uiso   1.00
Zn791  Zn    0.25000   0.80307   0.83333   0.00000  Uiso   1.00
Zn792  Zn    0.25000   0.69693   0.83333   0.00000  Uiso   1.00
C793   C     0.66410   0.75009   0.83428   0.00000  Uiso   1.00
C794   C     0.72701   0.94810   0.79493   0.00000  Uiso   1.00
C795   C     0.74995   0.75000   0.73964   0.00000  Uiso   1.00
C796   C     0.75004   0.75000   0.92703   0.00000  Uiso   1.00
C797   C     0.75001   0.52632   0.83332   0.00000  Uiso   1.00
C798   C     0.75001   0.97360   0.83333   0.00000  Uiso   1.00
C799   C     0.74999   0.75000   0.68845   0.00000  Uiso   1.00
C800   C     0.75001   0.75000   0.97822   0.00000  Uiso   1.00
C801   C     0.54549   0.78885   0.81621   0.00000  Uiso   1.00
C802   C     0.95138   0.71230   0.81229   0.00000  Uiso   1.00
C803   C     0.95450   0.78888   0.85060   0.00000  Uiso   1.00
C804   C     0.83590   0.75009   0.83240   0.00000  Uiso   1.00
C805   C     0.54869   0.71237   0.85476   0.00000  Uiso   1.00
C806   C     0.59150   0.78929   0.81759   0.00000  Uiso   1.00
C807   C     0.90517   0.71278   0.81085   0.00000  Uiso   1.00
C808   C     0.90849   0.78933   0.84910   0.00000  Uiso   1.00
C809   C     0.59489   0.71284   0.85609   0.00000  Uiso   1.00
C810   C     0.61623   0.75064   0.83598   0.00000  Uiso   1.00
C811   C     0.88379   0.75064   0.83078   0.00000  Uiso   1.00
C812   C     0.52408   0.75020   0.83425   0.00000  Uiso   1.00
C813   C     0.97596   0.75019   0.83272   0.00000  Uiso   1.00
C814   C     0.71560   0.60086   0.80703   0.00000  Uiso   1.00
C815   C     0.77425   0.89903   0.87118   0.00000  Uiso   1.00
C816   C     0.78439   0.60086   0.85965   0.00000  Uiso   1.00
C817   C     0.72575   0.89903   0.79549   0.00000  Uiso   1.00
C818   C     0.71490   0.55182   0.80906   0.00000  Uiso   1.00
C819   C     0.77300   0.94811   0.87173   0.00000  Uiso   1.00
C820   C     0.78511   0.55182   0.85759   0.00000  Uiso   1.00
H821   H     0.64423   0.68539   0.72978   0.00000  Uiso   1.00
H822   H     0.88619   0.68399   0.79371   0.00000  Uiso   1.00
H823   H     0.89258   0.81976   0.86273   0.00000  Uiso   1.00
H824   H     0.61391   0.68409   0.87327   0.00000  Uiso   1.00
H825   H     0.68606   0.53335   0.79169   0.00000  Uiso   1.00
H826   H     0.78933   0.96663   0.90343   0.00000  Uiso   1.00
H827   H     0.81395   0.53336   0.87497   0.00000  Uiso   1.00
H828   H     0.71068   0.96663   0.76322   0.00000  Uiso   1.00
H829   H     0.84254   0.81464   0.95129   0.00000  Uiso   1.00
H830   H     0.85584   0.68568   0.93635   0.00000  Uiso   1.00
H831   H     0.65748   0.81463   0.71537   0.00000  Uiso   1.00
H832   H     0.52657   0.81841   0.80064   0.00000  Uiso   1.00
H833   H     0.96790   0.68286   0.79703   0.00000  Uiso   1.00
H834   H     0.97339   0.81850   0.86609   0.00000  Uiso   1.00
H835   H     0.53220   0.68298   0.87015   0.00000  Uiso   1.00
H836   H     0.60737   0.81967   0.80381   0.00000  Uiso   1.00
N837   N     0.75000   0.62624   0.83333   0.00000  Uiso   1.00
N838   N     0.75000   0.87377   0.83333   0.00000  Uiso   1.00
O839   O     0.68453   0.78974   0.83334   0.00000  Uiso   1.00
O840   O     0.63123   0.62944   0.80531   0.00000  Uiso   1.00
O841   O     0.67474   0.67523   0.74277   0.00000  Uiso   1.00
O842   O     0.83661   0.90943   0.94955   0.00000  Uiso   1.00
O843   O     0.76992   0.86465   0.96116   0.00000  Uiso   1.00
O844   O     0.83236   0.82585   0.91719   0.00000  Uiso   1.00
O845   O     0.84816   0.59039   0.93587   0.00000  Uiso   1.00
O846   O     0.86882   0.62928   0.86150   0.00000  Uiso   1.00
O847   O     0.82528   0.67529   0.92385   0.00000  Uiso   1.00
O848   O     0.66338   0.90942   0.71713   0.00000  Uiso   1.00
O849   O     0.73008   0.86466   0.70550   0.00000  Uiso   1.00
O850   O     0.81547   0.71026   0.83333   0.00000  Uiso   1.00
O851   O     0.66765   0.82583   0.74948   0.00000  Uiso   1.00
O852   O     0.81547   0.78974   0.83333   0.00000  Uiso   1.00
O853   O     0.68453   0.71026   0.83334   0.00000  Uiso   1.00
O854   O     0.75000   0.78973   0.76178   0.00000  Uiso   1.00
O855   O     0.75000   0.71027   0.90489   0.00000  Uiso   1.00
O856   O     0.75000   0.78973   0.90489   0.00000  Uiso   1.00
O857   O     0.75000   0.71027   0.76178   0.00000  Uiso   1.00
O858   O     0.65169   0.59035   0.73096   0.00000  Uiso   1.00
S859   S     0.66757   0.62448   0.77126   0.00000  Uiso   1.00
S860   S     0.80382   0.87458   0.92559   0.00000  Uiso   1.00
S861   S     0.83240   0.62447   0.89548   0.00000  Uiso   1.00
S862   S     0.69618   0.87457   0.74108   0.00000  Uiso   1.00
Zn863  Zn    0.75000   0.80307   0.83333   0.00000  Uiso   1.00
Zn864  Zn    0.75000   0.69693   0.83333   0.00000  Uiso   1.00
loop_
_geom_bond_atom_site_label_1
_geom_bond_atom_site_label_2
_geom_bond_distance
_geom_bond_site_symmetry_2
_ccdc_geom_bond_type
C1     C18     1.442   .     S
C1     O47     1.297   .     A
C1     O61     1.302   .     A
C2     C6      1.392   .     A
C2     C25     1.414   .     A
C2     H36     1.080   .     S
C3     C7      1.377   .     S
C3     O65     1.290   .     A
C3     O62     1.289   .     A
C4     C8      1.377   .     S
C4     O63     1.290   .     A
C4     O64     1.289   .     A
C5     C28     1.391   .     A
C5     C26     1.391   .     A
C5     C150    1.518   1_545 S
C6     C27     1.392   .     A
C6     C149    1.518   .     S
C7     C584    1.171   1_554 S
C8     C295    1.171   .     S
C9     C14     1.378   .     A
C9     C20     1.396   .     A
C9     H40     1.084   .     S
C10    C21     1.398   .     A
C10    H41     1.083   .     S
C10    C15     1.384   .     A
C11    C16     1.378   .     A
C11    H42     1.084   .     S
C11    C21     1.396   .     A
C12    O58     1.302   .     A
C12    C19     1.443   .     S
C12    O60     1.297   .     A
C13    C17     1.384   .     A
C13    H43     1.084   .     S
C13    C20     1.398   .     A
C14    C18     1.400   .     A
C14    H44     1.079   .     S
C15    C19     1.399   .     A
C15    H30     1.082   .     S
C16    C19     1.400   .     A
C16    H31     1.079   .     S
C17    C18     1.399   .     A
C17    H32     1.082   .     S
C20    C93     1.441   1_455 S
C21    C92     1.441   .     S
C22    S67     1.785   .     S
C22    N45     1.397   .     A
C22    C26     1.413   .     A
C23    S68     1.778   .     S
C23    C27     1.414   .     A
C23    N46     1.395   .     A
C24    S69     1.785   .     S
C24    N45     1.397   .     A
C24    C28     1.413   .     A
C25    S70     1.778   .     S
C25    N46     1.395   .     A
C26    H33     1.081   .     S
C27    H34     1.080   .     S
C28    H35     1.081   .     S
H29    O49     0.991   .     S
H37    O52     0.991   .     S
H38    O55     0.991   .     S
H39    O59     0.991   .     S
N45    Zn72    2.036   .     S
N46    Zn71    2.036   .     S
O47    Zn71    2.002   .     S
O48    S67     1.500   .     D
O49    S67     1.674   .     S
O50    S68     1.504   .     D
O51    S68     1.493   .     D
O52    S68     1.671   .     S
O53    S69     1.504   .     D
O54    S69     1.500   .     D
O55    S69     1.674   .     S
O56    S70     1.504   .     D
O57    S70     1.493   .     D
O58    Zn72    2.002   .     S
O59    S70     1.671   .     S
O60    Zn71    2.002   .     S
O61    Zn72    2.002   .     S
O62    Zn71    1.962   .     S
O63    Zn72    1.962   .     S
O64    Zn71    1.962   .     S
O65    Zn72    1.962   .     S
O66    S67     1.504   .     D
C73    C90     1.442   .     S
C73    O119    1.297   .     A
C73    O133    1.302   .     A
C74    C78     1.392   .     A
C74    C97     1.414   .     A
C74    H108    1.080   .     S
C75    C79     1.377   .     S
C75    O137    1.290   .     A
C75    O134    1.289   .     A
C76    C80     1.377   .     S
C76    O135    1.290   .     A
C76    O136    1.289   .     A
C77    C100    1.391   .     A
C77    C98     1.391   .     A
C77    C222    1.518   1_545 S
C78    C99     1.392   .     A
C78    C221    1.518   .     S
C79    C656    1.171   1_554 S
C80    C367    1.171   .     S
C81    C86     1.378   .     A
C81    C92     1.396   .     A
C81    H112    1.084   .     S
C82    C93     1.398   .     A
C82    H113    1.083   .     S
C82    C87     1.384   .     A
C83    C88     1.378   .     A
C83    H114    1.084   .     S
C83    C93     1.396   .     A
C84    O130    1.302   .     A
C84    C91     1.443   .     S
C84    O132    1.297   .     A
C85    C89     1.384   .     A
C85    H115    1.084   .     S
C85    C92     1.398   .     A
C86    C90     1.400   .     A
C86    H116    1.079   .     S
C87    C91     1.399   .     A
C87    H102    1.082   .     S
C88    C91     1.400   .     A
C88    H103    1.079   .     S
C89    C90     1.399   .     A
C89    H104    1.082   .     S
C93    C20     1.441   1_655 S
C94    S139    1.785   .     S
C94    N117    1.397   .     A
C94    C98     1.413   .     A
C95    S140    1.778   .     S
C95    C99     1.414   .     A
C95    N118    1.395   .     A
C96    S141    1.785   .     S
C96    N117    1.397   .     A
C96    C100    1.413   .     A
C97    S142    1.778   .     S
C97    N118    1.395   .     A
C98    H105    1.081   .     S
C99    H106    1.080   .     S
C100   H107    1.081   .     S
H101   O121    0.991   .     S
H109   O124    0.991   .     S
H110   O127    0.991   .     S
H111   O131    0.991   .     S
N117   Zn144   2.036   .     S
N118   Zn143   2.036   .     S
O119   Zn143   2.002   .     S
O120   S139    1.500   .     D
O121   S139    1.674   .     S
O122   S140    1.504   .     D
O123   S140    1.493   .     D
O124   S140    1.671   .     S
O125   S141    1.504   .     D
O126   S141    1.500   .     D
O127   S141    1.674   .     S
O128   S142    1.504   .     D
O129   S142    1.493   .     D
O130   Zn144   2.002   .     S
O131   S142    1.671   .     S
O132   Zn143   2.002   .     S
O133   Zn144   2.002   .     S
O134   Zn143   1.962   .     S
O135   Zn144   1.962   .     S
O136   Zn143   1.962   .     S
O137   Zn144   1.962   .     S
O138   S139    1.504   .     D
C145   C162    1.442   .     S
C145   O191    1.297   .     A
C145   O205    1.302   .     A
C146   C150    1.392   .     A
C146   C169    1.414   .     A
C146   H180    1.080   .     S
C147   C151    1.377   .     S
C147   O209    1.290   .     A
C147   O206    1.289   .     A
C148   C152    1.377   .     S
C148   O207    1.290   .     A
C148   O208    1.289   .     A
C149   C172    1.391   .     A
C149   C170    1.391   .     A
C150   C171    1.392   .     A
C150   C5      1.518   1_565 S
C151   C728    1.171   1_554 S
C152   C439    1.171   .     S
C153   C158    1.378   .     A
C153   C164    1.396   .     A
C153   H184    1.084   .     S
C154   C165    1.398   .     A
C154   H185    1.083   .     S
C154   C159    1.384   .     A
C155   C160    1.378   .     A
C155   H186    1.084   .     S
C155   C165    1.396   .     A
C156   O202    1.302   .     A
C156   C163    1.443   .     S
C156   O204    1.297   .     A
C157   C161    1.384   .     A
C157   H187    1.084   .     S
C157   C164    1.398   .     A
C158   C162    1.400   .     A
C158   H188    1.079   .     S
C159   C163    1.399   .     A
C159   H174    1.082   .     S
C160   C163    1.400   .     A
C160   H175    1.079   .     S
C161   C162    1.399   .     A
C161   H176    1.082   .     S
C164   C237    1.441   1_455 S
C165   C236    1.441   .     S
C166   S211    1.785   .     S
C166   N189    1.397   .     A
C166   C170    1.413   .     A
C167   S212    1.778   .     S
C167   C171    1.414   .     A
C167   N190    1.395   .     A
C168   S213    1.785   .     S
C168   N189    1.397   .     A
C168   C172    1.413   .     A
C169   S214    1.778   .     S
C169   N190    1.395   .     A
C170   H177    1.081   .     S
C171   H178    1.080   .     S
C172   H179    1.081   .     S
H173   O193    0.991   .     S
H181   O196    0.991   .     S
H182   O199    0.991   .     S
H183   O203    0.991   .     S
N189   Zn216   2.036   .     S
N190   Zn215   2.036   .     S
O191   Zn215   2.002   .     S
O192   S211    1.500   .     D
O193   S211    1.674   .     S
O194   S212    1.504   .     D
O195   S212    1.493   .     D
O196   S212    1.671   .     S
O197   S213    1.504   .     D
O198   S213    1.500   .     D
O199   S213    1.674   .     S
O200   S214    1.504   .     D
O201   S214    1.493   .     D
O202   Zn216   2.002   .     S
O203   S214    1.671   .     S
O204   Zn215   2.002   .     S
O205   Zn216   2.002   .     S
O206   Zn215   1.962   .     S
O207   Zn216   1.962   .     S
O208   Zn215   1.962   .     S
O209   Zn216   1.962   .     S
O210   S211    1.504   .     D
C217   C234    1.442   .     S
C217   O263    1.297   .     A
C217   O277    1.302   .     A
C218   C222    1.392   .     A
C218   C241    1.414   .     A
C218   H252    1.080   .     S
C219   C223    1.377   .     S
C219   O281    1.290   .     A
C219   O278    1.289   .     A
C220   C224    1.377   .     S
C220   O279    1.290   .     A
C220   O280    1.289   .     A
C221   C244    1.391   .     A
C221   C242    1.391   .     A
C222   C243    1.392   .     A
C222   C77     1.518   1_565 S
C223   C800    1.171   1_554 S
C224   C511    1.171   .     S
C225   C230    1.378   .     A
C225   C236    1.396   .     A
C225   H256    1.084   .     S
C226   C237    1.398   .     A
C226   H257    1.083   .     S
C226   C231    1.384   .     A
C227   C232    1.378   .     A
C227   H258    1.084   .     S
C227   C237    1.396   .     A
C228   O274    1.302   .     A
C228   C235    1.443   .     S
C228   O276    1.297   .     A
C229   C233    1.384   .     A
C229   H259    1.084   .     S
C229   C236    1.398   .     A
C230   C234    1.400   .     A
C230   H260    1.079   .     S
C231   C235    1.399   .     A
C231   H246    1.082   .     S
C232   C235    1.400   .     A
C232   H247    1.079   .     S
C233   C234    1.399   .     A
C233   H248    1.082   .     S
C237   C164    1.441   1_655 S
C238   S283    1.785   .     S
C238   N261    1.397   .     A
C238   C242    1.413   .     A
C239   S284    1.778   .     S
C239   C243    1.414   .     A
C239   N262    1.395   .     A
C240   S285    1.785   .     S
C240   N261    1.397   .     A
C240   C244    1.413   .     A
C241   S286    1.778   .     S
C241   N262    1.395   .     A
C242   H249    1.081   .     S
C243   H250    1.080   .     S
C244   H251    1.081   .     S
H245   O265    0.991   .     S
H253   O268    0.991   .     S
H254   O271    0.991   .     S
H255   O275    0.991   .     S
N261   Zn288   2.036   .     S
N262   Zn287   2.036   .     S
O263   Zn287   2.002   .     S
O264   S283    1.500   .     D
O265   S283    1.674   .     S
O266   S284    1.504   .     D
O267   S284    1.493   .     D
O268   S284    1.671   .     S
O269   S285    1.504   .     D
O270   S285    1.500   .     D
O271   S285    1.674   .     S
O272   S286    1.504   .     D
O273   S286    1.493   .     D
O274   Zn288   2.002   .     S
O275   S286    1.671   .     S
O276   Zn287   2.002   .     S
O277   Zn288   2.002   .     S
O278   Zn287   1.962   .     S
O279   Zn288   1.962   .     S
O280   Zn287   1.962   .     S
O281   Zn288   1.962   .     S
O282   S283    1.504   .     D
C289   C306    1.442   .     S
C289   O335    1.297   .     A
C289   O349    1.302   .     A
C290   C294    1.392   .     A
C290   C313    1.414   .     A
C290   H324    1.080   .     S
C291   C295    1.377   .     S
C291   O353    1.290   .     A
C291   O350    1.289   .     A
C292   C296    1.377   .     S
C292   O351    1.290   .     A
C292   O352    1.289   .     A
C293   C316    1.391   .     A
C293   C314    1.391   .     A
C293   C438    1.518   1_545 S
C294   C315    1.392   .     A
C294   C437    1.518   .     S
C296   C583    1.171   .     S
C297   C302    1.378   .     A
C297   C308    1.396   .     A
C297   H328    1.084   .     S
C298   C309    1.398   .     A
C298   H329    1.083   .     S
C298   C303    1.384   .     A
C299   C304    1.378   .     A
C299   H330    1.084   .     S
C299   C309    1.396   .     A
C300   O346    1.302   .     A
C300   C307    1.443   .     S
C300   O348    1.297   .     A
C301   C305    1.384   .     A
C301   H331    1.084   .     S
C301   C308    1.398   .     A
C302   C306    1.400   .     A
C302   H332    1.079   .     S
C303   C307    1.399   .     A
C303   H318    1.082   .     S
C304   C307    1.400   .     A
C304   H319    1.079   .     S
C305   C306    1.399   .     A
C305   H320    1.082   .     S
C308   C381    1.441   1_455 S
C309   C380    1.441   .     S
C310   S355    1.785   .     S
C310   N333    1.397   .     A
C310   C314    1.413   .     A
C311   S356    1.778   .     S
C311   C315    1.414   .     A
C311   N334    1.395   .     A
C312   S357    1.785   .     S
C312   N333    1.397   .     A
C312   C316    1.413   .     A
C313   S358    1.778   .     S
C313   N334    1.395   .     A
C314   H321    1.081   .     S
C315   H322    1.080   .     S
C316   H323    1.081   .     S
H317   O337    0.991   .     S
H325   O340    0.991   .     S
H326   O343    0.991   .     S
H327   O347    0.991   .     S
N333   Zn360   2.036   .     S
N334   Zn359   2.036   .     S
O335   Zn359   2.002   .     S
O336   S355    1.500   .     D
O337   S355    1.674   .     S
O338   S356    1.504   .     D
O339   S356    1.493   .     D
O340   S356    1.671   .     S
O341   S357    1.504   .     D
O342   S357    1.500   .     D
O343   S357    1.674   .     S
O344   S358    1.504   .     D
O345   S358    1.493   .     D
O346   Zn360   2.002   .     S
O347   S358    1.671   .     S
O348   Zn359   2.002   .     S
O349   Zn360   2.002   .     S
O350   Zn359   1.962   .     S
O351   Zn360   1.962   .     S
O352   Zn359   1.962   .     S
O353   Zn360   1.962   .     S
O354   S355    1.504   .     D
C361   C378    1.442   .     S
C361   O407    1.297   .     A
C361   O421    1.302   .     A
C362   C366    1.392   .     A
C362   C385    1.414   .     A
C362   H396    1.080   .     S
C363   C367    1.377   .     S
C363   O425    1.290   .     A
C363   O422    1.289   .     A
C364   C368    1.377   .     S
C364   O423    1.290   .     A
C364   O424    1.289   .     A
C365   C388    1.391   .     A
C365   C386    1.391   .     A
C365   C510    1.518   1_545 S
C366   C387    1.392   .     A
C366   C509    1.518   .     S
C368   C655    1.171   .     S
C369   C374    1.378   .     A
C369   C380    1.396   .     A
C369   H400    1.084   .     S
C370   C381    1.398   .     A
C370   H401    1.083   .     S
C370   C375    1.384   .     A
C371   C376    1.378   .     A
C371   H402    1.084   .     S
C371   C381    1.396   .     A
C372   O418    1.302   .     A
C372   C379    1.443   .     S
C372   O420    1.297   .     A
C373   C377    1.384   .     A
C373   H403    1.084   .     S
C373   C380    1.398   .     A
C374   C378    1.400   .     A
C374   H404    1.079   .     S
C375   C379    1.399   .     A
C375   H390    1.082   .     S
C376   C379    1.400   .     A
C376   H391    1.079   .     S
C377   C378    1.399   .     A
C377   H392    1.082   .     S
C381   C308    1.441   1_655 S
C382   S427    1.785   .     S
C382   N405    1.397   .     A
C382   C386    1.413   .     A
C383   S428    1.778   .     S
C383   C387    1.414   .     A
C383   N406    1.395   .     A
C384   S429    1.785   .     S
C384   N405    1.397   .     A
C384   C388    1.413   .     A
C385   S430    1.778   .     S
C385   N406    1.395   .     A
C386   H393    1.081   .     S
C387   H394    1.080   .     S
C388   H395    1.081   .     S
H389   O409    0.991   .     S
H397   O412    0.991   .     S
H398   O415    0.991   .     S
H399   O419    0.991   .     S
N405   Zn432   2.036   .     S
N406   Zn431   2.036   .     S
O407   Zn431   2.002   .     S
O408   S427    1.500   .     D
O409   S427    1.674   .     S
O410   S428    1.504   .     D
O411   S428    1.493   .     D
O412   S428    1.671   .     S
O413   S429    1.504   .     D
O414   S429    1.500   .     D
O415   S429    1.674   .     S
O416   S430    1.504   .     D
O417   S430    1.493   .     D
O418   Zn432   2.002   .     S
O419   S430    1.671   .     S
O420   Zn431   2.002   .     S
O421   Zn432   2.002   .     S
O422   Zn431   1.962   .     S
O423   Zn432   1.962   .     S
O424   Zn431   1.962   .     S
O425   Zn432   1.962   .     S
O426   S427    1.504   .     D
C433   C450    1.442   .     S
C433   O479    1.297   .     A
C433   O493    1.302   .     A
C434   C438    1.392   .     A
C434   C457    1.414   .     A
C434   H468    1.080   .     S
C435   C439    1.377   .     S
C435   O497    1.290   .     A
C435   O494    1.289   .     A
C436   C440    1.377   .     S
C436   O495    1.290   .     A
C436   O496    1.289   .     A
C437   C460    1.391   .     A
C437   C458    1.391   .     A
C438   C459    1.392   .     A
C438   C293    1.518   1_565 S
C440   C727    1.171   .     S
C441   C446    1.378   .     A
C441   C452    1.396   .     A
C441   H472    1.084   .     S
C442   C453    1.398   .     A
C442   H473    1.083   .     S
C442   C447    1.384   .     A
C443   C448    1.378   .     A
C443   H474    1.084   .     S
C443   C453    1.396   .     A
C444   O490    1.302   .     A
C444   C451    1.443   .     S
C444   O492    1.297   .     A
C445   C449    1.384   .     A
C445   H475    1.084   .     S
C445   C452    1.398   .     A
C446   C450    1.400   .     A
C446   H476    1.079   .     S
C447   C451    1.399   .     A
C447   H462    1.082   .     S
C448   C451    1.400   .     A
C448   H463    1.079   .     S
C449   C450    1.399   .     A
C449   H464    1.082   .     S
C452   C525    1.441   1_455 S
C453   C524    1.441   .     S
C454   S499    1.785   .     S
C454   N477    1.397   .     A
C454   C458    1.413   .     A
C455   S500    1.778   .     S
C455   C459    1.414   .     A
C455   N478    1.395   .     A
C456   S501    1.785   .     S
C456   N477    1.397   .     A
C456   C460    1.413   .     A
C457   S502    1.778   .     S
C457   N478    1.395   .     A
C458   H465    1.081   .     S
C459   H466    1.080   .     S
C460   H467    1.081   .     S
H461   O481    0.991   .     S
H469   O484    0.991   .     S
H470   O487    0.991   .     S
H471   O491    0.991   .     S
N477   Zn504   2.036   .     S
N478   Zn503   2.036   .     S
O479   Zn503   2.002   .     S
O480   S499    1.500   .     D
O481   S499    1.674   .     S
O482   S500    1.504   .     D
O483   S500    1.493   .     D
O484   S500    1.671   .     S
O485   S501    1.504   .     D
O486   S501    1.500   .     D
O487   S501    1.674   .     S
O488   S502    1.504   .     D
O489   S502    1.493   .     D
O490   Zn504   2.002   .     S
O491   S502    1.671   .     S
O492   Zn503   2.002   .     S
O493   Zn504   2.002   .     S
O494   Zn503   1.962   .     S
O495   Zn504   1.962   .     S
O496   Zn503   1.962   .     S
O497   Zn504   1.962   .     S
O498   S499    1.504   .     D
C505   C522    1.442   .     S
C505   O551    1.297   .     A
C505   O565    1.302   .     A
C506   C510    1.392   .     A
C506   C529    1.414   .     A
C506   H540    1.080   .     S
C507   C511    1.377   .     S
C507   O569    1.290   .     A
C507   O566    1.289   .     A
C508   C512    1.377   .     S
C508   O567    1.290   .     A
C508   O568    1.289   .     A
C509   C532    1.391   .     A
C509   C530    1.391   .     A
C510   C531    1.392   .     A
C510   C365    1.518   1_565 S
C512   C799    1.171   .     S
C513   C518    1.378   .     A
C513   C524    1.396   .     A
C513   H544    1.084   .     S
C514   C525    1.398   .     A
C514   H545    1.083   .     S
C514   C519    1.384   .     A
C515   C520    1.378   .     A
C515   H546    1.084   .     S
C515   C525    1.396   .     A
C516   O562    1.302   .     A
C516   C523    1.443   .     S
C516   O564    1.297   .     A
C517   C521    1.384   .     A
C517   H547    1.084   .     S
C517   C524    1.398   .     A
C518   C522    1.400   .     A
C518   H548    1.079   .     S
C519   C523    1.399   .     A
C519   H534    1.082   .     S
C520   C523    1.400   .     A
C520   H535    1.079   .     S
C521   C522    1.399   .     A
C521   H536    1.082   .     S
C525   C452    1.441   1_655 S
C526   S571    1.785   .     S
C526   N549    1.397   .     A
C526   C530    1.413   .     A
C527   S572    1.778   .     S
C527   C531    1.414   .     A
C527   N550    1.395   .     A
C528   S573    1.785   .     S
C528   N549    1.397   .     A
C528   C532    1.413   .     A
C529   S574    1.778   .     S
C529   N550    1.395   .     A
C530   H537    1.081   .     S
C531   H538    1.080   .     S
C532   H539    1.081   .     S
H533   O553    0.991   .     S
H541   O556    0.991   .     S
H542   O559    0.991   .     S
H543   O563    0.991   .     S
N549   Zn576   2.036   .     S
N550   Zn575   2.036   .     S
O551   Zn575   2.002   .     S
O552   S571    1.500   .     D
O553   S571    1.674   .     S
O554   S572    1.504   .     D
O555   S572    1.493   .     D
O556   S572    1.671   .     S
O557   S573    1.504   .     D
O558   S573    1.500   .     D
O559   S573    1.674   .     S
O560   S574    1.504   .     D
O561   S574    1.493   .     D
O562   Zn576   2.002   .     S
O563   S574    1.671   .     S
O564   Zn575   2.002   .     S
O565   Zn576   2.002   .     S
O566   Zn575   1.962   .     S
O567   Zn576   1.962   .     S
O568   Zn575   1.962   .     S
O569   Zn576   1.962   .     S
O570   S571    1.504   .     D
C577   C594    1.442   .     S
C577   O623    1.297   .     A
C577   O637    1.302   .     A
C578   C582    1.392   .     A
C578   C601    1.414   .     A
C578   H612    1.080   .     S
C579   C583    1.377   .     S
C579   O641    1.290   .     A
C579   O638    1.289   .     A
C580   C584    1.377   .     S
C580   O639    1.290   .     A
C580   O640    1.289   .     A
C581   C604    1.391   .     A
C581   C602    1.391   .     A
C581   C726    1.518   1_545 S
C582   C603    1.392   .     A
C582   C725    1.518   .     S
C584   C7      1.171   1_556 S
C585   C590    1.378   .     A
C585   C596    1.396   .     A
C585   H616    1.084   .     S
C586   C597    1.398   .     A
C586   H617    1.083   .     S
C586   C591    1.384   .     A
C587   C592    1.378   .     A
C587   H618    1.084   .     S
C587   C597    1.396   .     A
C588   O634    1.302   .     A
C588   C595    1.443   .     S
C588   O636    1.297   .     A
C589   C593    1.384   .     A
C589   H619    1.084   .     S
C589   C596    1.398   .     A
C590   C594    1.400   .     A
C590   H620    1.079   .     S
C591   C595    1.399   .     A
C591   H606    1.082   .     S
C592   C595    1.400   .     A
C592   H607    1.079   .     S
C593   C594    1.399   .     A
C593   H608    1.082   .     S
C596   C669    1.441   1_455 S
C597   C668    1.441   .     S
C598   S643    1.785   .     S
C598   N621    1.397   .     A
C598   C602    1.413   .     A
C599   S644    1.778   .     S
C599   C603    1.414   .     A
C599   N622    1.395   .     A
C600   S645    1.785   .     S
C600   N621    1.397   .     A
C600   C604    1.413   .     A
C601   S646    1.778   .     S
C601   N622    1.395   .     A
C602   H609    1.081   .     S
C603   H610    1.080   .     S
C604   H611    1.081   .     S
H605   O625    0.991   .     S
H613   O628    0.991   .     S
H614   O631    0.991   .     S
H615   O635    0.991   .     S
N621   Zn648   2.036   .     S
N622   Zn647   2.036   .     S
O623   Zn647   2.002   .     S
O624   S643    1.500   .     D
O625   S643    1.674   .     S
O626   S644    1.504   .     D
O627   S644    1.493   .     D
O628   S644    1.671   .     S
O629   S645    1.504   .     D
O630   S645    1.500   .     D
O631   S645    1.674   .     S
O632   S646    1.504   .     D
O633   S646    1.493   .     D
O634   Zn648   2.002   .     S
O635   S646    1.671   .     S
O636   Zn647   2.002   .     S
O637   Zn648   2.002   .     S
O638   Zn647   1.962   .     S
O639   Zn648   1.962   .     S
O640   Zn647   1.962   .     S
O641   Zn648   1.962   .     S
O642   S643    1.504   .     D
C649   C666    1.442   .     S
C649   O695    1.297   .     A
C649   O709    1.302   .     A
C650   C654    1.392   .     A
C650   C673    1.414   .     A
C650   H684    1.080   .     S
C651   C655    1.377   .     S
C651   O713    1.290   .     A
C651   O710    1.289   .     A
C652   C656    1.377   .     S
C652   O711    1.290   .     A
C652   O712    1.289   .     A
C653   C676    1.391   .     A
C653   C674    1.391   .     A
C653   C798    1.518   1_545 S
C654   C675    1.392   .     A
C654   C797    1.518   .     S
C656   C79     1.171   1_556 S
C657   C662    1.378   .     A
C657   C668    1.396   .     A
C657   H688    1.084   .     S
C658   C669    1.398   .     A
C658   H689    1.083   .     S
C658   C663    1.384   .     A
C659   C664    1.378   .     A
C659   H690    1.084   .     S
C659   C669    1.396   .     A
C660   O706    1.302   .     A
C660   C667    1.443   .     S
C660   O708    1.297   .     A
C661   C665    1.384   .     A
C661   H691    1.084   .     S
C661   C668    1.398   .     A
C662   C666    1.400   .     A
C662   H692    1.079   .     S
C663   C667    1.399   .     A
C663   H678    1.082   .     S
C664   C667    1.400   .     A
C664   H679    1.079   .     S
C665   C666    1.399   .     A
C665   H680    1.082   .     S
C669   C596    1.441   1_655 S
C670   S715    1.785   .     S
C670   N693    1.397   .     A
C670   C674    1.413   .     A
C671   S716    1.778   .     S
C671   C675    1.414   .     A
C671   N694    1.395   .     A
C672   S717    1.785   .     S
C672   N693    1.397   .     A
C672   C676    1.413   .     A
C673   S718    1.778   .     S
C673   N694    1.395   .     A
C674   H681    1.081   .     S
C675   H682    1.080   .     S
C676   H683    1.081   .     S
H677   O697    0.991   .     S
H685   O700    0.991   .     S
H686   O703    0.991   .     S
H687   O707    0.991   .     S
N693   Zn720   2.036   .     S
N694   Zn719   2.036   .     S
O695   Zn719   2.002   .     S
O696   S715    1.500   .     D
O697   S715    1.674   .     S
O698   S716    1.504   .     D
O699   S716    1.493   .     D
O700   S716    1.671   .     S
O701   S717    1.504   .     D
O702   S717    1.500   .     D
O703   S717    1.674   .     S
O704   S718    1.504   .     D
O705   S718    1.493   .     D
O706   Zn720   2.002   .     S
O707   S718    1.671   .     S
O708   Zn719   2.002   .     S
O709   Zn720   2.002   .     S
O710   Zn719   1.962   .     S
O711   Zn720   1.962   .     S
O712   Zn719   1.962   .     S
O713   Zn720   1.962   .     S
O714   S715    1.504   .     D
C721   C738    1.442   .     S
C721   O767    1.297   .     A
C721   O781    1.302   .     A
C722   C726    1.392   .     A
C722   C745    1.414   .     A
C722   H756    1.080   .     S
C723   C727    1.377   .     S
C723   O785    1.290   .     A
C723   O782    1.289   .     A
C724   C728    1.377   .     S
C724   O783    1.290   .     A
C724   O784    1.289   .     A
C725   C748    1.391   .     A
C725   C746    1.391   .     A
C726   C747    1.392   .     A
C726   C581    1.518   1_565 S
C728   C151    1.171   1_556 S
C729   C734    1.378   .     A
C729   C740    1.396   .     A
C729   H760    1.084   .     S
C730   C741    1.398   .     A
C730   H761    1.083   .     S
C730   C735    1.384   .     A
C731   C736    1.378   .     A
C731   H762    1.084   .     S
C731   C741    1.396   .     A
C732   O778    1.302   .     A
C732   C739    1.443   .     S
C732   O780    1.297   .     A
C733   C737    1.384   .     A
C733   H763    1.084   .     S
C733   C740    1.398   .     A
C734   C738    1.400   .     A
C734   H764    1.079   .     S
C735   C739    1.399   .     A
C735   H750    1.082   .     S
C736   C739    1.400   .     A
C736   H751    1.079   .     S
C737   C738    1.399   .     A
C737   H752    1.082   .     S
C740   C813    1.441   1_455 S
C741   C812    1.441   .     S
C742   S787    1.785   .     S
C742   N765    1.397   .     A
C742   C746    1.413   .     A
C743   S788    1.778   .     S
C743   C747    1.414   .     A
C743   N766    1.395   .     A
C744   S789    1.785   .     S
C744   N765    1.397   .     A
C744   C748    1.413   .     A
C745   S790    1.778   .     S
C745   N766    1.395   .     A
C746   H753    1.081   .     S
C747   H754    1.080   .     S
C748   H755    1.081   .     S
H749   O769    0.991   .     S
H757   O772    0.991   .     S
H758   O775    0.991   .     S
H759   O779    0.991   .     S
N765   Zn792   2.036   .     S
N766   Zn791   2.036   .     S
O767   Zn791   2.002   .     S
O768   S787    1.500   .     D
O769   S787    1.674   .     S
O770   S788    1.504   .     D
O771   S788    1.493   .     D
O772   S788    1.671   .     S
O773   S789    1.504   .     D
O774   S789    1.500   .     D
O775   S789    1.674   .     S
O776   S790    1.504   .     D
O777   S790    1.493   .     D
O778   Zn792   2.002   .     S
O779   S790    1.671   .     S
O780   Zn791   2.002   .     S
O781   Zn792   2.002   .     S
O782   Zn791   1.962   .     S
O783   Zn792   1.962   .     S
O784   Zn791   1.962   .     S
O785   Zn792   1.962   .     S
O786   S787    1.504   .     D
C793   C810    1.442   .     S
C793   O839    1.297   .     A
C793   O853    1.302   .     A
C794   C798    1.392   .     A
C794   C817    1.414   .     A
C794   H828    1.080   .     S
C795   C799    1.377   .     S
C795   O857    1.290   .     A
C795   O854    1.289   .     A
C796   C800    1.377   .     S
C796   O855    1.290   .     A
C796   O856    1.289   .     A
C797   C820    1.391   .     A
C797   C818    1.391   .     A
C798   C819    1.392   .     A
C798   C653    1.518   1_565 S
C800   C223    1.171   1_556 S
C801   C806    1.378   .     A
C801   C812    1.396   .     A
C801   H832    1.084   .     S
C802   C813    1.398   .     A
C802   H833    1.083   .     S
C802   C807    1.384   .     A
C803   C808    1.378   .     A
C803   H834    1.084   .     S
C803   C813    1.396   .     A
C804   O850    1.302   .     A
C804   C811    1.443   .     S
C804   O852    1.297   .     A
C805   C809    1.384   .     A
C805   H835    1.084   .     S
C805   C812    1.398   .     A
C806   C810    1.400   .     A
C806   H836    1.079   .     S
C807   C811    1.399   .     A
C807   H822    1.082   .     S
C808   C811    1.400   .     A
C808   H823    1.079   .     S
C809   C810    1.399   .     A
C809   H824    1.082   .     S
C813   C740    1.441   1_655 S
C814   S859    1.785   .     S
C814   N837    1.397   .     A
C814   C818    1.413   .     A
C815   S860    1.778   .     S
C815   C819    1.414   .     A
C815   N838    1.395   .     A
C816   S861    1.785   .     S
C816   N837    1.397   .     A
C816   C820    1.413   .     A
C817   S862    1.778   .     S
C817   N838    1.395   .     A
C818   H825    1.081   .     S
C819   H826    1.080   .     S
C820   H827    1.081   .     S
H821   O841    0.991   .     S
H829   O844    0.991   .     S
H830   O847    0.991   .     S
H831   O851    0.991   .     S
N837   Zn864   2.036   .     S
N838   Zn863   2.036   .     S
O839   Zn863   2.002   .     S
O840   S859    1.500   .     D
O841   S859    1.674   .     S
O842   S860    1.504   .     D
O843   S860    1.493   .     D
O844   S860    1.671   .     S
O845   S861    1.504   .     D
O846   S861    1.500   .     D
O847   S861    1.674   .     S
O848   S862    1.504   .     D
O849   S862    1.493   .     D
O850   Zn864   2.002   .     S
O851   S862    1.671   .     S
O852   Zn863   2.002   .     S
O853   Zn864   2.002   .     S
O854   Zn863   1.962   .     S
O855   Zn864   1.962   .     S
O856   Zn863   1.962   .     S
O857   Zn864   1.962   .     S
O858   S859    1.504   .     D
