data_str_m3_o1_o16_pcu_sym.45
_audit_creation_date              2020-01-03
_audit_creation_method            'Materials Studio'
_symmetry_space_group_name_H-M    'P1'
_symmetry_Int_Tables_number       1
_symmetry_cell_setting            triclinic
loop_
_symmetry_equiv_pos_as_xyz
  x,y,z
_cell_length_a                    29.7252
_cell_length_b                    31.8635
_cell_length_c                    26.3198
_cell_angle_alpha                 90.1739
_cell_angle_beta                  71.3860
_cell_angle_gamma                 91.2839
loop_
_atom_site_label
_atom_site_type_symbol
_atom_site_fract_x
_atom_site_fract_y
_atom_site_fract_z
_atom_site_U_iso_or_equiv
_atom_site_adp_type
_atom_site_occupancy
C1     C     0.16750   0.24646   0.24851   0.00000  Uiso   1.00
C2     C     0.12578   0.16332   0.41007   0.00000  Uiso   1.00
C3     C     0.19752   0.31370   0.20417   0.00000  Uiso   1.00
C4     C     0.14079   0.16549   0.35176   0.00000  Uiso   1.00
C5     C     0.19586   0.02353   0.20773   0.00000  Uiso   1.00
C6     C     0.16552   0.04257   0.25323   0.00000  Uiso   1.00
C7     C     0.13778   0.01936   0.29828   0.00000  Uiso   1.00
C8     C     0.13890   0.30951   0.29431   0.00000  Uiso   1.00
C9     C     0.16820   0.29058   0.24821   0.00000  Uiso   1.00
C10    C     0.30331   0.13234   0.26640   0.00000  Uiso   1.00
C11    C     0.01767   0.13173   0.26553   0.00000  Uiso   1.00
C12    C     0.14616   0.15312   0.49142   0.00000  Uiso   1.00
C13    C     0.02929   0.20136   0.23402   0.00000  Uiso   1.00
C14    C     0.31491   0.20125   0.23372   0.00000  Uiso   1.00
C15    C     0.16572   0.08682   0.25231   0.00000  Uiso   1.00
C16    C     0.19208   0.16194   0.14885   0.00000  Uiso   1.00
C17    C     0.26333   0.13143   0.00720   0.00000  Uiso   1.00
C18    C     0.20499   0.14888   0.09279   0.00000  Uiso   1.00
C19    C     0.08516   0.18493   0.43936   0.00000  Uiso   1.00
C20    C     0.07458   0.19031   0.49423   0.00000  Uiso   1.00
C21    C     0.10530   0.17555   0.01999   0.00000  Uiso   1.00
C22    C     0.10969   0.03828   0.35036   0.00000  Uiso   1.00
C23    C     0.15570   0.14562   0.43644   0.00000  Uiso   1.00
C24    C     0.03307   0.09111   0.27891   0.00000  Uiso   1.00
C25    C     0.31341   0.12247   0.47659   0.00000  Uiso   1.00
C26    C     0.12351   0.11361   0.10140   0.00000  Uiso   1.00
C27    C     0.13570   0.07208   0.12192   0.00000  Uiso   1.00
C28    C     0.22876   0.29446   0.15390   0.00000  Uiso   1.00
C29    C     0.18001   0.14114   0.01555   0.00000  Uiso   1.00
C30    C     0.22628   0.13026   0.48386   0.00000  Uiso   1.00
C31    C     0.23227   0.11661   0.43154   0.00000  Uiso   1.00
C32    C     0.19603   0.12187   0.40935   0.00000  Uiso   1.00
C33    C     0.16869   0.13863   0.07076   0.00000  Uiso   1.00
C34    C     0.25246   0.14434   0.06093   0.00000  Uiso   1.00
H35    H     0.28068   0.14939   0.07824   0.00000  Uiso   1.00
H36    H     0.04364   0.20769   0.01645   0.00000  Uiso   1.00
H37    H     0.20114   0.10866   0.37010   0.00000  Uiso   1.00
H38    H     0.06174   0.02936   0.42388   0.00000  Uiso   1.00
H39    H     0.02379   0.04660   0.33561   0.00000  Uiso   1.00
H40    H     0.03289   0.12461   0.40604   0.00000  Uiso   1.00
H41    H     0.15886   0.05362   0.08814   0.00000  Uiso   1.00
H42    H     0.15440   0.07784   0.15145   0.00000  Uiso   1.00
H43    H     0.10274   0.05339   0.14126   0.00000  Uiso   1.00
H44    H     0.09878   0.13156   0.13424   0.00000  Uiso   1.00
H45    H     0.10252   0.10491   0.07463   0.00000  Uiso   1.00
H46    H     0.21747   0.04271   0.17449   0.00000  Uiso   1.00
H47    H     0.28502   0.30184   0.08667   0.00000  Uiso   1.00
H48    H     0.11798   0.29011   0.32770   0.00000  Uiso   1.00
H49    H     0.28049   0.10480   0.27912   0.00000  Uiso   1.00
H50    H     0.05148   0.22916   0.22094   0.00000  Uiso   1.00
H51    H     0.30144   0.22898   0.22044   0.00000  Uiso   1.00
H52    H     0.26400   0.10112   0.40784   0.00000  Uiso   1.00
H53    H     0.06269   0.19932   0.41934   0.00000  Uiso   1.00
H54    H     0.09779   0.18330   0.06188   0.00000  Uiso   1.00
N55    N     0.04760   0.16668   0.25001   0.00000  Uiso   1.00
N56    N     0.28573   0.16665   0.25000   0.00000  Uiso   1.00
O57    O     0.12846   0.22775   0.25000   0.00000  Uiso   1.00
O58    O     0.07875   0.01300   0.39040   0.00000  Uiso   1.00
O59    O     0.05293   0.06700   0.24296   0.00000  Uiso   1.00
O60    O     0.01766   0.07741   0.33209   0.00000  Uiso   1.00
O61    O     0.00540   0.10611   0.49918   0.00000  Uiso   1.00
O62    O     0.33223   0.13370   0.42256   0.00000  Uiso   1.00
O63    O     0.22120   0.25861   0.14159   0.00000  Uiso   1.00
O64    O     0.26655   0.31804   0.11968   0.00000  Uiso   1.00
O65    O     0.20490   0.22774   0.25000   0.00000  Uiso   1.00
O66    O     0.10947   0.16666   0.32681   0.00000  Uiso   1.00
O67    O     0.18591   0.16665   0.32681   0.00000  Uiso   1.00
O68    O     0.12843   0.10559   0.24999   0.00000  Uiso   1.00
O69    O     0.20488   0.10558   0.24999   0.00000  Uiso   1.00
O70    O     0.14742   0.16668   0.17319   0.00000  Uiso   1.00
O71    O     0.22387   0.16667   0.17319   0.00000  Uiso   1.00
O72    O     0.11384   0.07555   0.35902   0.00000  Uiso   1.00
Zn73   Zn    0.11562   0.16667   0.25000   0.00000  Uiso   1.00
Zn74   Zn    0.21771   0.16666   0.25000   0.00000  Uiso   1.00
C75    C     0.50084   0.24646   0.24851   0.00000  Uiso   1.00
C76    C     0.45911   0.16332   0.41007   0.00000  Uiso   1.00
C77    C     0.53085   0.31370   0.20417   0.00000  Uiso   1.00
C78    C     0.47412   0.16549   0.35176   0.00000  Uiso   1.00
C79    C     0.52920   0.02353   0.20773   0.00000  Uiso   1.00
C80    C     0.49885   0.04257   0.25323   0.00000  Uiso   1.00
C81    C     0.47112   0.01936   0.29828   0.00000  Uiso   1.00
C82    C     0.47223   0.30951   0.29431   0.00000  Uiso   1.00
C83    C     0.50153   0.29058   0.24821   0.00000  Uiso   1.00
C84    C     0.63664   0.13234   0.26640   0.00000  Uiso   1.00
C85    C     0.35101   0.13173   0.26553   0.00000  Uiso   1.00
C86    C     0.47949   0.15312   0.49142   0.00000  Uiso   1.00
C87    C     0.36263   0.20136   0.23402   0.00000  Uiso   1.00
C88    C     0.64824   0.20125   0.23372   0.00000  Uiso   1.00
C89    C     0.49905   0.08682   0.25231   0.00000  Uiso   1.00
C90    C     0.52541   0.16194   0.14885   0.00000  Uiso   1.00
C91    C     0.59666   0.13143   0.00720   0.00000  Uiso   1.00
C92    C     0.53832   0.14888   0.09279   0.00000  Uiso   1.00
C93    C     0.41849   0.18493   0.43936   0.00000  Uiso   1.00
C94    C     0.40791   0.19031   0.49423   0.00000  Uiso   1.00
C95    C     0.43863   0.17555   0.01999   0.00000  Uiso   1.00
C96    C     0.44303   0.03828   0.35036   0.00000  Uiso   1.00
C97    C     0.48903   0.14562   0.43644   0.00000  Uiso   1.00
C98    C     0.36640   0.09111   0.27891   0.00000  Uiso   1.00
C99    C     0.64675   0.12247   0.47659   0.00000  Uiso   1.00
C100   C     0.45684   0.11361   0.10140   0.00000  Uiso   1.00
C101   C     0.46903   0.07208   0.12192   0.00000  Uiso   1.00
C102   C     0.56210   0.29446   0.15390   0.00000  Uiso   1.00
C103   C     0.51334   0.14114   0.01555   0.00000  Uiso   1.00
C104   C     0.55962   0.13026   0.48386   0.00000  Uiso   1.00
C105   C     0.56560   0.11661   0.43154   0.00000  Uiso   1.00
C106   C     0.52937   0.12187   0.40935   0.00000  Uiso   1.00
C107   C     0.50202   0.13863   0.07076   0.00000  Uiso   1.00
C108   C     0.58579   0.14434   0.06093   0.00000  Uiso   1.00
H109   H     0.61402   0.14939   0.07824   0.00000  Uiso   1.00
H110   H     0.37697   0.20769   0.01645   0.00000  Uiso   1.00
H111   H     0.53447   0.10866   0.37010   0.00000  Uiso   1.00
H112   H     0.39507   0.02936   0.42388   0.00000  Uiso   1.00
H113   H     0.35712   0.04660   0.33561   0.00000  Uiso   1.00
H114   H     0.36622   0.12461   0.40604   0.00000  Uiso   1.00
H115   H     0.49219   0.05362   0.08814   0.00000  Uiso   1.00
H116   H     0.48773   0.07784   0.15145   0.00000  Uiso   1.00
H117   H     0.43607   0.05339   0.14126   0.00000  Uiso   1.00
H118   H     0.43211   0.13156   0.13424   0.00000  Uiso   1.00
H119   H     0.43585   0.10491   0.07463   0.00000  Uiso   1.00
H120   H     0.55081   0.04271   0.17449   0.00000  Uiso   1.00
H121   H     0.61835   0.30184   0.08667   0.00000  Uiso   1.00
H122   H     0.45131   0.29011   0.32770   0.00000  Uiso   1.00
H123   H     0.61382   0.10480   0.27912   0.00000  Uiso   1.00
H124   H     0.38482   0.22916   0.22094   0.00000  Uiso   1.00
H125   H     0.63478   0.22898   0.22044   0.00000  Uiso   1.00
H126   H     0.59733   0.10112   0.40784   0.00000  Uiso   1.00
H127   H     0.39602   0.19932   0.41934   0.00000  Uiso   1.00
H128   H     0.43112   0.18330   0.06188   0.00000  Uiso   1.00
N129   N     0.38093   0.16668   0.25001   0.00000  Uiso   1.00
N130   N     0.61906   0.16665   0.25000   0.00000  Uiso   1.00
O131   O     0.46179   0.22775   0.25000   0.00000  Uiso   1.00
O132   O     0.41208   0.01300   0.39040   0.00000  Uiso   1.00
O133   O     0.38626   0.06700   0.24296   0.00000  Uiso   1.00
O134   O     0.35099   0.07741   0.33209   0.00000  Uiso   1.00
O135   O     0.33873   0.10611   0.49918   0.00000  Uiso   1.00
O136   O     0.66557   0.13370   0.42256   0.00000  Uiso   1.00
O137   O     0.55453   0.25861   0.14159   0.00000  Uiso   1.00
O138   O     0.59988   0.31804   0.11968   0.00000  Uiso   1.00
O139   O     0.53823   0.22774   0.25000   0.00000  Uiso   1.00
O140   O     0.44280   0.16666   0.32681   0.00000  Uiso   1.00
O141   O     0.51924   0.16665   0.32681   0.00000  Uiso   1.00
O142   O     0.46177   0.10559   0.24999   0.00000  Uiso   1.00
O143   O     0.53821   0.10558   0.24999   0.00000  Uiso   1.00
O144   O     0.48076   0.16668   0.17319   0.00000  Uiso   1.00
O145   O     0.55720   0.16667   0.17319   0.00000  Uiso   1.00
O146   O     0.44717   0.07555   0.35902   0.00000  Uiso   1.00
Zn147  Zn    0.44896   0.16667   0.25000   0.00000  Uiso   1.00
Zn148  Zn    0.55104   0.16666   0.25000   0.00000  Uiso   1.00
C149   C     0.83417   0.24646   0.24851   0.00000  Uiso   1.00
C150   C     0.79244   0.16332   0.41007   0.00000  Uiso   1.00
C151   C     0.86419   0.31370   0.20417   0.00000  Uiso   1.00
C152   C     0.80746   0.16549   0.35176   0.00000  Uiso   1.00
C153   C     0.86253   0.02353   0.20773   0.00000  Uiso   1.00
C154   C     0.83219   0.04257   0.25323   0.00000  Uiso   1.00
C155   C     0.80445   0.01936   0.29828   0.00000  Uiso   1.00
C156   C     0.80556   0.30951   0.29431   0.00000  Uiso   1.00
C157   C     0.83486   0.29058   0.24821   0.00000  Uiso   1.00
C158   C     0.96998   0.13234   0.26640   0.00000  Uiso   1.00
C159   C     0.68434   0.13173   0.26553   0.00000  Uiso   1.00
C160   C     0.81282   0.15312   0.49142   0.00000  Uiso   1.00
C161   C     0.69596   0.20136   0.23402   0.00000  Uiso   1.00
C162   C     0.98158   0.20125   0.23372   0.00000  Uiso   1.00
C163   C     0.83239   0.08682   0.25231   0.00000  Uiso   1.00
C164   C     0.85874   0.16194   0.14885   0.00000  Uiso   1.00
C165   C     0.92999   0.13143   0.00720   0.00000  Uiso   1.00
C166   C     0.87165   0.14888   0.09279   0.00000  Uiso   1.00
C167   C     0.75183   0.18493   0.43936   0.00000  Uiso   1.00
C168   C     0.74125   0.19031   0.49423   0.00000  Uiso   1.00
C169   C     0.77196   0.17555   0.01999   0.00000  Uiso   1.00
C170   C     0.77636   0.03828   0.35036   0.00000  Uiso   1.00
C171   C     0.82236   0.14562   0.43644   0.00000  Uiso   1.00
C172   C     0.69974   0.09111   0.27891   0.00000  Uiso   1.00
C173   C     0.98008   0.12247   0.47659   0.00000  Uiso   1.00
C174   C     0.79017   0.11361   0.10140   0.00000  Uiso   1.00
C175   C     0.80237   0.07208   0.12192   0.00000  Uiso   1.00
C176   C     0.89543   0.29446   0.15390   0.00000  Uiso   1.00
C177   C     0.84667   0.14114   0.01555   0.00000  Uiso   1.00
C178   C     0.89295   0.13026   0.48386   0.00000  Uiso   1.00
C179   C     0.89893   0.11661   0.43154   0.00000  Uiso   1.00
C180   C     0.86270   0.12187   0.40935   0.00000  Uiso   1.00
C181   C     0.83535   0.13863   0.07076   0.00000  Uiso   1.00
C182   C     0.91913   0.14434   0.06093   0.00000  Uiso   1.00
H183   H     0.94735   0.14939   0.07824   0.00000  Uiso   1.00
H184   H     0.71030   0.20769   0.01645   0.00000  Uiso   1.00
H185   H     0.86781   0.10866   0.37010   0.00000  Uiso   1.00
H186   H     0.72840   0.02936   0.42388   0.00000  Uiso   1.00
H187   H     0.69046   0.04660   0.33561   0.00000  Uiso   1.00
H188   H     0.69955   0.12461   0.40604   0.00000  Uiso   1.00
H189   H     0.82553   0.05362   0.08814   0.00000  Uiso   1.00
H190   H     0.82106   0.07784   0.15145   0.00000  Uiso   1.00
H191   H     0.76941   0.05339   0.14126   0.00000  Uiso   1.00
H192   H     0.76545   0.13156   0.13424   0.00000  Uiso   1.00
H193   H     0.76919   0.10491   0.07463   0.00000  Uiso   1.00
H194   H     0.88414   0.04271   0.17449   0.00000  Uiso   1.00
H195   H     0.95168   0.30184   0.08667   0.00000  Uiso   1.00
H196   H     0.78465   0.29011   0.32770   0.00000  Uiso   1.00
H197   H     0.94716   0.10480   0.27912   0.00000  Uiso   1.00
H198   H     0.71815   0.22916   0.22094   0.00000  Uiso   1.00
H199   H     0.96811   0.22898   0.22044   0.00000  Uiso   1.00
H200   H     0.93066   0.10112   0.40784   0.00000  Uiso   1.00
H201   H     0.72936   0.19932   0.41934   0.00000  Uiso   1.00
H202   H     0.76445   0.18330   0.06188   0.00000  Uiso   1.00
N203   N     0.71426   0.16668   0.25001   0.00000  Uiso   1.00
N204   N     0.95239   0.16665   0.25000   0.00000  Uiso   1.00
O205   O     0.79512   0.22775   0.25000   0.00000  Uiso   1.00
O206   O     0.74541   0.01300   0.39040   0.00000  Uiso   1.00
O207   O     0.71960   0.06700   0.24296   0.00000  Uiso   1.00
O208   O     0.68432   0.07741   0.33209   0.00000  Uiso   1.00
O209   O     0.67207   0.10611   0.49918   0.00000  Uiso   1.00
O210   O     0.99890   0.13370   0.42256   0.00000  Uiso   1.00
O211   O     0.88787   0.25861   0.14159   0.00000  Uiso   1.00
O212   O     0.93321   0.31804   0.11968   0.00000  Uiso   1.00
O213   O     0.87157   0.22774   0.25000   0.00000  Uiso   1.00
O214   O     0.77613   0.16666   0.32681   0.00000  Uiso   1.00
O215   O     0.85258   0.16665   0.32681   0.00000  Uiso   1.00
O216   O     0.79510   0.10559   0.24999   0.00000  Uiso   1.00
O217   O     0.87154   0.10558   0.24999   0.00000  Uiso   1.00
O218   O     0.81409   0.16668   0.17319   0.00000  Uiso   1.00
O219   O     0.89053   0.16667   0.17319   0.00000  Uiso   1.00
O220   O     0.78051   0.07555   0.35902   0.00000  Uiso   1.00
Zn221  Zn    0.78229   0.16667   0.25000   0.00000  Uiso   1.00
Zn222  Zn    0.88438   0.16666   0.25000   0.00000  Uiso   1.00
C223   C     0.16750   0.57979   0.24851   0.00000  Uiso   1.00
C224   C     0.12578   0.49666   0.41007   0.00000  Uiso   1.00
C225   C     0.19752   0.64703   0.20417   0.00000  Uiso   1.00
C226   C     0.14079   0.49883   0.35176   0.00000  Uiso   1.00
C227   C     0.19586   0.35686   0.20773   0.00000  Uiso   1.00
C228   C     0.16552   0.37590   0.25323   0.00000  Uiso   1.00
C229   C     0.13778   0.35270   0.29828   0.00000  Uiso   1.00
C230   C     0.13890   0.64284   0.29431   0.00000  Uiso   1.00
C231   C     0.16820   0.62391   0.24821   0.00000  Uiso   1.00
C232   C     0.30331   0.46567   0.26640   0.00000  Uiso   1.00
C233   C     0.01767   0.46506   0.26553   0.00000  Uiso   1.00
C234   C     0.14616   0.48645   0.49142   0.00000  Uiso   1.00
C235   C     0.02929   0.53469   0.23402   0.00000  Uiso   1.00
C236   C     0.31491   0.53459   0.23372   0.00000  Uiso   1.00
C237   C     0.16572   0.42016   0.25231   0.00000  Uiso   1.00
C238   C     0.19208   0.49527   0.14885   0.00000  Uiso   1.00
C239   C     0.26333   0.46477   0.00720   0.00000  Uiso   1.00
C240   C     0.20499   0.48221   0.09279   0.00000  Uiso   1.00
C241   C     0.08516   0.51826   0.43936   0.00000  Uiso   1.00
C242   C     0.07458   0.52365   0.49423   0.00000  Uiso   1.00
C243   C     0.10530   0.50888   0.01999   0.00000  Uiso   1.00
C244   C     0.10969   0.37161   0.35036   0.00000  Uiso   1.00
C245   C     0.15570   0.47895   0.43644   0.00000  Uiso   1.00
C246   C     0.03307   0.42444   0.27891   0.00000  Uiso   1.00
C247   C     0.31341   0.45580   0.47659   0.00000  Uiso   1.00
C248   C     0.12351   0.44694   0.10140   0.00000  Uiso   1.00
C249   C     0.13570   0.40541   0.12192   0.00000  Uiso   1.00
C250   C     0.22876   0.62780   0.15390   0.00000  Uiso   1.00
C251   C     0.18001   0.47447   0.01555   0.00000  Uiso   1.00
C252   C     0.22628   0.46359   0.48386   0.00000  Uiso   1.00
C253   C     0.23227   0.44994   0.43154   0.00000  Uiso   1.00
C254   C     0.19603   0.45521   0.40935   0.00000  Uiso   1.00
C255   C     0.16869   0.47196   0.07076   0.00000  Uiso   1.00
C256   C     0.25246   0.47767   0.06093   0.00000  Uiso   1.00
H257   H     0.28068   0.48273   0.07824   0.00000  Uiso   1.00
H258   H     0.04364   0.54102   0.01645   0.00000  Uiso   1.00
H259   H     0.20114   0.44199   0.37010   0.00000  Uiso   1.00
H260   H     0.06174   0.36270   0.42388   0.00000  Uiso   1.00
H261   H     0.02379   0.37993   0.33561   0.00000  Uiso   1.00
H262   H     0.03289   0.45795   0.40604   0.00000  Uiso   1.00
H263   H     0.15886   0.38695   0.08814   0.00000  Uiso   1.00
H264   H     0.15440   0.41117   0.15145   0.00000  Uiso   1.00
H265   H     0.10274   0.38673   0.14126   0.00000  Uiso   1.00
H266   H     0.09878   0.46489   0.13424   0.00000  Uiso   1.00
H267   H     0.10252   0.43824   0.07463   0.00000  Uiso   1.00
H268   H     0.21747   0.37604   0.17449   0.00000  Uiso   1.00
H269   H     0.28502   0.63517   0.08667   0.00000  Uiso   1.00
H270   H     0.11798   0.62344   0.32770   0.00000  Uiso   1.00
H271   H     0.28049   0.43813   0.27912   0.00000  Uiso   1.00
H272   H     0.05148   0.56249   0.22094   0.00000  Uiso   1.00
H273   H     0.30144   0.56231   0.22044   0.00000  Uiso   1.00
H274   H     0.26400   0.43445   0.40784   0.00000  Uiso   1.00
H275   H     0.06269   0.53266   0.41934   0.00000  Uiso   1.00
H276   H     0.09779   0.51664   0.06188   0.00000  Uiso   1.00
N277   N     0.04760   0.50001   0.25001   0.00000  Uiso   1.00
N278   N     0.28573   0.49998   0.25000   0.00000  Uiso   1.00
O279   O     0.12846   0.56108   0.25000   0.00000  Uiso   1.00
O280   O     0.07875   0.34633   0.39040   0.00000  Uiso   1.00
O281   O     0.05293   0.40034   0.24296   0.00000  Uiso   1.00
O282   O     0.01766   0.41075   0.33209   0.00000  Uiso   1.00
O283   O     0.00540   0.43944   0.49918   0.00000  Uiso   1.00
O284   O     0.33223   0.46704   0.42256   0.00000  Uiso   1.00
O285   O     0.22120   0.59194   0.14159   0.00000  Uiso   1.00
O286   O     0.26655   0.65138   0.11968   0.00000  Uiso   1.00
O287   O     0.20490   0.56107   0.25000   0.00000  Uiso   1.00
O288   O     0.10947   0.50000   0.32681   0.00000  Uiso   1.00
O289   O     0.18591   0.49999   0.32681   0.00000  Uiso   1.00
O290   O     0.12843   0.43893   0.24999   0.00000  Uiso   1.00
O291   O     0.20488   0.43892   0.24999   0.00000  Uiso   1.00
O292   O     0.14742   0.50001   0.17319   0.00000  Uiso   1.00
O293   O     0.22387   0.50000   0.17319   0.00000  Uiso   1.00
O294   O     0.11384   0.40888   0.35902   0.00000  Uiso   1.00
Zn295  Zn    0.11562   0.50001   0.25000   0.00000  Uiso   1.00
Zn296  Zn    0.21771   0.49999   0.25000   0.00000  Uiso   1.00
C297   C     0.50084   0.57979   0.24851   0.00000  Uiso   1.00
C298   C     0.45911   0.49666   0.41007   0.00000  Uiso   1.00
C299   C     0.53085   0.64703   0.20417   0.00000  Uiso   1.00
C300   C     0.47412   0.49883   0.35176   0.00000  Uiso   1.00
C301   C     0.52920   0.35686   0.20773   0.00000  Uiso   1.00
C302   C     0.49885   0.37590   0.25323   0.00000  Uiso   1.00
C303   C     0.47112   0.35270   0.29828   0.00000  Uiso   1.00
C304   C     0.47223   0.64284   0.29431   0.00000  Uiso   1.00
C305   C     0.50153   0.62391   0.24821   0.00000  Uiso   1.00
C306   C     0.63664   0.46567   0.26640   0.00000  Uiso   1.00
C307   C     0.35101   0.46506   0.26553   0.00000  Uiso   1.00
C308   C     0.47949   0.48645   0.49142   0.00000  Uiso   1.00
C309   C     0.36263   0.53469   0.23402   0.00000  Uiso   1.00
C310   C     0.64824   0.53459   0.23372   0.00000  Uiso   1.00
C311   C     0.49905   0.42016   0.25231   0.00000  Uiso   1.00
C312   C     0.52541   0.49527   0.14885   0.00000  Uiso   1.00
C313   C     0.59666   0.46477   0.00720   0.00000  Uiso   1.00
C314   C     0.53832   0.48221   0.09279   0.00000  Uiso   1.00
C315   C     0.41849   0.51826   0.43936   0.00000  Uiso   1.00
C316   C     0.40791   0.52365   0.49423   0.00000  Uiso   1.00
C317   C     0.43863   0.50888   0.01999   0.00000  Uiso   1.00
C318   C     0.44303   0.37161   0.35036   0.00000  Uiso   1.00
C319   C     0.48903   0.47895   0.43644   0.00000  Uiso   1.00
C320   C     0.36640   0.42444   0.27891   0.00000  Uiso   1.00
C321   C     0.64675   0.45580   0.47659   0.00000  Uiso   1.00
C322   C     0.45684   0.44694   0.10140   0.00000  Uiso   1.00
C323   C     0.46903   0.40541   0.12192   0.00000  Uiso   1.00
C324   C     0.56210   0.62780   0.15390   0.00000  Uiso   1.00
C325   C     0.51334   0.47447   0.01555   0.00000  Uiso   1.00
C326   C     0.55962   0.46359   0.48386   0.00000  Uiso   1.00
C327   C     0.56560   0.44994   0.43154   0.00000  Uiso   1.00
C328   C     0.52937   0.45521   0.40935   0.00000  Uiso   1.00
C329   C     0.50202   0.47196   0.07076   0.00000  Uiso   1.00
C330   C     0.58579   0.47767   0.06093   0.00000  Uiso   1.00
H331   H     0.61402   0.48273   0.07824   0.00000  Uiso   1.00
H332   H     0.37697   0.54102   0.01645   0.00000  Uiso   1.00
H333   H     0.53447   0.44199   0.37010   0.00000  Uiso   1.00
H334   H     0.39507   0.36270   0.42388   0.00000  Uiso   1.00
H335   H     0.35712   0.37993   0.33561   0.00000  Uiso   1.00
H336   H     0.36622   0.45795   0.40604   0.00000  Uiso   1.00
H337   H     0.49219   0.38695   0.08814   0.00000  Uiso   1.00
H338   H     0.48773   0.41117   0.15145   0.00000  Uiso   1.00
H339   H     0.43607   0.38673   0.14126   0.00000  Uiso   1.00
H340   H     0.43211   0.46489   0.13424   0.00000  Uiso   1.00
H341   H     0.43585   0.43824   0.07463   0.00000  Uiso   1.00
H342   H     0.55081   0.37604   0.17449   0.00000  Uiso   1.00
H343   H     0.61835   0.63517   0.08667   0.00000  Uiso   1.00
H344   H     0.45131   0.62344   0.32770   0.00000  Uiso   1.00
H345   H     0.61382   0.43813   0.27912   0.00000  Uiso   1.00
H346   H     0.38482   0.56249   0.22094   0.00000  Uiso   1.00
H347   H     0.63478   0.56231   0.22044   0.00000  Uiso   1.00
H348   H     0.59733   0.43445   0.40784   0.00000  Uiso   1.00
H349   H     0.39602   0.53266   0.41934   0.00000  Uiso   1.00
H350   H     0.43112   0.51664   0.06188   0.00000  Uiso   1.00
N351   N     0.38093   0.50001   0.25001   0.00000  Uiso   1.00
N352   N     0.61906   0.49998   0.25000   0.00000  Uiso   1.00
O353   O     0.46179   0.56108   0.25000   0.00000  Uiso   1.00
O354   O     0.41208   0.34633   0.39040   0.00000  Uiso   1.00
O355   O     0.38626   0.40034   0.24296   0.00000  Uiso   1.00
O356   O     0.35099   0.41075   0.33209   0.00000  Uiso   1.00
O357   O     0.33873   0.43944   0.49918   0.00000  Uiso   1.00
O358   O     0.66557   0.46704   0.42256   0.00000  Uiso   1.00
O359   O     0.55453   0.59194   0.14159   0.00000  Uiso   1.00
O360   O     0.59988   0.65138   0.11968   0.00000  Uiso   1.00
O361   O     0.53823   0.56107   0.25000   0.00000  Uiso   1.00
O362   O     0.44280   0.50000   0.32681   0.00000  Uiso   1.00
O363   O     0.51924   0.49999   0.32681   0.00000  Uiso   1.00
O364   O     0.46177   0.43893   0.24999   0.00000  Uiso   1.00
O365   O     0.53821   0.43892   0.24999   0.00000  Uiso   1.00
O366   O     0.48076   0.50001   0.17319   0.00000  Uiso   1.00
O367   O     0.55720   0.50000   0.17319   0.00000  Uiso   1.00
O368   O     0.44717   0.40888   0.35902   0.00000  Uiso   1.00
Zn369  Zn    0.44896   0.50001   0.25000   0.00000  Uiso   1.00
Zn370  Zn    0.55104   0.49999   0.25000   0.00000  Uiso   1.00
C371   C     0.83417   0.57979   0.24851   0.00000  Uiso   1.00
C372   C     0.79244   0.49666   0.41007   0.00000  Uiso   1.00
C373   C     0.86419   0.64703   0.20417   0.00000  Uiso   1.00
C374   C     0.80746   0.49883   0.35176   0.00000  Uiso   1.00
C375   C     0.86253   0.35686   0.20773   0.00000  Uiso   1.00
C376   C     0.83219   0.37590   0.25323   0.00000  Uiso   1.00
C377   C     0.80445   0.35270   0.29828   0.00000  Uiso   1.00
C378   C     0.80556   0.64284   0.29431   0.00000  Uiso   1.00
C379   C     0.83486   0.62391   0.24821   0.00000  Uiso   1.00
C380   C     0.96998   0.46567   0.26640   0.00000  Uiso   1.00
C381   C     0.68434   0.46506   0.26553   0.00000  Uiso   1.00
C382   C     0.81282   0.48645   0.49142   0.00000  Uiso   1.00
C383   C     0.69596   0.53469   0.23402   0.00000  Uiso   1.00
C384   C     0.98158   0.53459   0.23372   0.00000  Uiso   1.00
C385   C     0.83239   0.42016   0.25231   0.00000  Uiso   1.00
C386   C     0.85874   0.49527   0.14885   0.00000  Uiso   1.00
C387   C     0.92999   0.46477   0.00720   0.00000  Uiso   1.00
C388   C     0.87165   0.48221   0.09279   0.00000  Uiso   1.00
C389   C     0.75183   0.51826   0.43936   0.00000  Uiso   1.00
C390   C     0.74125   0.52365   0.49423   0.00000  Uiso   1.00
C391   C     0.77196   0.50888   0.01999   0.00000  Uiso   1.00
C392   C     0.77636   0.37161   0.35036   0.00000  Uiso   1.00
C393   C     0.82236   0.47895   0.43644   0.00000  Uiso   1.00
C394   C     0.69974   0.42444   0.27891   0.00000  Uiso   1.00
C395   C     0.98008   0.45580   0.47659   0.00000  Uiso   1.00
C396   C     0.79017   0.44694   0.10140   0.00000  Uiso   1.00
C397   C     0.80237   0.40541   0.12192   0.00000  Uiso   1.00
C398   C     0.89543   0.62780   0.15390   0.00000  Uiso   1.00
C399   C     0.84667   0.47447   0.01555   0.00000  Uiso   1.00
C400   C     0.89295   0.46359   0.48386   0.00000  Uiso   1.00
C401   C     0.89893   0.44994   0.43154   0.00000  Uiso   1.00
C402   C     0.86270   0.45521   0.40935   0.00000  Uiso   1.00
C403   C     0.83535   0.47196   0.07076   0.00000  Uiso   1.00
C404   C     0.91913   0.47767   0.06093   0.00000  Uiso   1.00
H405   H     0.94735   0.48273   0.07824   0.00000  Uiso   1.00
H406   H     0.71030   0.54102   0.01645   0.00000  Uiso   1.00
H407   H     0.86781   0.44199   0.37010   0.00000  Uiso   1.00
H408   H     0.72840   0.36270   0.42388   0.00000  Uiso   1.00
H409   H     0.69046   0.37993   0.33561   0.00000  Uiso   1.00
H410   H     0.69955   0.45795   0.40604   0.00000  Uiso   1.00
H411   H     0.82553   0.38695   0.08814   0.00000  Uiso   1.00
H412   H     0.82106   0.41117   0.15145   0.00000  Uiso   1.00
H413   H     0.76941   0.38673   0.14126   0.00000  Uiso   1.00
H414   H     0.76545   0.46489   0.13424   0.00000  Uiso   1.00
H415   H     0.76919   0.43824   0.07463   0.00000  Uiso   1.00
H416   H     0.88414   0.37604   0.17449   0.00000  Uiso   1.00
H417   H     0.95168   0.63517   0.08667   0.00000  Uiso   1.00
H418   H     0.78465   0.62344   0.32770   0.00000  Uiso   1.00
H419   H     0.94716   0.43813   0.27912   0.00000  Uiso   1.00
H420   H     0.71815   0.56249   0.22094   0.00000  Uiso   1.00
H421   H     0.96811   0.56231   0.22044   0.00000  Uiso   1.00
H422   H     0.93066   0.43445   0.40784   0.00000  Uiso   1.00
H423   H     0.72936   0.53266   0.41934   0.00000  Uiso   1.00
H424   H     0.76445   0.51664   0.06188   0.00000  Uiso   1.00
N425   N     0.71426   0.50001   0.25001   0.00000  Uiso   1.00
N426   N     0.95239   0.49998   0.25000   0.00000  Uiso   1.00
O427   O     0.79512   0.56108   0.25000   0.00000  Uiso   1.00
O428   O     0.74541   0.34633   0.39040   0.00000  Uiso   1.00
O429   O     0.71960   0.40034   0.24296   0.00000  Uiso   1.00
O430   O     0.68432   0.41075   0.33209   0.00000  Uiso   1.00
O431   O     0.67207   0.43944   0.49918   0.00000  Uiso   1.00
O432   O     0.99890   0.46704   0.42256   0.00000  Uiso   1.00
O433   O     0.88787   0.59194   0.14159   0.00000  Uiso   1.00
O434   O     0.93321   0.65138   0.11968   0.00000  Uiso   1.00
O435   O     0.87157   0.56107   0.25000   0.00000  Uiso   1.00
O436   O     0.77613   0.50000   0.32681   0.00000  Uiso   1.00
O437   O     0.85258   0.49999   0.32681   0.00000  Uiso   1.00
O438   O     0.79510   0.43893   0.24999   0.00000  Uiso   1.00
O439   O     0.87154   0.43892   0.24999   0.00000  Uiso   1.00
O440   O     0.81409   0.50001   0.17319   0.00000  Uiso   1.00
O441   O     0.89053   0.50000   0.17319   0.00000  Uiso   1.00
O442   O     0.78051   0.40888   0.35902   0.00000  Uiso   1.00
Zn443  Zn    0.78229   0.50001   0.25000   0.00000  Uiso   1.00
Zn444  Zn    0.88438   0.49999   0.25000   0.00000  Uiso   1.00
C445   C     0.16750   0.91313   0.24851   0.00000  Uiso   1.00
C446   C     0.12578   0.82999   0.41007   0.00000  Uiso   1.00
C447   C     0.19752   0.98036   0.20417   0.00000  Uiso   1.00
C448   C     0.14079   0.83216   0.35176   0.00000  Uiso   1.00
C449   C     0.19586   0.69019   0.20773   0.00000  Uiso   1.00
C450   C     0.16552   0.70924   0.25323   0.00000  Uiso   1.00
C451   C     0.13778   0.68603   0.29828   0.00000  Uiso   1.00
C452   C     0.13890   0.97618   0.29431   0.00000  Uiso   1.00
C453   C     0.16820   0.95725   0.24821   0.00000  Uiso   1.00
C454   C     0.30331   0.79901   0.26640   0.00000  Uiso   1.00
C455   C     0.01767   0.79840   0.26553   0.00000  Uiso   1.00
C456   C     0.14616   0.81978   0.49142   0.00000  Uiso   1.00
C457   C     0.02929   0.86803   0.23402   0.00000  Uiso   1.00
C458   C     0.31491   0.86792   0.23372   0.00000  Uiso   1.00
C459   C     0.16572   0.75349   0.25231   0.00000  Uiso   1.00
C460   C     0.19208   0.82861   0.14885   0.00000  Uiso   1.00
C461   C     0.26333   0.79810   0.00720   0.00000  Uiso   1.00
C462   C     0.20499   0.81555   0.09279   0.00000  Uiso   1.00
C463   C     0.08516   0.85160   0.43936   0.00000  Uiso   1.00
C464   C     0.07458   0.85698   0.49423   0.00000  Uiso   1.00
C465   C     0.10530   0.84221   0.01999   0.00000  Uiso   1.00
C466   C     0.10969   0.70495   0.35036   0.00000  Uiso   1.00
C467   C     0.15570   0.81229   0.43644   0.00000  Uiso   1.00
C468   C     0.03307   0.75778   0.27891   0.00000  Uiso   1.00
C469   C     0.31341   0.78914   0.47659   0.00000  Uiso   1.00
C470   C     0.12351   0.78027   0.10140   0.00000  Uiso   1.00
C471   C     0.13570   0.73874   0.12192   0.00000  Uiso   1.00
C472   C     0.22876   0.96113   0.15390   0.00000  Uiso   1.00
C473   C     0.18001   0.80780   0.01555   0.00000  Uiso   1.00
C474   C     0.22628   0.79693   0.48386   0.00000  Uiso   1.00
C475   C     0.23227   0.78328   0.43154   0.00000  Uiso   1.00
C476   C     0.19603   0.78854   0.40935   0.00000  Uiso   1.00
C477   C     0.16869   0.80530   0.07076   0.00000  Uiso   1.00
C478   C     0.25246   0.81101   0.06093   0.00000  Uiso   1.00
H479   H     0.28068   0.81606   0.07824   0.00000  Uiso   1.00
H480   H     0.04364   0.87436   0.01645   0.00000  Uiso   1.00
H481   H     0.20114   0.77532   0.37010   0.00000  Uiso   1.00
H482   H     0.06174   0.69603   0.42388   0.00000  Uiso   1.00
H483   H     0.02379   0.71326   0.33561   0.00000  Uiso   1.00
H484   H     0.03289   0.79128   0.40604   0.00000  Uiso   1.00
H485   H     0.15886   0.72028   0.08814   0.00000  Uiso   1.00
H486   H     0.15440   0.74451   0.15145   0.00000  Uiso   1.00
H487   H     0.10274   0.72006   0.14126   0.00000  Uiso   1.00
H488   H     0.09878   0.79823   0.13424   0.00000  Uiso   1.00
H489   H     0.10252   0.77157   0.07463   0.00000  Uiso   1.00
H490   H     0.21747   0.70938   0.17449   0.00000  Uiso   1.00
H491   H     0.28502   0.96851   0.08667   0.00000  Uiso   1.00
H492   H     0.11798   0.95678   0.32770   0.00000  Uiso   1.00
H493   H     0.28049   0.77146   0.27912   0.00000  Uiso   1.00
H494   H     0.05148   0.89582   0.22094   0.00000  Uiso   1.00
H495   H     0.30144   0.89564   0.22044   0.00000  Uiso   1.00
H496   H     0.26400   0.76779   0.40784   0.00000  Uiso   1.00
H497   H     0.06269   0.86599   0.41934   0.00000  Uiso   1.00
H498   H     0.09779   0.84997   0.06188   0.00000  Uiso   1.00
N499   N     0.04760   0.83334   0.25001   0.00000  Uiso   1.00
N500   N     0.28573   0.83331   0.25000   0.00000  Uiso   1.00
O501   O     0.12846   0.89442   0.25000   0.00000  Uiso   1.00
O502   O     0.07875   0.67966   0.39040   0.00000  Uiso   1.00
O503   O     0.05293   0.73367   0.24296   0.00000  Uiso   1.00
O504   O     0.01766   0.74408   0.33209   0.00000  Uiso   1.00
O505   O     0.00540   0.77277   0.49918   0.00000  Uiso   1.00
O506   O     0.33223   0.80037   0.42256   0.00000  Uiso   1.00
O507   O     0.22120   0.92528   0.14159   0.00000  Uiso   1.00
O508   O     0.26655   0.98471   0.11968   0.00000  Uiso   1.00
O509   O     0.20490   0.89441   0.25000   0.00000  Uiso   1.00
O510   O     0.10947   0.83333   0.32681   0.00000  Uiso   1.00
O511   O     0.18591   0.83332   0.32681   0.00000  Uiso   1.00
O512   O     0.12843   0.77226   0.24999   0.00000  Uiso   1.00
O513   O     0.20488   0.77225   0.24999   0.00000  Uiso   1.00
O514   O     0.14742   0.83335   0.17319   0.00000  Uiso   1.00
O515   O     0.22387   0.83334   0.17319   0.00000  Uiso   1.00
O516   O     0.11384   0.74222   0.35902   0.00000  Uiso   1.00
Zn517  Zn    0.11562   0.83334   0.25000   0.00000  Uiso   1.00
Zn518  Zn    0.21771   0.83333   0.25000   0.00000  Uiso   1.00
C519   C     0.50084   0.91313   0.24851   0.00000  Uiso   1.00
C520   C     0.45911   0.82999   0.41007   0.00000  Uiso   1.00
C521   C     0.53085   0.98036   0.20417   0.00000  Uiso   1.00
C522   C     0.47412   0.83216   0.35176   0.00000  Uiso   1.00
C523   C     0.52920   0.69019   0.20773   0.00000  Uiso   1.00
C524   C     0.49885   0.70924   0.25323   0.00000  Uiso   1.00
C525   C     0.47112   0.68603   0.29828   0.00000  Uiso   1.00
C526   C     0.47223   0.97618   0.29431   0.00000  Uiso   1.00
C527   C     0.50153   0.95725   0.24821   0.00000  Uiso   1.00
C528   C     0.63664   0.79901   0.26640   0.00000  Uiso   1.00
C529   C     0.35101   0.79840   0.26553   0.00000  Uiso   1.00
C530   C     0.47949   0.81978   0.49142   0.00000  Uiso   1.00
C531   C     0.36263   0.86803   0.23402   0.00000  Uiso   1.00
C532   C     0.64824   0.86792   0.23372   0.00000  Uiso   1.00
C533   C     0.49905   0.75349   0.25231   0.00000  Uiso   1.00
C534   C     0.52541   0.82861   0.14885   0.00000  Uiso   1.00
C535   C     0.59666   0.79810   0.00720   0.00000  Uiso   1.00
C536   C     0.53832   0.81555   0.09279   0.00000  Uiso   1.00
C537   C     0.41849   0.85160   0.43936   0.00000  Uiso   1.00
C538   C     0.40791   0.85698   0.49423   0.00000  Uiso   1.00
C539   C     0.43863   0.84221   0.01999   0.00000  Uiso   1.00
C540   C     0.44303   0.70495   0.35036   0.00000  Uiso   1.00
C541   C     0.48903   0.81229   0.43644   0.00000  Uiso   1.00
C542   C     0.36640   0.75778   0.27891   0.00000  Uiso   1.00
C543   C     0.64675   0.78914   0.47659   0.00000  Uiso   1.00
C544   C     0.45684   0.78027   0.10140   0.00000  Uiso   1.00
C545   C     0.46903   0.73874   0.12192   0.00000  Uiso   1.00
C546   C     0.56210   0.96113   0.15390   0.00000  Uiso   1.00
C547   C     0.51334   0.80780   0.01555   0.00000  Uiso   1.00
C548   C     0.55962   0.79693   0.48386   0.00000  Uiso   1.00
C549   C     0.56560   0.78328   0.43154   0.00000  Uiso   1.00
C550   C     0.52937   0.78854   0.40935   0.00000  Uiso   1.00
C551   C     0.50202   0.80530   0.07076   0.00000  Uiso   1.00
C552   C     0.58579   0.81101   0.06093   0.00000  Uiso   1.00
H553   H     0.61402   0.81606   0.07824   0.00000  Uiso   1.00
H554   H     0.37697   0.87436   0.01645   0.00000  Uiso   1.00
H555   H     0.53447   0.77532   0.37010   0.00000  Uiso   1.00
H556   H     0.39507   0.69603   0.42388   0.00000  Uiso   1.00
H557   H     0.35712   0.71326   0.33561   0.00000  Uiso   1.00
H558   H     0.36622   0.79128   0.40604   0.00000  Uiso   1.00
H559   H     0.49219   0.72028   0.08814   0.00000  Uiso   1.00
H560   H     0.48773   0.74451   0.15145   0.00000  Uiso   1.00
H561   H     0.43607   0.72006   0.14126   0.00000  Uiso   1.00
H562   H     0.43211   0.79823   0.13424   0.00000  Uiso   1.00
H563   H     0.43585   0.77157   0.07463   0.00000  Uiso   1.00
H564   H     0.55081   0.70938   0.17449   0.00000  Uiso   1.00
H565   H     0.61835   0.96851   0.08667   0.00000  Uiso   1.00
H566   H     0.45131   0.95678   0.32770   0.00000  Uiso   1.00
H567   H     0.61382   0.77146   0.27912   0.00000  Uiso   1.00
H568   H     0.38482   0.89582   0.22094   0.00000  Uiso   1.00
H569   H     0.63478   0.89564   0.22044   0.00000  Uiso   1.00
H570   H     0.59733   0.76779   0.40784   0.00000  Uiso   1.00
H571   H     0.39602   0.86599   0.41934   0.00000  Uiso   1.00
H572   H     0.43112   0.84997   0.06188   0.00000  Uiso   1.00
N573   N     0.38093   0.83334   0.25001   0.00000  Uiso   1.00
N574   N     0.61906   0.83331   0.25000   0.00000  Uiso   1.00
O575   O     0.46179   0.89442   0.25000   0.00000  Uiso   1.00
O576   O     0.41208   0.67966   0.39040   0.00000  Uiso   1.00
O577   O     0.38626   0.73367   0.24296   0.00000  Uiso   1.00
O578   O     0.35099   0.74408   0.33209   0.00000  Uiso   1.00
O579   O     0.33873   0.77277   0.49918   0.00000  Uiso   1.00
O580   O     0.66557   0.80037   0.42256   0.00000  Uiso   1.00
O581   O     0.55453   0.92528   0.14159   0.00000  Uiso   1.00
O582   O     0.59988   0.98471   0.11968   0.00000  Uiso   1.00
O583   O     0.53823   0.89441   0.25000   0.00000  Uiso   1.00
O584   O     0.44280   0.83333   0.32681   0.00000  Uiso   1.00
O585   O     0.51924   0.83332   0.32681   0.00000  Uiso   1.00
O586   O     0.46177   0.77226   0.24999   0.00000  Uiso   1.00
O587   O     0.53821   0.77225   0.24999   0.00000  Uiso   1.00
O588   O     0.48076   0.83335   0.17319   0.00000  Uiso   1.00
O589   O     0.55720   0.83334   0.17319   0.00000  Uiso   1.00
O590   O     0.44717   0.74222   0.35902   0.00000  Uiso   1.00
Zn591  Zn    0.44896   0.83334   0.25000   0.00000  Uiso   1.00
Zn592  Zn    0.55104   0.83333   0.25000   0.00000  Uiso   1.00
C593   C     0.83417   0.91313   0.24851   0.00000  Uiso   1.00
C594   C     0.79244   0.82999   0.41007   0.00000  Uiso   1.00
C595   C     0.86419   0.98036   0.20417   0.00000  Uiso   1.00
C596   C     0.80746   0.83216   0.35176   0.00000  Uiso   1.00
C597   C     0.86253   0.69019   0.20773   0.00000  Uiso   1.00
C598   C     0.83219   0.70924   0.25323   0.00000  Uiso   1.00
C599   C     0.80445   0.68603   0.29828   0.00000  Uiso   1.00
C600   C     0.80556   0.97618   0.29431   0.00000  Uiso   1.00
C601   C     0.83486   0.95725   0.24821   0.00000  Uiso   1.00
C602   C     0.96998   0.79901   0.26640   0.00000  Uiso   1.00
C603   C     0.68434   0.79840   0.26553   0.00000  Uiso   1.00
C604   C     0.81282   0.81978   0.49142   0.00000  Uiso   1.00
C605   C     0.69596   0.86803   0.23402   0.00000  Uiso   1.00
C606   C     0.98158   0.86792   0.23372   0.00000  Uiso   1.00
C607   C     0.83239   0.75349   0.25231   0.00000  Uiso   1.00
C608   C     0.85874   0.82861   0.14885   0.00000  Uiso   1.00
C609   C     0.92999   0.79810   0.00720   0.00000  Uiso   1.00
C610   C     0.87165   0.81555   0.09279   0.00000  Uiso   1.00
C611   C     0.75183   0.85160   0.43936   0.00000  Uiso   1.00
C612   C     0.74125   0.85698   0.49423   0.00000  Uiso   1.00
C613   C     0.77196   0.84221   0.01999   0.00000  Uiso   1.00
C614   C     0.77636   0.70495   0.35036   0.00000  Uiso   1.00
C615   C     0.82236   0.81229   0.43644   0.00000  Uiso   1.00
C616   C     0.69974   0.75778   0.27891   0.00000  Uiso   1.00
C617   C     0.98008   0.78914   0.47659   0.00000  Uiso   1.00
C618   C     0.79017   0.78027   0.10140   0.00000  Uiso   1.00
C619   C     0.80237   0.73874   0.12192   0.00000  Uiso   1.00
C620   C     0.89543   0.96113   0.15390   0.00000  Uiso   1.00
C621   C     0.84667   0.80780   0.01555   0.00000  Uiso   1.00
C622   C     0.89295   0.79693   0.48386   0.00000  Uiso   1.00
C623   C     0.89893   0.78328   0.43154   0.00000  Uiso   1.00
C624   C     0.86270   0.78854   0.40935   0.00000  Uiso   1.00
C625   C     0.83535   0.80530   0.07076   0.00000  Uiso   1.00
C626   C     0.91913   0.81101   0.06093   0.00000  Uiso   1.00
H627   H     0.94735   0.81606   0.07824   0.00000  Uiso   1.00
H628   H     0.71030   0.87436   0.01645   0.00000  Uiso   1.00
H629   H     0.86781   0.77532   0.37010   0.00000  Uiso   1.00
H630   H     0.72840   0.69603   0.42388   0.00000  Uiso   1.00
H631   H     0.69046   0.71326   0.33561   0.00000  Uiso   1.00
H632   H     0.69955   0.79128   0.40604   0.00000  Uiso   1.00
H633   H     0.82553   0.72028   0.08814   0.00000  Uiso   1.00
H634   H     0.82106   0.74451   0.15145   0.00000  Uiso   1.00
H635   H     0.76941   0.72006   0.14126   0.00000  Uiso   1.00
H636   H     0.76545   0.79823   0.13424   0.00000  Uiso   1.00
H637   H     0.76919   0.77157   0.07463   0.00000  Uiso   1.00
H638   H     0.88414   0.70938   0.17449   0.00000  Uiso   1.00
H639   H     0.95168   0.96851   0.08667   0.00000  Uiso   1.00
H640   H     0.78465   0.95678   0.32770   0.00000  Uiso   1.00
H641   H     0.94716   0.77146   0.27912   0.00000  Uiso   1.00
H642   H     0.71815   0.89582   0.22094   0.00000  Uiso   1.00
H643   H     0.96811   0.89564   0.22044   0.00000  Uiso   1.00
H644   H     0.93066   0.76779   0.40784   0.00000  Uiso   1.00
H645   H     0.72936   0.86599   0.41934   0.00000  Uiso   1.00
H646   H     0.76445   0.84997   0.06188   0.00000  Uiso   1.00
N647   N     0.71426   0.83334   0.25001   0.00000  Uiso   1.00
N648   N     0.95239   0.83331   0.25000   0.00000  Uiso   1.00
O649   O     0.79512   0.89442   0.25000   0.00000  Uiso   1.00
O650   O     0.74541   0.67966   0.39040   0.00000  Uiso   1.00
O651   O     0.71960   0.73367   0.24296   0.00000  Uiso   1.00
O652   O     0.68432   0.74408   0.33209   0.00000  Uiso   1.00
O653   O     0.67207   0.77277   0.49918   0.00000  Uiso   1.00
O654   O     0.99890   0.80037   0.42256   0.00000  Uiso   1.00
O655   O     0.88787   0.92528   0.14159   0.00000  Uiso   1.00
O656   O     0.93321   0.98471   0.11968   0.00000  Uiso   1.00
O657   O     0.87157   0.89441   0.25000   0.00000  Uiso   1.00
O658   O     0.77613   0.83333   0.32681   0.00000  Uiso   1.00
O659   O     0.85258   0.83332   0.32681   0.00000  Uiso   1.00
O660   O     0.79510   0.77226   0.24999   0.00000  Uiso   1.00
O661   O     0.87154   0.77225   0.24999   0.00000  Uiso   1.00
O662   O     0.81409   0.83335   0.17319   0.00000  Uiso   1.00
O663   O     0.89053   0.83334   0.17319   0.00000  Uiso   1.00
O664   O     0.78051   0.74222   0.35902   0.00000  Uiso   1.00
Zn665  Zn    0.78229   0.83334   0.25000   0.00000  Uiso   1.00
Zn666  Zn    0.88438   0.83333   0.25000   0.00000  Uiso   1.00
C667   C     0.16750   0.24646   0.74851   0.00000  Uiso   1.00
C668   C     0.12578   0.16332   0.91007   0.00000  Uiso   1.00
C669   C     0.19752   0.31370   0.70417   0.00000  Uiso   1.00
C670   C     0.14079   0.16549   0.85176   0.00000  Uiso   1.00
C671   C     0.19586   0.02353   0.70773   0.00000  Uiso   1.00
C672   C     0.16552   0.04257   0.75323   0.00000  Uiso   1.00
C673   C     0.13778   0.01936   0.79828   0.00000  Uiso   1.00
C674   C     0.13890   0.30951   0.79431   0.00000  Uiso   1.00
C675   C     0.16820   0.29058   0.74821   0.00000  Uiso   1.00
C676   C     0.30331   0.13234   0.76640   0.00000  Uiso   1.00
C677   C     0.01767   0.13173   0.76553   0.00000  Uiso   1.00
C678   C     0.14616   0.15312   0.99142   0.00000  Uiso   1.00
C679   C     0.02929   0.20136   0.73402   0.00000  Uiso   1.00
C680   C     0.31491   0.20125   0.73372   0.00000  Uiso   1.00
C681   C     0.16572   0.08682   0.75231   0.00000  Uiso   1.00
C682   C     0.19208   0.16194   0.64885   0.00000  Uiso   1.00
C683   C     0.26333   0.13143   0.50720   0.00000  Uiso   1.00
C684   C     0.20499   0.14888   0.59279   0.00000  Uiso   1.00
C685   C     0.08516   0.18493   0.93936   0.00000  Uiso   1.00
C686   C     0.07458   0.19031   0.99423   0.00000  Uiso   1.00
C687   C     0.10530   0.17555   0.51999   0.00000  Uiso   1.00
C688   C     0.10969   0.03828   0.85036   0.00000  Uiso   1.00
C689   C     0.15570   0.14562   0.93644   0.00000  Uiso   1.00
C690   C     0.03307   0.09111   0.77891   0.00000  Uiso   1.00
C691   C     0.31341   0.12247   0.97659   0.00000  Uiso   1.00
C692   C     0.12351   0.11361   0.60140   0.00000  Uiso   1.00
C693   C     0.13570   0.07208   0.62192   0.00000  Uiso   1.00
C694   C     0.22876   0.29446   0.65390   0.00000  Uiso   1.00
C695   C     0.18001   0.14114   0.51555   0.00000  Uiso   1.00
C696   C     0.22628   0.13026   0.98386   0.00000  Uiso   1.00
C697   C     0.23227   0.11661   0.93154   0.00000  Uiso   1.00
C698   C     0.19603   0.12187   0.90935   0.00000  Uiso   1.00
C699   C     0.16869   0.13863   0.57076   0.00000  Uiso   1.00
C700   C     0.25246   0.14434   0.56093   0.00000  Uiso   1.00
H701   H     0.28068   0.14939   0.57824   0.00000  Uiso   1.00
H702   H     0.04364   0.20769   0.51645   0.00000  Uiso   1.00
H703   H     0.20114   0.10866   0.87010   0.00000  Uiso   1.00
H704   H     0.06174   0.02936   0.92388   0.00000  Uiso   1.00
H705   H     0.02379   0.04660   0.83561   0.00000  Uiso   1.00
H706   H     0.03289   0.12461   0.90604   0.00000  Uiso   1.00
H707   H     0.15886   0.05362   0.58814   0.00000  Uiso   1.00
H708   H     0.15440   0.07784   0.65145   0.00000  Uiso   1.00
H709   H     0.10274   0.05339   0.64126   0.00000  Uiso   1.00
H710   H     0.09878   0.13156   0.63424   0.00000  Uiso   1.00
H711   H     0.10252   0.10491   0.57463   0.00000  Uiso   1.00
H712   H     0.21747   0.04271   0.67449   0.00000  Uiso   1.00
H713   H     0.28502   0.30184   0.58667   0.00000  Uiso   1.00
H714   H     0.11798   0.29011   0.82770   0.00000  Uiso   1.00
H715   H     0.28049   0.10480   0.77912   0.00000  Uiso   1.00
H716   H     0.05148   0.22916   0.72094   0.00000  Uiso   1.00
H717   H     0.30144   0.22898   0.72044   0.00000  Uiso   1.00
H718   H     0.26400   0.10112   0.90784   0.00000  Uiso   1.00
H719   H     0.06269   0.19932   0.91934   0.00000  Uiso   1.00
H720   H     0.09779   0.18330   0.56188   0.00000  Uiso   1.00
N721   N     0.04760   0.16668   0.75001   0.00000  Uiso   1.00
N722   N     0.28573   0.16665   0.75000   0.00000  Uiso   1.00
O723   O     0.12846   0.22775   0.75000   0.00000  Uiso   1.00
O724   O     0.07875   0.01300   0.89040   0.00000  Uiso   1.00
O725   O     0.05293   0.06700   0.74296   0.00000  Uiso   1.00
O726   O     0.01766   0.07741   0.83209   0.00000  Uiso   1.00
O727   O     0.00540   0.10611   0.99918   0.00000  Uiso   1.00
O728   O     0.33223   0.13370   0.92256   0.00000  Uiso   1.00
O729   O     0.22120   0.25861   0.64159   0.00000  Uiso   1.00
O730   O     0.26655   0.31804   0.61968   0.00000  Uiso   1.00
O731   O     0.20490   0.22774   0.75000   0.00000  Uiso   1.00
O732   O     0.10947   0.16666   0.82681   0.00000  Uiso   1.00
O733   O     0.18591   0.16665   0.82681   0.00000  Uiso   1.00
O734   O     0.12843   0.10559   0.74999   0.00000  Uiso   1.00
O735   O     0.20488   0.10558   0.74999   0.00000  Uiso   1.00
O736   O     0.14742   0.16668   0.67319   0.00000  Uiso   1.00
O737   O     0.22387   0.16667   0.67319   0.00000  Uiso   1.00
O738   O     0.11384   0.07555   0.85902   0.00000  Uiso   1.00
Zn739  Zn    0.11562   0.16667   0.75000   0.00000  Uiso   1.00
Zn740  Zn    0.21771   0.16666   0.75000   0.00000  Uiso   1.00
C741   C     0.50084   0.24646   0.74851   0.00000  Uiso   1.00
C742   C     0.45911   0.16332   0.91007   0.00000  Uiso   1.00
C743   C     0.53085   0.31370   0.70417   0.00000  Uiso   1.00
C744   C     0.47412   0.16549   0.85176   0.00000  Uiso   1.00
C745   C     0.52920   0.02353   0.70773   0.00000  Uiso   1.00
C746   C     0.49885   0.04257   0.75323   0.00000  Uiso   1.00
C747   C     0.47112   0.01936   0.79828   0.00000  Uiso   1.00
C748   C     0.47223   0.30951   0.79431   0.00000  Uiso   1.00
C749   C     0.50153   0.29058   0.74821   0.00000  Uiso   1.00
C750   C     0.63664   0.13234   0.76640   0.00000  Uiso   1.00
C751   C     0.35101   0.13173   0.76553   0.00000  Uiso   1.00
C752   C     0.47949   0.15312   0.99142   0.00000  Uiso   1.00
C753   C     0.36263   0.20136   0.73402   0.00000  Uiso   1.00
C754   C     0.64824   0.20125   0.73372   0.00000  Uiso   1.00
C755   C     0.49905   0.08682   0.75231   0.00000  Uiso   1.00
C756   C     0.52541   0.16194   0.64885   0.00000  Uiso   1.00
C757   C     0.59666   0.13143   0.50720   0.00000  Uiso   1.00
C758   C     0.53832   0.14888   0.59279   0.00000  Uiso   1.00
C759   C     0.41849   0.18493   0.93936   0.00000  Uiso   1.00
C760   C     0.40791   0.19031   0.99423   0.00000  Uiso   1.00
C761   C     0.43863   0.17555   0.51999   0.00000  Uiso   1.00
C762   C     0.44303   0.03828   0.85036   0.00000  Uiso   1.00
C763   C     0.48903   0.14562   0.93644   0.00000  Uiso   1.00
C764   C     0.36640   0.09111   0.77891   0.00000  Uiso   1.00
C765   C     0.64675   0.12247   0.97659   0.00000  Uiso   1.00
C766   C     0.45684   0.11361   0.60140   0.00000  Uiso   1.00
C767   C     0.46903   0.07208   0.62192   0.00000  Uiso   1.00
C768   C     0.56210   0.29446   0.65390   0.00000  Uiso   1.00
C769   C     0.51334   0.14114   0.51555   0.00000  Uiso   1.00
C770   C     0.55962   0.13026   0.98386   0.00000  Uiso   1.00
C771   C     0.56560   0.11661   0.93154   0.00000  Uiso   1.00
C772   C     0.52937   0.12187   0.90935   0.00000  Uiso   1.00
C773   C     0.50202   0.13863   0.57076   0.00000  Uiso   1.00
C774   C     0.58579   0.14434   0.56093   0.00000  Uiso   1.00
H775   H     0.61402   0.14939   0.57824   0.00000  Uiso   1.00
H776   H     0.37697   0.20769   0.51645   0.00000  Uiso   1.00
H777   H     0.53447   0.10866   0.87010   0.00000  Uiso   1.00
H778   H     0.39507   0.02936   0.92388   0.00000  Uiso   1.00
H779   H     0.35712   0.04660   0.83561   0.00000  Uiso   1.00
H780   H     0.36622   0.12461   0.90604   0.00000  Uiso   1.00
H781   H     0.49219   0.05362   0.58814   0.00000  Uiso   1.00
H782   H     0.48773   0.07784   0.65145   0.00000  Uiso   1.00
H783   H     0.43607   0.05339   0.64126   0.00000  Uiso   1.00
H784   H     0.43211   0.13156   0.63424   0.00000  Uiso   1.00
H785   H     0.43585   0.10491   0.57463   0.00000  Uiso   1.00
H786   H     0.55081   0.04271   0.67449   0.00000  Uiso   1.00
H787   H     0.61835   0.30184   0.58667   0.00000  Uiso   1.00
H788   H     0.45131   0.29011   0.82770   0.00000  Uiso   1.00
H789   H     0.61382   0.10480   0.77912   0.00000  Uiso   1.00
H790   H     0.38482   0.22916   0.72094   0.00000  Uiso   1.00
H791   H     0.63478   0.22898   0.72044   0.00000  Uiso   1.00
H792   H     0.59733   0.10112   0.90784   0.00000  Uiso   1.00
H793   H     0.39602   0.19932   0.91934   0.00000  Uiso   1.00
H794   H     0.43112   0.18330   0.56188   0.00000  Uiso   1.00
N795   N     0.38093   0.16668   0.75001   0.00000  Uiso   1.00
N796   N     0.61906   0.16665   0.75000   0.00000  Uiso   1.00
O797   O     0.46179   0.22775   0.75000   0.00000  Uiso   1.00
O798   O     0.41208   0.01300   0.89040   0.00000  Uiso   1.00
O799   O     0.38626   0.06700   0.74296   0.00000  Uiso   1.00
O800   O     0.35099   0.07741   0.83209   0.00000  Uiso   1.00
O801   O     0.33873   0.10611   0.99918   0.00000  Uiso   1.00
O802   O     0.66557   0.13370   0.92256   0.00000  Uiso   1.00
O803   O     0.55453   0.25861   0.64159   0.00000  Uiso   1.00
O804   O     0.59988   0.31804   0.61968   0.00000  Uiso   1.00
O805   O     0.53823   0.22774   0.75000   0.00000  Uiso   1.00
O806   O     0.44280   0.16666   0.82681   0.00000  Uiso   1.00
O807   O     0.51924   0.16665   0.82681   0.00000  Uiso   1.00
O808   O     0.46177   0.10559   0.74999   0.00000  Uiso   1.00
O809   O     0.53821   0.10558   0.74999   0.00000  Uiso   1.00
O810   O     0.48076   0.16668   0.67319   0.00000  Uiso   1.00
O811   O     0.55720   0.16667   0.67319   0.00000  Uiso   1.00
O812   O     0.44717   0.07555   0.85902   0.00000  Uiso   1.00
Zn813  Zn    0.44896   0.16667   0.75000   0.00000  Uiso   1.00
Zn814  Zn    0.55104   0.16666   0.75000   0.00000  Uiso   1.00
C815   C     0.83417   0.24646   0.74851   0.00000  Uiso   1.00
C816   C     0.79244   0.16332   0.91007   0.00000  Uiso   1.00
C817   C     0.86419   0.31370   0.70417   0.00000  Uiso   1.00
C818   C     0.80746   0.16549   0.85176   0.00000  Uiso   1.00
C819   C     0.86253   0.02353   0.70773   0.00000  Uiso   1.00
C820   C     0.83219   0.04257   0.75323   0.00000  Uiso   1.00
C821   C     0.80445   0.01936   0.79828   0.00000  Uiso   1.00
C822   C     0.80556   0.30951   0.79431   0.00000  Uiso   1.00
C823   C     0.83486   0.29058   0.74821   0.00000  Uiso   1.00
C824   C     0.96998   0.13234   0.76640   0.00000  Uiso   1.00
C825   C     0.68434   0.13173   0.76553   0.00000  Uiso   1.00
C826   C     0.81282   0.15312   0.99142   0.00000  Uiso   1.00
C827   C     0.69596   0.20136   0.73402   0.00000  Uiso   1.00
C828   C     0.98158   0.20125   0.73372   0.00000  Uiso   1.00
C829   C     0.83239   0.08682   0.75231   0.00000  Uiso   1.00
C830   C     0.85874   0.16194   0.64885   0.00000  Uiso   1.00
C831   C     0.92999   0.13143   0.50720   0.00000  Uiso   1.00
C832   C     0.87165   0.14888   0.59279   0.00000  Uiso   1.00
C833   C     0.75183   0.18493   0.93936   0.00000  Uiso   1.00
C834   C     0.74125   0.19031   0.99423   0.00000  Uiso   1.00
C835   C     0.77196   0.17555   0.51999   0.00000  Uiso   1.00
C836   C     0.77636   0.03828   0.85036   0.00000  Uiso   1.00
C837   C     0.82236   0.14562   0.93644   0.00000  Uiso   1.00
C838   C     0.69974   0.09111   0.77891   0.00000  Uiso   1.00
C839   C     0.98008   0.12247   0.97659   0.00000  Uiso   1.00
C840   C     0.79017   0.11361   0.60140   0.00000  Uiso   1.00
C841   C     0.80237   0.07208   0.62192   0.00000  Uiso   1.00
C842   C     0.89543   0.29446   0.65390   0.00000  Uiso   1.00
C843   C     0.84667   0.14114   0.51555   0.00000  Uiso   1.00
C844   C     0.89295   0.13026   0.98386   0.00000  Uiso   1.00
C845   C     0.89893   0.11661   0.93154   0.00000  Uiso   1.00
C846   C     0.86270   0.12187   0.90935   0.00000  Uiso   1.00
C847   C     0.83535   0.13863   0.57076   0.00000  Uiso   1.00
C848   C     0.91913   0.14434   0.56093   0.00000  Uiso   1.00
H849   H     0.94735   0.14939   0.57824   0.00000  Uiso   1.00
H850   H     0.71030   0.20769   0.51645   0.00000  Uiso   1.00
H851   H     0.86781   0.10866   0.87010   0.00000  Uiso   1.00
H852   H     0.72840   0.02936   0.92388   0.00000  Uiso   1.00
H853   H     0.69046   0.04660   0.83561   0.00000  Uiso   1.00
H854   H     0.69955   0.12461   0.90604   0.00000  Uiso   1.00
H855   H     0.82553   0.05362   0.58814   0.00000  Uiso   1.00
H856   H     0.82106   0.07784   0.65145   0.00000  Uiso   1.00
H857   H     0.76941   0.05339   0.64126   0.00000  Uiso   1.00
H858   H     0.76545   0.13156   0.63424   0.00000  Uiso   1.00
H859   H     0.76919   0.10491   0.57463   0.00000  Uiso   1.00
H860   H     0.88414   0.04271   0.67449   0.00000  Uiso   1.00
H861   H     0.95168   0.30184   0.58667   0.00000  Uiso   1.00
H862   H     0.78465   0.29011   0.82770   0.00000  Uiso   1.00
H863   H     0.94716   0.10480   0.77912   0.00000  Uiso   1.00
H864   H     0.71815   0.22916   0.72094   0.00000  Uiso   1.00
H865   H     0.96811   0.22898   0.72044   0.00000  Uiso   1.00
H866   H     0.93066   0.10112   0.90784   0.00000  Uiso   1.00
H867   H     0.72936   0.19932   0.91934   0.00000  Uiso   1.00
H868   H     0.76445   0.18330   0.56188   0.00000  Uiso   1.00
N869   N     0.71426   0.16668   0.75001   0.00000  Uiso   1.00
N870   N     0.95239   0.16665   0.75000   0.00000  Uiso   1.00
O871   O     0.79512   0.22775   0.75000   0.00000  Uiso   1.00
O872   O     0.74541   0.01300   0.89040   0.00000  Uiso   1.00
O873   O     0.71960   0.06700   0.74296   0.00000  Uiso   1.00
O874   O     0.68432   0.07741   0.83209   0.00000  Uiso   1.00
O875   O     0.67207   0.10611   0.99918   0.00000  Uiso   1.00
O876   O     0.99890   0.13370   0.92256   0.00000  Uiso   1.00
O877   O     0.88787   0.25861   0.64159   0.00000  Uiso   1.00
O878   O     0.93321   0.31804   0.61968   0.00000  Uiso   1.00
O879   O     0.87157   0.22774   0.75000   0.00000  Uiso   1.00
O880   O     0.77613   0.16666   0.82681   0.00000  Uiso   1.00
O881   O     0.85258   0.16665   0.82681   0.00000  Uiso   1.00
O882   O     0.79510   0.10559   0.74999   0.00000  Uiso   1.00
O883   O     0.87154   0.10558   0.74999   0.00000  Uiso   1.00
O884   O     0.81409   0.16668   0.67319   0.00000  Uiso   1.00
O885   O     0.89053   0.16667   0.67319   0.00000  Uiso   1.00
O886   O     0.78051   0.07555   0.85902   0.00000  Uiso   1.00
Zn887  Zn    0.78229   0.16667   0.75000   0.00000  Uiso   1.00
Zn888  Zn    0.88438   0.16666   0.75000   0.00000  Uiso   1.00
C889   C     0.16750   0.57979   0.74851   0.00000  Uiso   1.00
C890   C     0.12578   0.49666   0.91007   0.00000  Uiso   1.00
C891   C     0.19752   0.64703   0.70417   0.00000  Uiso   1.00
C892   C     0.14079   0.49883   0.85176   0.00000  Uiso   1.00
C893   C     0.19586   0.35686   0.70773   0.00000  Uiso   1.00
C894   C     0.16552   0.37590   0.75323   0.00000  Uiso   1.00
C895   C     0.13778   0.35270   0.79828   0.00000  Uiso   1.00
C896   C     0.13890   0.64284   0.79431   0.00000  Uiso   1.00
C897   C     0.16820   0.62391   0.74821   0.00000  Uiso   1.00
C898   C     0.30331   0.46567   0.76640   0.00000  Uiso   1.00
C899   C     0.01767   0.46506   0.76553   0.00000  Uiso   1.00
C900   C     0.14616   0.48645   0.99142   0.00000  Uiso   1.00
C901   C     0.02929   0.53469   0.73402   0.00000  Uiso   1.00
C902   C     0.31491   0.53459   0.73372   0.00000  Uiso   1.00
C903   C     0.16572   0.42016   0.75231   0.00000  Uiso   1.00
C904   C     0.19208   0.49527   0.64885   0.00000  Uiso   1.00
C905   C     0.26333   0.46477   0.50720   0.00000  Uiso   1.00
C906   C     0.20499   0.48221   0.59279   0.00000  Uiso   1.00
C907   C     0.08516   0.51826   0.93936   0.00000  Uiso   1.00
C908   C     0.07458   0.52365   0.99423   0.00000  Uiso   1.00
C909   C     0.10530   0.50888   0.51999   0.00000  Uiso   1.00
C910   C     0.10969   0.37161   0.85036   0.00000  Uiso   1.00
C911   C     0.15570   0.47895   0.93644   0.00000  Uiso   1.00
C912   C     0.03307   0.42444   0.77891   0.00000  Uiso   1.00
C913   C     0.31341   0.45580   0.97659   0.00000  Uiso   1.00
C914   C     0.12351   0.44694   0.60140   0.00000  Uiso   1.00
C915   C     0.13570   0.40541   0.62192   0.00000  Uiso   1.00
C916   C     0.22876   0.62780   0.65390   0.00000  Uiso   1.00
C917   C     0.18001   0.47447   0.51555   0.00000  Uiso   1.00
C918   C     0.22628   0.46359   0.98386   0.00000  Uiso   1.00
C919   C     0.23227   0.44994   0.93154   0.00000  Uiso   1.00
C920   C     0.19603   0.45521   0.90935   0.00000  Uiso   1.00
C921   C     0.16869   0.47196   0.57076   0.00000  Uiso   1.00
C922   C     0.25246   0.47767   0.56093   0.00000  Uiso   1.00
H923   H     0.28068   0.48273   0.57824   0.00000  Uiso   1.00
H924   H     0.04364   0.54102   0.51645   0.00000  Uiso   1.00
H925   H     0.20114   0.44199   0.87010   0.00000  Uiso   1.00
H926   H     0.06174   0.36270   0.92388   0.00000  Uiso   1.00
H927   H     0.02379   0.37993   0.83561   0.00000  Uiso   1.00
H928   H     0.03289   0.45795   0.90604   0.00000  Uiso   1.00
H929   H     0.15886   0.38695   0.58814   0.00000  Uiso   1.00
H930   H     0.15440   0.41117   0.65145   0.00000  Uiso   1.00
H931   H     0.10274   0.38673   0.64126   0.00000  Uiso   1.00
H932   H     0.09878   0.46489   0.63424   0.00000  Uiso   1.00
H933   H     0.10252   0.43824   0.57463   0.00000  Uiso   1.00
H934   H     0.21747   0.37604   0.67449   0.00000  Uiso   1.00
H935   H     0.28502   0.63517   0.58667   0.00000  Uiso   1.00
H936   H     0.11798   0.62344   0.82770   0.00000  Uiso   1.00
H937   H     0.28049   0.43813   0.77912   0.00000  Uiso   1.00
H938   H     0.05148   0.56249   0.72094   0.00000  Uiso   1.00
H939   H     0.30144   0.56231   0.72044   0.00000  Uiso   1.00
H940   H     0.26400   0.43445   0.90784   0.00000  Uiso   1.00
H941   H     0.06269   0.53266   0.91934   0.00000  Uiso   1.00
H942   H     0.09779   0.51664   0.56188   0.00000  Uiso   1.00
N943   N     0.04760   0.50001   0.75001   0.00000  Uiso   1.00
N944   N     0.28573   0.49998   0.75000   0.00000  Uiso   1.00
O945   O     0.12846   0.56108   0.75000   0.00000  Uiso   1.00
O946   O     0.07875   0.34633   0.89040   0.00000  Uiso   1.00
O947   O     0.05293   0.40034   0.74296   0.00000  Uiso   1.00
O948   O     0.01766   0.41075   0.83209   0.00000  Uiso   1.00
O949   O     0.00540   0.43944   0.99918   0.00000  Uiso   1.00
O950   O     0.33223   0.46704   0.92256   0.00000  Uiso   1.00
O951   O     0.22120   0.59194   0.64159   0.00000  Uiso   1.00
O952   O     0.26655   0.65138   0.61968   0.00000  Uiso   1.00
O953   O     0.20490   0.56107   0.75000   0.00000  Uiso   1.00
O954   O     0.10947   0.50000   0.82681   0.00000  Uiso   1.00
O955   O     0.18591   0.49999   0.82681   0.00000  Uiso   1.00
O956   O     0.12843   0.43893   0.74999   0.00000  Uiso   1.00
O957   O     0.20488   0.43892   0.74999   0.00000  Uiso   1.00
O958   O     0.14742   0.50001   0.67319   0.00000  Uiso   1.00
O959   O     0.22387   0.50000   0.67319   0.00000  Uiso   1.00
O960   O     0.11384   0.40888   0.85902   0.00000  Uiso   1.00
Zn961  Zn    0.11562   0.50001   0.75000   0.00000  Uiso   1.00
Zn962  Zn    0.21771   0.49999   0.75000   0.00000  Uiso   1.00
C963   C     0.50084   0.57979   0.74851   0.00000  Uiso   1.00
C964   C     0.45911   0.49666   0.91007   0.00000  Uiso   1.00
C965   C     0.53085   0.64703   0.70417   0.00000  Uiso   1.00
C966   C     0.47412   0.49883   0.85176   0.00000  Uiso   1.00
C967   C     0.52920   0.35686   0.70773   0.00000  Uiso   1.00
C968   C     0.49885   0.37590   0.75323   0.00000  Uiso   1.00
C969   C     0.47112   0.35270   0.79828   0.00000  Uiso   1.00
C970   C     0.47223   0.64284   0.79431   0.00000  Uiso   1.00
C971   C     0.50153   0.62391   0.74821   0.00000  Uiso   1.00
C972   C     0.63664   0.46567   0.76640   0.00000  Uiso   1.00
C973   C     0.35101   0.46506   0.76553   0.00000  Uiso   1.00
C974   C     0.47949   0.48645   0.99142   0.00000  Uiso   1.00
C975   C     0.36263   0.53469   0.73402   0.00000  Uiso   1.00
C976   C     0.64824   0.53459   0.73372   0.00000  Uiso   1.00
C977   C     0.49905   0.42016   0.75231   0.00000  Uiso   1.00
C978   C     0.52541   0.49527   0.64885   0.00000  Uiso   1.00
C979   C     0.59666   0.46477   0.50720   0.00000  Uiso   1.00
C980   C     0.53832   0.48221   0.59279   0.00000  Uiso   1.00
C981   C     0.41849   0.51826   0.93936   0.00000  Uiso   1.00
C982   C     0.40791   0.52365   0.99423   0.00000  Uiso   1.00
C983   C     0.43863   0.50888   0.51999   0.00000  Uiso   1.00
C984   C     0.44303   0.37161   0.85036   0.00000  Uiso   1.00
C985   C     0.48903   0.47895   0.93644   0.00000  Uiso   1.00
C986   C     0.36640   0.42444   0.77891   0.00000  Uiso   1.00
C987   C     0.64675   0.45580   0.97659   0.00000  Uiso   1.00
C988   C     0.45684   0.44694   0.60140   0.00000  Uiso   1.00
C989   C     0.46903   0.40541   0.62192   0.00000  Uiso   1.00
C990   C     0.56210   0.62780   0.65390   0.00000  Uiso   1.00
C991   C     0.51334   0.47447   0.51555   0.00000  Uiso   1.00
C992   C     0.55962   0.46359   0.98386   0.00000  Uiso   1.00
C993   C     0.56560   0.44994   0.93154   0.00000  Uiso   1.00
C994   C     0.52937   0.45521   0.90935   0.00000  Uiso   1.00
C995   C     0.50202   0.47196   0.57076   0.00000  Uiso   1.00
C996   C     0.58579   0.47767   0.56093   0.00000  Uiso   1.00
H997   H     0.61402   0.48273   0.57824   0.00000  Uiso   1.00
H998   H     0.37697   0.54102   0.51645   0.00000  Uiso   1.00
H999   H     0.53447   0.44199   0.87010   0.00000  Uiso   1.00
H1000  H     0.39507   0.36270   0.92388   0.00000  Uiso   1.00
H1001  H     0.35712   0.37993   0.83561   0.00000  Uiso   1.00
H1002  H     0.36622   0.45795   0.90604   0.00000  Uiso   1.00
H1003  H     0.49219   0.38695   0.58814   0.00000  Uiso   1.00
H1004  H     0.48773   0.41117   0.65145   0.00000  Uiso   1.00
H1005  H     0.43607   0.38673   0.64126   0.00000  Uiso   1.00
H1006  H     0.43211   0.46489   0.63424   0.00000  Uiso   1.00
H1007  H     0.43585   0.43824   0.57463   0.00000  Uiso   1.00
H1008  H     0.55081   0.37604   0.67449   0.00000  Uiso   1.00
H1009  H     0.61835   0.63517   0.58667   0.00000  Uiso   1.00
H1010  H     0.45131   0.62344   0.82770   0.00000  Uiso   1.00
H1011  H     0.61382   0.43813   0.77912   0.00000  Uiso   1.00
H1012  H     0.38482   0.56249   0.72094   0.00000  Uiso   1.00
H1013  H     0.63478   0.56231   0.72044   0.00000  Uiso   1.00
H1014  H     0.59733   0.43445   0.90784   0.00000  Uiso   1.00
H1015  H     0.39602   0.53266   0.91934   0.00000  Uiso   1.00
H1016  H     0.43112   0.51664   0.56188   0.00000  Uiso   1.00
N1017  N     0.38093   0.50001   0.75001   0.00000  Uiso   1.00
N1018  N     0.61906   0.49998   0.75000   0.00000  Uiso   1.00
O1019  O     0.46179   0.56108   0.75000   0.00000  Uiso   1.00
O1020  O     0.41208   0.34633   0.89040   0.00000  Uiso   1.00
O1021  O     0.38626   0.40034   0.74296   0.00000  Uiso   1.00
O1022  O     0.35099   0.41075   0.83209   0.00000  Uiso   1.00
O1023  O     0.33873   0.43944   0.99918   0.00000  Uiso   1.00
O1024  O     0.66557   0.46704   0.92256   0.00000  Uiso   1.00
O1025  O     0.55453   0.59194   0.64159   0.00000  Uiso   1.00
O1026  O     0.59988   0.65138   0.61968   0.00000  Uiso   1.00
O1027  O     0.53823   0.56107   0.75000   0.00000  Uiso   1.00
O1028  O     0.44280   0.50000   0.82681   0.00000  Uiso   1.00
O1029  O     0.51924   0.49999   0.82681   0.00000  Uiso   1.00
O1030  O     0.46177   0.43893   0.74999   0.00000  Uiso   1.00
O1031  O     0.53821   0.43892   0.74999   0.00000  Uiso   1.00
O1032  O     0.48076   0.50001   0.67319   0.00000  Uiso   1.00
O1033  O     0.55720   0.50000   0.67319   0.00000  Uiso   1.00
O1034  O     0.44717   0.40888   0.85902   0.00000  Uiso   1.00
Zn1035 Zn    0.44896   0.50001   0.75000   0.00000  Uiso   1.00
Zn1036 Zn    0.55104   0.49999   0.75000   0.00000  Uiso   1.00
C1037  C     0.83417   0.57979   0.74851   0.00000  Uiso   1.00
C1038  C     0.79244   0.49666   0.91007   0.00000  Uiso   1.00
C1039  C     0.86419   0.64703   0.70417   0.00000  Uiso   1.00
C1040  C     0.80746   0.49883   0.85176   0.00000  Uiso   1.00
C1041  C     0.86253   0.35686   0.70773   0.00000  Uiso   1.00
C1042  C     0.83219   0.37590   0.75323   0.00000  Uiso   1.00
C1043  C     0.80445   0.35270   0.79828   0.00000  Uiso   1.00
C1044  C     0.80556   0.64284   0.79431   0.00000  Uiso   1.00
C1045  C     0.83486   0.62391   0.74821   0.00000  Uiso   1.00
C1046  C     0.96998   0.46567   0.76640   0.00000  Uiso   1.00
C1047  C     0.68434   0.46506   0.76553   0.00000  Uiso   1.00
C1048  C     0.81282   0.48645   0.99142   0.00000  Uiso   1.00
C1049  C     0.69596   0.53469   0.73402   0.00000  Uiso   1.00
C1050  C     0.98158   0.53459   0.73372   0.00000  Uiso   1.00
C1051  C     0.83239   0.42016   0.75231   0.00000  Uiso   1.00
C1052  C     0.85874   0.49527   0.64885   0.00000  Uiso   1.00
C1053  C     0.92999   0.46477   0.50720   0.00000  Uiso   1.00
C1054  C     0.87165   0.48221   0.59279   0.00000  Uiso   1.00
C1055  C     0.75183   0.51826   0.93936   0.00000  Uiso   1.00
C1056  C     0.74125   0.52365   0.99423   0.00000  Uiso   1.00
C1057  C     0.77196   0.50888   0.51999   0.00000  Uiso   1.00
C1058  C     0.77636   0.37161   0.85036   0.00000  Uiso   1.00
C1059  C     0.82236   0.47895   0.93644   0.00000  Uiso   1.00
C1060  C     0.69974   0.42444   0.77891   0.00000  Uiso   1.00
C1061  C     0.98008   0.45580   0.97659   0.00000  Uiso   1.00
C1062  C     0.79017   0.44694   0.60140   0.00000  Uiso   1.00
C1063  C     0.80237   0.40541   0.62192   0.00000  Uiso   1.00
C1064  C     0.89543   0.62780   0.65390   0.00000  Uiso   1.00
C1065  C     0.84667   0.47447   0.51555   0.00000  Uiso   1.00
C1066  C     0.89295   0.46359   0.98386   0.00000  Uiso   1.00
C1067  C     0.89893   0.44994   0.93154   0.00000  Uiso   1.00
C1068  C     0.86270   0.45521   0.90935   0.00000  Uiso   1.00
C1069  C     0.83535   0.47196   0.57076   0.00000  Uiso   1.00
C1070  C     0.91913   0.47767   0.56093   0.00000  Uiso   1.00
H1071  H     0.94735   0.48273   0.57824   0.00000  Uiso   1.00
H1072  H     0.71030   0.54102   0.51645   0.00000  Uiso   1.00
H1073  H     0.86781   0.44199   0.87010   0.00000  Uiso   1.00
H1074  H     0.72840   0.36270   0.92388   0.00000  Uiso   1.00
H1075  H     0.69046   0.37993   0.83561   0.00000  Uiso   1.00
H1076  H     0.69955   0.45795   0.90604   0.00000  Uiso   1.00
H1077  H     0.82553   0.38695   0.58814   0.00000  Uiso   1.00
H1078  H     0.82106   0.41117   0.65145   0.00000  Uiso   1.00
H1079  H     0.76941   0.38673   0.64126   0.00000  Uiso   1.00
H1080  H     0.76545   0.46489   0.63424   0.00000  Uiso   1.00
H1081  H     0.76919   0.43824   0.57463   0.00000  Uiso   1.00
H1082  H     0.88414   0.37604   0.67449   0.00000  Uiso   1.00
H1083  H     0.95168   0.63517   0.58667   0.00000  Uiso   1.00
H1084  H     0.78465   0.62344   0.82770   0.00000  Uiso   1.00
H1085  H     0.94716   0.43813   0.77912   0.00000  Uiso   1.00
H1086  H     0.71815   0.56249   0.72094   0.00000  Uiso   1.00
H1087  H     0.96811   0.56231   0.72044   0.00000  Uiso   1.00
H1088  H     0.93066   0.43445   0.90784   0.00000  Uiso   1.00
H1089  H     0.72936   0.53266   0.91934   0.00000  Uiso   1.00
H1090  H     0.76445   0.51664   0.56188   0.00000  Uiso   1.00
N1091  N     0.71426   0.50001   0.75001   0.00000  Uiso   1.00
N1092  N     0.95239   0.49998   0.75000   0.00000  Uiso   1.00
O1093  O     0.79512   0.56108   0.75000   0.00000  Uiso   1.00
O1094  O     0.74541   0.34633   0.89040   0.00000  Uiso   1.00
O1095  O     0.71960   0.40034   0.74296   0.00000  Uiso   1.00
O1096  O     0.68432   0.41075   0.83209   0.00000  Uiso   1.00
O1097  O     0.67207   0.43944   0.99918   0.00000  Uiso   1.00
O1098  O     0.99890   0.46704   0.92256   0.00000  Uiso   1.00
O1099  O     0.88787   0.59194   0.64159   0.00000  Uiso   1.00
O1100  O     0.93321   0.65138   0.61968   0.00000  Uiso   1.00
O1101  O     0.87157   0.56107   0.75000   0.00000  Uiso   1.00
O1102  O     0.77613   0.50000   0.82681   0.00000  Uiso   1.00
O1103  O     0.85258   0.49999   0.82681   0.00000  Uiso   1.00
O1104  O     0.79510   0.43893   0.74999   0.00000  Uiso   1.00
O1105  O     0.87154   0.43892   0.74999   0.00000  Uiso   1.00
O1106  O     0.81409   0.50001   0.67319   0.00000  Uiso   1.00
O1107  O     0.89053   0.50000   0.67319   0.00000  Uiso   1.00
O1108  O     0.78051   0.40888   0.85902   0.00000  Uiso   1.00
Zn1109 Zn    0.78229   0.50001   0.75000   0.00000  Uiso   1.00
Zn1110 Zn    0.88438   0.49999   0.75000   0.00000  Uiso   1.00
C1111  C     0.16750   0.91313   0.74851   0.00000  Uiso   1.00
C1112  C     0.12578   0.82999   0.91007   0.00000  Uiso   1.00
C1113  C     0.19752   0.98036   0.70417   0.00000  Uiso   1.00
C1114  C     0.14079   0.83216   0.85176   0.00000  Uiso   1.00
C1115  C     0.19586   0.69019   0.70773   0.00000  Uiso   1.00
C1116  C     0.16552   0.70924   0.75323   0.00000  Uiso   1.00
C1117  C     0.13778   0.68603   0.79828   0.00000  Uiso   1.00
C1118  C     0.13890   0.97618   0.79431   0.00000  Uiso   1.00
C1119  C     0.16820   0.95725   0.74821   0.00000  Uiso   1.00
C1120  C     0.30331   0.79901   0.76640   0.00000  Uiso   1.00
C1121  C     0.01767   0.79840   0.76553   0.00000  Uiso   1.00
C1122  C     0.14616   0.81978   0.99142   0.00000  Uiso   1.00
C1123  C     0.02929   0.86803   0.73402   0.00000  Uiso   1.00
C1124  C     0.31491   0.86792   0.73372   0.00000  Uiso   1.00
C1125  C     0.16572   0.75349   0.75231   0.00000  Uiso   1.00
C1126  C     0.19208   0.82861   0.64885   0.00000  Uiso   1.00
C1127  C     0.26333   0.79810   0.50720   0.00000  Uiso   1.00
C1128  C     0.20499   0.81555   0.59279   0.00000  Uiso   1.00
C1129  C     0.08516   0.85160   0.93936   0.00000  Uiso   1.00
C1130  C     0.07458   0.85698   0.99423   0.00000  Uiso   1.00
C1131  C     0.10530   0.84221   0.51999   0.00000  Uiso   1.00
C1132  C     0.10969   0.70495   0.85036   0.00000  Uiso   1.00
C1133  C     0.15570   0.81229   0.93644   0.00000  Uiso   1.00
C1134  C     0.03307   0.75778   0.77891   0.00000  Uiso   1.00
C1135  C     0.31341   0.78914   0.97659   0.00000  Uiso   1.00
C1136  C     0.12351   0.78027   0.60140   0.00000  Uiso   1.00
C1137  C     0.13570   0.73874   0.62192   0.00000  Uiso   1.00
C1138  C     0.22876   0.96113   0.65390   0.00000  Uiso   1.00
C1139  C     0.18001   0.80780   0.51555   0.00000  Uiso   1.00
C1140  C     0.22628   0.79693   0.98386   0.00000  Uiso   1.00
C1141  C     0.23227   0.78328   0.93154   0.00000  Uiso   1.00
C1142  C     0.19603   0.78854   0.90935   0.00000  Uiso   1.00
C1143  C     0.16869   0.80530   0.57076   0.00000  Uiso   1.00
C1144  C     0.25246   0.81101   0.56093   0.00000  Uiso   1.00
H1145  H     0.28068   0.81606   0.57824   0.00000  Uiso   1.00
H1146  H     0.04364   0.87436   0.51645   0.00000  Uiso   1.00
H1147  H     0.20114   0.77532   0.87010   0.00000  Uiso   1.00
H1148  H     0.06174   0.69603   0.92388   0.00000  Uiso   1.00
H1149  H     0.02379   0.71326   0.83561   0.00000  Uiso   1.00
H1150  H     0.03289   0.79128   0.90604   0.00000  Uiso   1.00
H1151  H     0.15886   0.72028   0.58814   0.00000  Uiso   1.00
H1152  H     0.15440   0.74451   0.65145   0.00000  Uiso   1.00
H1153  H     0.10274   0.72006   0.64126   0.00000  Uiso   1.00
H1154  H     0.09878   0.79823   0.63424   0.00000  Uiso   1.00
H1155  H     0.10252   0.77157   0.57463   0.00000  Uiso   1.00
H1156  H     0.21747   0.70938   0.67449   0.00000  Uiso   1.00
H1157  H     0.28502   0.96851   0.58667   0.00000  Uiso   1.00
H1158  H     0.11798   0.95678   0.82770   0.00000  Uiso   1.00
H1159  H     0.28049   0.77146   0.77912   0.00000  Uiso   1.00
H1160  H     0.05148   0.89582   0.72094   0.00000  Uiso   1.00
H1161  H     0.30144   0.89564   0.72044   0.00000  Uiso   1.00
H1162  H     0.26400   0.76779   0.90784   0.00000  Uiso   1.00
H1163  H     0.06269   0.86599   0.91934   0.00000  Uiso   1.00
H1164  H     0.09779   0.84997   0.56188   0.00000  Uiso   1.00
N1165  N     0.04760   0.83334   0.75001   0.00000  Uiso   1.00
N1166  N     0.28573   0.83331   0.75000   0.00000  Uiso   1.00
O1167  O     0.12846   0.89442   0.75000   0.00000  Uiso   1.00
O1168  O     0.07875   0.67966   0.89040   0.00000  Uiso   1.00
O1169  O     0.05293   0.73367   0.74296   0.00000  Uiso   1.00
O1170  O     0.01766   0.74408   0.83209   0.00000  Uiso   1.00
O1171  O     0.00540   0.77277   0.99918   0.00000  Uiso   1.00
O1172  O     0.33223   0.80037   0.92256   0.00000  Uiso   1.00
O1173  O     0.22120   0.92528   0.64159   0.00000  Uiso   1.00
O1174  O     0.26655   0.98471   0.61968   0.00000  Uiso   1.00
O1175  O     0.20490   0.89441   0.75000   0.00000  Uiso   1.00
O1176  O     0.10947   0.83333   0.82681   0.00000  Uiso   1.00
O1177  O     0.18591   0.83332   0.82681   0.00000  Uiso   1.00
O1178  O     0.12843   0.77226   0.74999   0.00000  Uiso   1.00
O1179  O     0.20488   0.77225   0.74999   0.00000  Uiso   1.00
O1180  O     0.14742   0.83335   0.67319   0.00000  Uiso   1.00
O1181  O     0.22387   0.83334   0.67319   0.00000  Uiso   1.00
O1182  O     0.11384   0.74222   0.85902   0.00000  Uiso   1.00
Zn1183 Zn    0.11562   0.83334   0.75000   0.00000  Uiso   1.00
Zn1184 Zn    0.21771   0.83333   0.75000   0.00000  Uiso   1.00
C1185  C     0.50084   0.91313   0.74851   0.00000  Uiso   1.00
C1186  C     0.45911   0.82999   0.91007   0.00000  Uiso   1.00
C1187  C     0.53085   0.98036   0.70417   0.00000  Uiso   1.00
C1188  C     0.47412   0.83216   0.85176   0.00000  Uiso   1.00
C1189  C     0.52920   0.69019   0.70773   0.00000  Uiso   1.00
C1190  C     0.49885   0.70924   0.75323   0.00000  Uiso   1.00
C1191  C     0.47112   0.68603   0.79828   0.00000  Uiso   1.00
C1192  C     0.47223   0.97618   0.79431   0.00000  Uiso   1.00
C1193  C     0.50153   0.95725   0.74821   0.00000  Uiso   1.00
C1194  C     0.63664   0.79901   0.76640   0.00000  Uiso   1.00
C1195  C     0.35101   0.79840   0.76553   0.00000  Uiso   1.00
C1196  C     0.47949   0.81978   0.99142   0.00000  Uiso   1.00
C1197  C     0.36263   0.86803   0.73402   0.00000  Uiso   1.00
C1198  C     0.64824   0.86792   0.73372   0.00000  Uiso   1.00
C1199  C     0.49905   0.75349   0.75231   0.00000  Uiso   1.00
C1200  C     0.52541   0.82861   0.64885   0.00000  Uiso   1.00
C1201  C     0.59666   0.79810   0.50720   0.00000  Uiso   1.00
C1202  C     0.53832   0.81555   0.59279   0.00000  Uiso   1.00
C1203  C     0.41849   0.85160   0.93936   0.00000  Uiso   1.00
C1204  C     0.40791   0.85698   0.99423   0.00000  Uiso   1.00
C1205  C     0.43863   0.84221   0.51999   0.00000  Uiso   1.00
C1206  C     0.44303   0.70495   0.85036   0.00000  Uiso   1.00
C1207  C     0.48903   0.81229   0.93644   0.00000  Uiso   1.00
C1208  C     0.36640   0.75778   0.77891   0.00000  Uiso   1.00
C1209  C     0.64675   0.78914   0.97659   0.00000  Uiso   1.00
C1210  C     0.45684   0.78027   0.60140   0.00000  Uiso   1.00
C1211  C     0.46903   0.73874   0.62192   0.00000  Uiso   1.00
C1212  C     0.56210   0.96113   0.65390   0.00000  Uiso   1.00
C1213  C     0.51334   0.80780   0.51555   0.00000  Uiso   1.00
C1214  C     0.55962   0.79693   0.98386   0.00000  Uiso   1.00
C1215  C     0.56560   0.78328   0.93154   0.00000  Uiso   1.00
C1216  C     0.52937   0.78854   0.90935   0.00000  Uiso   1.00
C1217  C     0.50202   0.80530   0.57076   0.00000  Uiso   1.00
C1218  C     0.58579   0.81101   0.56093   0.00000  Uiso   1.00
H1219  H     0.61402   0.81606   0.57824   0.00000  Uiso   1.00
H1220  H     0.37697   0.87436   0.51645   0.00000  Uiso   1.00
H1221  H     0.53447   0.77532   0.87010   0.00000  Uiso   1.00
H1222  H     0.39507   0.69603   0.92388   0.00000  Uiso   1.00
H1223  H     0.35712   0.71326   0.83561   0.00000  Uiso   1.00
H1224  H     0.36622   0.79128   0.90604   0.00000  Uiso   1.00
H1225  H     0.49219   0.72028   0.58814   0.00000  Uiso   1.00
H1226  H     0.48773   0.74451   0.65145   0.00000  Uiso   1.00
H1227  H     0.43607   0.72006   0.64126   0.00000  Uiso   1.00
H1228  H     0.43211   0.79823   0.63424   0.00000  Uiso   1.00
H1229  H     0.43585   0.77157   0.57463   0.00000  Uiso   1.00
H1230  H     0.55081   0.70938   0.67449   0.00000  Uiso   1.00
H1231  H     0.61835   0.96851   0.58667   0.00000  Uiso   1.00
H1232  H     0.45131   0.95678   0.82770   0.00000  Uiso   1.00
H1233  H     0.61382   0.77146   0.77912   0.00000  Uiso   1.00
H1234  H     0.38482   0.89582   0.72094   0.00000  Uiso   1.00
H1235  H     0.63478   0.89564   0.72044   0.00000  Uiso   1.00
H1236  H     0.59733   0.76779   0.90784   0.00000  Uiso   1.00
H1237  H     0.39602   0.86599   0.91934   0.00000  Uiso   1.00
H1238  H     0.43112   0.84997   0.56188   0.00000  Uiso   1.00
N1239  N     0.38093   0.83334   0.75001   0.00000  Uiso   1.00
N1240  N     0.61906   0.83331   0.75000   0.00000  Uiso   1.00
O1241  O     0.46179   0.89442   0.75000   0.00000  Uiso   1.00
O1242  O     0.41208   0.67966   0.89040   0.00000  Uiso   1.00
O1243  O     0.38626   0.73367   0.74296   0.00000  Uiso   1.00
O1244  O     0.35099   0.74408   0.83209   0.00000  Uiso   1.00
O1245  O     0.33873   0.77277   0.99918   0.00000  Uiso   1.00
O1246  O     0.66557   0.80037   0.92256   0.00000  Uiso   1.00
O1247  O     0.55453   0.92528   0.64159   0.00000  Uiso   1.00
O1248  O     0.59988   0.98471   0.61968   0.00000  Uiso   1.00
O1249  O     0.53823   0.89441   0.75000   0.00000  Uiso   1.00
O1250  O     0.44280   0.83333   0.82681   0.00000  Uiso   1.00
O1251  O     0.51924   0.83332   0.82681   0.00000  Uiso   1.00
O1252  O     0.46177   0.77226   0.74999   0.00000  Uiso   1.00
O1253  O     0.53821   0.77225   0.74999   0.00000  Uiso   1.00
O1254  O     0.48076   0.83335   0.67319   0.00000  Uiso   1.00
O1255  O     0.55720   0.83334   0.67319   0.00000  Uiso   1.00
O1256  O     0.44717   0.74222   0.85902   0.00000  Uiso   1.00
Zn1257 Zn    0.44896   0.83334   0.75000   0.00000  Uiso   1.00
Zn1258 Zn    0.55104   0.83333   0.75000   0.00000  Uiso   1.00
C1259  C     0.83417   0.91313   0.74851   0.00000  Uiso   1.00
C1260  C     0.79244   0.82999   0.91007   0.00000  Uiso   1.00
C1261  C     0.86419   0.98036   0.70417   0.00000  Uiso   1.00
C1262  C     0.80746   0.83216   0.85176   0.00000  Uiso   1.00
C1263  C     0.86253   0.69019   0.70773   0.00000  Uiso   1.00
C1264  C     0.83219   0.70924   0.75323   0.00000  Uiso   1.00
C1265  C     0.80445   0.68603   0.79828   0.00000  Uiso   1.00
C1266  C     0.80556   0.97618   0.79431   0.00000  Uiso   1.00
C1267  C     0.83486   0.95725   0.74821   0.00000  Uiso   1.00
C1268  C     0.96998   0.79901   0.76640   0.00000  Uiso   1.00
C1269  C     0.68434   0.79840   0.76553   0.00000  Uiso   1.00
C1270  C     0.81282   0.81978   0.99142   0.00000  Uiso   1.00
C1271  C     0.69596   0.86803   0.73402   0.00000  Uiso   1.00
C1272  C     0.98158   0.86792   0.73372   0.00000  Uiso   1.00
C1273  C     0.83239   0.75349   0.75231   0.00000  Uiso   1.00
C1274  C     0.85874   0.82861   0.64885   0.00000  Uiso   1.00
C1275  C     0.92999   0.79810   0.50720   0.00000  Uiso   1.00
C1276  C     0.87165   0.81555   0.59279   0.00000  Uiso   1.00
C1277  C     0.75183   0.85160   0.93936   0.00000  Uiso   1.00
C1278  C     0.74125   0.85698   0.99423   0.00000  Uiso   1.00
C1279  C     0.77196   0.84221   0.51999   0.00000  Uiso   1.00
C1280  C     0.77636   0.70495   0.85036   0.00000  Uiso   1.00
C1281  C     0.82236   0.81229   0.93644   0.00000  Uiso   1.00
C1282  C     0.69974   0.75778   0.77891   0.00000  Uiso   1.00
C1283  C     0.98008   0.78914   0.97659   0.00000  Uiso   1.00
C1284  C     0.79017   0.78027   0.60140   0.00000  Uiso   1.00
C1285  C     0.80237   0.73874   0.62192   0.00000  Uiso   1.00
C1286  C     0.89543   0.96113   0.65390   0.00000  Uiso   1.00
C1287  C     0.84667   0.80780   0.51555   0.00000  Uiso   1.00
C1288  C     0.89295   0.79693   0.98386   0.00000  Uiso   1.00
C1289  C     0.89893   0.78328   0.93154   0.00000  Uiso   1.00
C1290  C     0.86270   0.78854   0.90935   0.00000  Uiso   1.00
C1291  C     0.83535   0.80530   0.57076   0.00000  Uiso   1.00
C1292  C     0.91913   0.81101   0.56093   0.00000  Uiso   1.00
H1293  H     0.94735   0.81606   0.57824   0.00000  Uiso   1.00
H1294  H     0.71030   0.87436   0.51645   0.00000  Uiso   1.00
H1295  H     0.86781   0.77532   0.87010   0.00000  Uiso   1.00
H1296  H     0.72840   0.69603   0.92388   0.00000  Uiso   1.00
H1297  H     0.69046   0.71326   0.83561   0.00000  Uiso   1.00
H1298  H     0.69955   0.79128   0.90604   0.00000  Uiso   1.00
H1299  H     0.82553   0.72028   0.58814   0.00000  Uiso   1.00
H1300  H     0.82106   0.74451   0.65145   0.00000  Uiso   1.00
H1301  H     0.76941   0.72006   0.64126   0.00000  Uiso   1.00
H1302  H     0.76545   0.79823   0.63424   0.00000  Uiso   1.00
H1303  H     0.76919   0.77157   0.57463   0.00000  Uiso   1.00
H1304  H     0.88414   0.70938   0.67449   0.00000  Uiso   1.00
H1305  H     0.95168   0.96851   0.58667   0.00000  Uiso   1.00
H1306  H     0.78465   0.95678   0.82770   0.00000  Uiso   1.00
H1307  H     0.94716   0.77146   0.77912   0.00000  Uiso   1.00
H1308  H     0.71815   0.89582   0.72094   0.00000  Uiso   1.00
H1309  H     0.96811   0.89564   0.72044   0.00000  Uiso   1.00
H1310  H     0.93066   0.76779   0.90784   0.00000  Uiso   1.00
H1311  H     0.72936   0.86599   0.91934   0.00000  Uiso   1.00
H1312  H     0.76445   0.84997   0.56188   0.00000  Uiso   1.00
N1313  N     0.71426   0.83334   0.75001   0.00000  Uiso   1.00
N1314  N     0.95239   0.83331   0.75000   0.00000  Uiso   1.00
O1315  O     0.79512   0.89442   0.75000   0.00000  Uiso   1.00
O1316  O     0.74541   0.67966   0.89040   0.00000  Uiso   1.00
O1317  O     0.71960   0.73367   0.74296   0.00000  Uiso   1.00
O1318  O     0.68432   0.74408   0.83209   0.00000  Uiso   1.00
O1319  O     0.67207   0.77277   0.99918   0.00000  Uiso   1.00
O1320  O     0.99890   0.80037   0.92256   0.00000  Uiso   1.00
O1321  O     0.88787   0.92528   0.64159   0.00000  Uiso   1.00
O1322  O     0.93321   0.98471   0.61968   0.00000  Uiso   1.00
O1323  O     0.87157   0.89441   0.75000   0.00000  Uiso   1.00
O1324  O     0.77613   0.83333   0.82681   0.00000  Uiso   1.00
O1325  O     0.85258   0.83332   0.82681   0.00000  Uiso   1.00
O1326  O     0.79510   0.77226   0.74999   0.00000  Uiso   1.00
O1327  O     0.87154   0.77225   0.74999   0.00000  Uiso   1.00
O1328  O     0.81409   0.83335   0.67319   0.00000  Uiso   1.00
O1329  O     0.89053   0.83334   0.67319   0.00000  Uiso   1.00
O1330  O     0.78051   0.74222   0.85902   0.00000  Uiso   1.00
Zn1331 Zn    0.78229   0.83334   0.75000   0.00000  Uiso   1.00
Zn1332 Zn    0.88438   0.83333   0.75000   0.00000  Uiso   1.00
loop_
_geom_bond_atom_site_label_1
_geom_bond_atom_site_label_2
_geom_bond_distance
_geom_bond_site_symmetry_2
_ccdc_geom_bond_type
C1     O57     1.282   .     A
C1     C9      1.406   .     S
C1     O65     1.285   .     A
C2     C4      1.456   .     S
C2     C23     1.418   .     A
C2     C19     1.402   .     A
C3     C9      1.406   .     A
C3     C28     1.492   .     S
C3     C227    1.379   .     S
C4     O67     1.291   .     A
C4     O66     1.301   .     A
C5     H46     1.086   .     S
C5     C6      1.395   .     A
C5     C447    1.379   1_545 S
C6     C7      1.409   .     A
C6     C15     1.410   .     S
C7     C22     1.492   .     S
C7     C452    1.380   1_545 S
C8     H48     1.086   .     S
C8     C9      1.392   .     A
C8     C229    1.380   .     S
C10    N56     1.352   .     A
C10    H49     1.083   .     S
C10    C85     1.411   .     S
C11    N55     1.387   .     A
C11    C24     1.463   .     S
C11    C158    1.411   1_455 S
C12    C23     1.404   .     A
C12    C687    1.416   .     S
C12    C695    1.410   .     S
C13    H50     1.081   .     S
C13    N55     1.368   .     A
C13    C162    1.421   1_455 S
C14    N56     1.369   .     A
C14    H51     1.082   .     S
C14    C87     1.421   .     S
C15    O68     1.290   .     A
C15    O69     1.280   .     A
C16    O71     1.306   .     A
C16    O70     1.289   .     A
C16    C18     1.463   .     S
C17    C34     1.409   .     A
C17    C691    1.483   1_554 S
C17    C696    1.422   1_554 S
C18    C34     1.403   .     A
C18    C33     1.411   .     A
C19    C20     1.388   .     A
C19    H53     1.083   .     S
C20    C687    1.390   .     S
C20    H702    1.083   .     S
C21    H54     1.082   .     S
C21    C678    1.416   1_554 S
C21    C686    1.390   1_554 S
C22    O58     1.400   .     S
C22    O72     1.220   .     D
C23    C32     1.418   .     A
C24    O60     1.394   .     S
C24    O59     1.222   .     D
C25    O62     1.396   .     S
C25    C683    1.483   .     S
C25    O135    1.223   .     S
C26    C33     1.534   .     S
C26    C27     1.525   .     S
C26    H44     1.107   .     S
C26    H45     1.111   .     S
C27    H41     1.111   .     S
C27    H42     1.103   .     S
C27    H43     1.109   .     S
C28    O64     1.399   .     S
C28    O63     1.222   .     D
C29    C33     1.385   .     A
C29    C678    1.410   1_554 S
C29    C696    1.413   1_554 S
C30    C31     1.400   .     A
C30    C683    1.422   .     S
C30    C695    1.413   .     S
C31    H52     1.080   .     S
C31    C32     1.393   .     A
C32    H37     1.081   .     S
C34    H35     1.084   .     S
H36    C686    1.083   1_554 S
H38    O58     1.014   .     S
H39    O60     1.013   .     S
H40    O210    1.013   1_455 S
H47    O64     1.014   .     S
N55    Zn73    2.022   .     S
N56    Zn74    2.022   .     S
O57    Zn73    1.975   .     S
O61    C173    1.223   1_455 S
O62    H114    1.013   .     S
O65    Zn74    1.991   .     S
O66    Zn73    1.971   .     S
O67    Zn74    1.939   .     S
O68    Zn73    1.991   .     S
O69    Zn74    1.975   .     S
O70    Zn73    1.939   .     S
O71    Zn74    1.971   .     S
C75    O131    1.282   .     A
C75    C83     1.406   .     S
C75    O139    1.285   .     A
C76    C78     1.456   .     S
C76    C97     1.418   .     A
C76    C93     1.402   .     A
C77    C83     1.406   .     A
C77    C102    1.492   .     S
C77    C301    1.379   .     S
C78    O141    1.291   .     A
C78    O140    1.301   .     A
C79    H120    1.086   .     S
C79    C80     1.395   .     A
C79    C521    1.379   1_545 S
C80    C81     1.409   .     A
C80    C89     1.410   .     S
C81    C96     1.492   .     S
C81    C526    1.380   1_545 S
C82    H122    1.086   .     S
C82    C83     1.392   .     A
C82    C303    1.380   .     S
C84    N130    1.352   .     A
C84    H123    1.083   .     S
C84    C159    1.411   .     S
C85    N129    1.387   .     A
C85    C98     1.463   .     S
C86    C97     1.404   .     A
C86    C761    1.416   .     S
C86    C769    1.410   .     S
C87    H124    1.081   .     S
C87    N129    1.368   .     A
C88    N130    1.369   .     A
C88    H125    1.082   .     S
C88    C161    1.421   .     S
C89    O142    1.290   .     A
C89    O143    1.280   .     A
C90    O145    1.306   .     A
C90    O144    1.289   .     A
C90    C92     1.463   .     S
C91    C108    1.409   .     A
C91    C765    1.483   1_554 S
C91    C770    1.422   1_554 S
C92    C108    1.403   .     A
C92    C107    1.411   .     A
C93    C94     1.388   .     A
C93    H127    1.083   .     S
C94    C761    1.390   .     S
C94    H776    1.083   .     S
C95    H128    1.082   .     S
C95    C752    1.416   1_554 S
C95    C760    1.390   1_554 S
C96    O132    1.400   .     S
C96    O146    1.220   .     D
C97    C106    1.418   .     A
C98    O134    1.394   .     S
C98    O133    1.222   .     D
C99    O136    1.396   .     S
C99    C757    1.483   .     S
C99    O209    1.223   .     S
C100   C107    1.534   .     S
C100   C101    1.525   .     S
C100   H118    1.107   .     S
C100   H119    1.111   .     S
C101   H115    1.111   .     S
C101   H116    1.103   .     S
C101   H117    1.109   .     S
C102   O138    1.399   .     S
C102   O137    1.222   .     D
C103   C107    1.385   .     A
C103   C752    1.410   1_554 S
C103   C770    1.413   1_554 S
C104   C105    1.400   .     A
C104   C757    1.422   .     S
C104   C769    1.413   .     S
C105   H126    1.080   .     S
C105   C106    1.393   .     A
C106   H111    1.081   .     S
C108   H109    1.084   .     S
H110   C760    1.083   1_554 S
H112   O132    1.014   .     S
H113   O134    1.013   .     S
H121   O138    1.014   .     S
N129   Zn147   2.022   .     S
N130   Zn148   2.022   .     S
O131   Zn147   1.975   .     S
O136   H188    1.013   .     S
O139   Zn148   1.991   .     S
O140   Zn147   1.971   .     S
O141   Zn148   1.939   .     S
O142   Zn147   1.991   .     S
O143   Zn148   1.975   .     S
O144   Zn147   1.939   .     S
O145   Zn148   1.971   .     S
C149   O205    1.282   .     A
C149   C157    1.406   .     S
C149   O213    1.285   .     A
C150   C152    1.456   .     S
C150   C171    1.418   .     A
C150   C167    1.402   .     A
C151   C157    1.406   .     A
C151   C176    1.492   .     S
C151   C375    1.379   .     S
C152   O215    1.291   .     A
C152   O214    1.301   .     A
C153   H194    1.086   .     S
C153   C154    1.395   .     A
C153   C595    1.379   1_545 S
C154   C155    1.409   .     A
C154   C163    1.410   .     S
C155   C170    1.492   .     S
C155   C600    1.380   1_545 S
C156   H196    1.086   .     S
C156   C157    1.392   .     A
C156   C377    1.380   .     S
C158   N204    1.352   .     A
C158   H197    1.083   .     S
C158   C11     1.411   1_655 S
C159   N203    1.387   .     A
C159   C172    1.463   .     S
C160   C171    1.404   .     A
C160   C835    1.416   .     S
C160   C843    1.410   .     S
C161   H198    1.081   .     S
C161   N203    1.368   .     A
C162   N204    1.369   .     A
C162   H199    1.082   .     S
C162   C13     1.421   1_655 S
C163   O216    1.290   .     A
C163   O217    1.280   .     A
C164   O219    1.306   .     A
C164   O218    1.289   .     A
C164   C166    1.463   .     S
C165   C182    1.409   .     A
C165   C839    1.483   1_554 S
C165   C844    1.422   1_554 S
C166   C182    1.403   .     A
C166   C181    1.411   .     A
C167   C168    1.388   .     A
C167   H201    1.083   .     S
C168   C835    1.390   .     S
C168   H850    1.083   .     S
C169   H202    1.082   .     S
C169   C826    1.416   1_554 S
C169   C834    1.390   1_554 S
C170   O206    1.400   .     S
C170   O220    1.220   .     D
C171   C180    1.418   .     A
C172   O208    1.394   .     S
C172   O207    1.222   .     D
C173   O210    1.396   .     S
C173   C831    1.483   .     S
C173   O61     1.223   1_655 S
C174   C181    1.534   .     S
C174   C175    1.525   .     S
C174   H192    1.107   .     S
C174   H193    1.111   .     S
C175   H189    1.111   .     S
C175   H190    1.103   .     S
C175   H191    1.109   .     S
C176   O212    1.399   .     S
C176   O211    1.222   .     D
C177   C181    1.385   .     A
C177   C826    1.410   1_554 S
C177   C844    1.413   1_554 S
C178   C179    1.400   .     A
C178   C831    1.422   .     S
C178   C843    1.413   .     S
C179   H200    1.080   .     S
C179   C180    1.393   .     A
C180   H185    1.081   .     S
C182   H183    1.084   .     S
H184   C834    1.083   1_554 S
H186   O206    1.014   .     S
H187   O208    1.013   .     S
H195   O212    1.014   .     S
N203   Zn221   2.022   .     S
N204   Zn222   2.022   .     S
O205   Zn221   1.975   .     S
O210   H40     1.013   1_655 S
O213   Zn222   1.991   .     S
O214   Zn221   1.971   .     S
O215   Zn222   1.939   .     S
O216   Zn221   1.991   .     S
O217   Zn222   1.975   .     S
O218   Zn221   1.939   .     S
O219   Zn222   1.971   .     S
C223   O279    1.282   .     A
C223   C231    1.406   .     S
C223   O287    1.285   .     A
C224   C226    1.456   .     S
C224   C245    1.418   .     A
C224   C241    1.402   .     A
C225   C231    1.406   .     A
C225   C250    1.492   .     S
C225   C449    1.379   .     S
C226   O289    1.291   .     A
C226   O288    1.301   .     A
C227   H268    1.086   .     S
C227   C228    1.395   .     A
C228   C229    1.409   .     A
C228   C237    1.410   .     S
C229   C244    1.492   .     S
C230   H270    1.086   .     S
C230   C231    1.392   .     A
C230   C451    1.380   .     S
C232   N278    1.352   .     A
C232   H271    1.083   .     S
C232   C307    1.411   .     S
C233   N277    1.387   .     A
C233   C246    1.463   .     S
C233   C380    1.411   1_455 S
C234   C245    1.404   .     A
C234   C909    1.416   .     S
C234   C917    1.410   .     S
C235   H272    1.081   .     S
C235   N277    1.368   .     A
C235   C384    1.421   1_455 S
C236   N278    1.369   .     A
C236   H273    1.082   .     S
C236   C309    1.421   .     S
C237   O290    1.290   .     A
C237   O291    1.280   .     A
C238   O293    1.306   .     A
C238   O292    1.289   .     A
C238   C240    1.463   .     S
C239   C256    1.409   .     A
C239   C913    1.483   1_554 S
C239   C918    1.422   1_554 S
C240   C256    1.403   .     A
C240   C255    1.411   .     A
C241   C242    1.388   .     A
C241   H275    1.083   .     S
C242   C909    1.390   .     S
C242   H924    1.083   .     S
C243   H276    1.082   .     S
C243   C900    1.416   1_554 S
C243   C908    1.390   1_554 S
C244   O280    1.400   .     S
C244   O294    1.220   .     D
C245   C254    1.418   .     A
C246   O282    1.394   .     S
C246   O281    1.222   .     D
C247   O284    1.396   .     S
C247   C905    1.483   .     S
C247   O357    1.223   .     S
C248   C255    1.534   .     S
C248   C249    1.525   .     S
C248   H266    1.107   .     S
C248   H267    1.111   .     S
C249   H263    1.111   .     S
C249   H264    1.103   .     S
C249   H265    1.109   .     S
C250   O286    1.399   .     S
C250   O285    1.222   .     D
C251   C255    1.385   .     A
C251   C900    1.410   1_554 S
C251   C918    1.413   1_554 S
C252   C253    1.400   .     A
C252   C905    1.422   .     S
C252   C917    1.413   .     S
C253   H274    1.080   .     S
C253   C254    1.393   .     A
C254   H259    1.081   .     S
C256   H257    1.084   .     S
H258   C908    1.083   1_554 S
H260   O280    1.014   .     S
H261   O282    1.013   .     S
H262   O432    1.013   1_455 S
H269   O286    1.014   .     S
N277   Zn295   2.022   .     S
N278   Zn296   2.022   .     S
O279   Zn295   1.975   .     S
O283   C395    1.223   1_455 S
O284   H336    1.013   .     S
O287   Zn296   1.991   .     S
O288   Zn295   1.971   .     S
O289   Zn296   1.939   .     S
O290   Zn295   1.991   .     S
O291   Zn296   1.975   .     S
O292   Zn295   1.939   .     S
O293   Zn296   1.971   .     S
C297   O353    1.282   .     A
C297   C305    1.406   .     S
C297   O361    1.285   .     A
C298   C300    1.456   .     S
C298   C319    1.418   .     A
C298   C315    1.402   .     A
C299   C305    1.406   .     A
C299   C324    1.492   .     S
C299   C523    1.379   .     S
C300   O363    1.291   .     A
C300   O362    1.301   .     A
C301   H342    1.086   .     S
C301   C302    1.395   .     A
C302   C303    1.409   .     A
C302   C311    1.410   .     S
C303   C318    1.492   .     S
C304   H344    1.086   .     S
C304   C305    1.392   .     A
C304   C525    1.380   .     S
C306   N352    1.352   .     A
C306   H345    1.083   .     S
C306   C381    1.411   .     S
C307   N351    1.387   .     A
C307   C320    1.463   .     S
C308   C319    1.404   .     A
C308   C983    1.416   .     S
C308   C991    1.410   .     S
C309   H346    1.081   .     S
C309   N351    1.368   .     A
C310   N352    1.369   .     A
C310   H347    1.082   .     S
C310   C383    1.421   .     S
C311   O364    1.290   .     A
C311   O365    1.280   .     A
C312   O367    1.306   .     A
C312   O366    1.289   .     A
C312   C314    1.463   .     S
C313   C330    1.409   .     A
C313   C987    1.483   1_554 S
C313   C992    1.422   1_554 S
C314   C330    1.403   .     A
C314   C329    1.411   .     A
C315   C316    1.388   .     A
C315   H349    1.083   .     S
C316   C983    1.390   .     S
C316   H998    1.083   .     S
C317   H350    1.082   .     S
C317   C974    1.416   1_554 S
C317   C982    1.390   1_554 S
C318   O354    1.400   .     S
C318   O368    1.220   .     D
C319   C328    1.418   .     A
C320   O356    1.394   .     S
C320   O355    1.222   .     D
C321   O358    1.396   .     S
C321   C979    1.483   .     S
C321   O431    1.223   .     S
C322   C329    1.534   .     S
C322   C323    1.525   .     S
C322   H340    1.107   .     S
C322   H341    1.111   .     S
C323   H337    1.111   .     S
C323   H338    1.103   .     S
C323   H339    1.109   .     S
C324   O360    1.399   .     S
C324   O359    1.222   .     D
C325   C329    1.385   .     A
C325   C974    1.410   1_554 S
C325   C992    1.413   1_554 S
C326   C327    1.400   .     A
C326   C979    1.422   .     S
C326   C991    1.413   .     S
C327   H348    1.080   .     S
C327   C328    1.393   .     A
C328   H333    1.081   .     S
C330   H331    1.084   .     S
H332   C982    1.083   1_554 S
H334   O354    1.014   .     S
H335   O356    1.013   .     S
H343   O360    1.014   .     S
N351   Zn369   2.022   .     S
N352   Zn370   2.022   .     S
O353   Zn369   1.975   .     S
O358   H410    1.013   .     S
O361   Zn370   1.991   .     S
O362   Zn369   1.971   .     S
O363   Zn370   1.939   .     S
O364   Zn369   1.991   .     S
O365   Zn370   1.975   .     S
O366   Zn369   1.939   .     S
O367   Zn370   1.971   .     S
C371   O427    1.282   .     A
C371   C379    1.406   .     S
C371   O435    1.285   .     A
C372   C374    1.456   .     S
C372   C393    1.418   .     A
C372   C389    1.402   .     A
C373   C379    1.406   .     A
C373   C398    1.492   .     S
C373   C597    1.379   .     S
C374   O437    1.291   .     A
C374   O436    1.301   .     A
C375   H416    1.086   .     S
C375   C376    1.395   .     A
C376   C377    1.409   .     A
C376   C385    1.410   .     S
C377   C392    1.492   .     S
C378   H418    1.086   .     S
C378   C379    1.392   .     A
C378   C599    1.380   .     S
C380   N426    1.352   .     A
C380   H419    1.083   .     S
C380   C233    1.411   1_655 S
C381   N425    1.387   .     A
C381   C394    1.463   .     S
C382   C393    1.404   .     A
C382   C1057   1.416   .     S
C382   C1065   1.410   .     S
C383   H420    1.081   .     S
C383   N425    1.368   .     A
C384   N426    1.369   .     A
C384   H421    1.082   .     S
C384   C235    1.421   1_655 S
C385   O438    1.290   .     A
C385   O439    1.280   .     A
C386   O441    1.306   .     A
C386   O440    1.289   .     A
C386   C388    1.463   .     S
C387   C404    1.409   .     A
C387   C1061   1.483   1_554 S
C387   C1066   1.422   1_554 S
C388   C404    1.403   .     A
C388   C403    1.411   .     A
C389   C390    1.388   .     A
C389   H423    1.083   .     S
C390   C1057   1.390   .     S
C390   H1072   1.083   .     S
C391   H424    1.082   .     S
C391   C1048   1.416   1_554 S
C391   C1056   1.390   1_554 S
C392   O428    1.400   .     S
C392   O442    1.220   .     D
C393   C402    1.418   .     A
C394   O430    1.394   .     S
C394   O429    1.222   .     D
C395   O432    1.396   .     S
C395   C1053   1.483   .     S
C395   O283    1.223   1_655 S
C396   C403    1.534   .     S
C396   C397    1.525   .     S
C396   H414    1.107   .     S
C396   H415    1.111   .     S
C397   H411    1.111   .     S
C397   H412    1.103   .     S
C397   H413    1.109   .     S
C398   O434    1.399   .     S
C398   O433    1.222   .     D
C399   C403    1.385   .     A
C399   C1048   1.410   1_554 S
C399   C1066   1.413   1_554 S
C400   C401    1.400   .     A
C400   C1053   1.422   .     S
C400   C1065   1.413   .     S
C401   H422    1.080   .     S
C401   C402    1.393   .     A
C402   H407    1.081   .     S
C404   H405    1.084   .     S
H406   C1056   1.083   1_554 S
H408   O428    1.014   .     S
H409   O430    1.013   .     S
H417   O434    1.014   .     S
N425   Zn443   2.022   .     S
N426   Zn444   2.022   .     S
O427   Zn443   1.975   .     S
O432   H262    1.013   1_655 S
O435   Zn444   1.991   .     S
O436   Zn443   1.971   .     S
O437   Zn444   1.939   .     S
O438   Zn443   1.991   .     S
O439   Zn444   1.975   .     S
O440   Zn443   1.939   .     S
O441   Zn444   1.971   .     S
C445   O501    1.282   .     A
C445   C453    1.406   .     S
C445   O509    1.285   .     A
C446   C448    1.456   .     S
C446   C467    1.418   .     A
C446   C463    1.402   .     A
C447   C453    1.406   .     A
C447   C472    1.492   .     S
C447   C5      1.379   1_565 S
C448   O511    1.291   .     A
C448   O510    1.301   .     A
C449   H490    1.086   .     S
C449   C450    1.395   .     A
C450   C451    1.409   .     A
C450   C459    1.410   .     S
C451   C466    1.492   .     S
C452   H492    1.086   .     S
C452   C453    1.392   .     A
C452   C7      1.380   1_565 S
C454   N500    1.352   .     A
C454   H493    1.083   .     S
C454   C529    1.411   .     S
C455   N499    1.387   .     A
C455   C468    1.463   .     S
C455   C602    1.411   1_455 S
C456   C467    1.404   .     A
C456   C1131   1.416   .     S
C456   C1139   1.410   .     S
C457   H494    1.081   .     S
C457   N499    1.368   .     A
C457   C606    1.421   1_455 S
C458   N500    1.369   .     A
C458   H495    1.082   .     S
C458   C531    1.421   .     S
C459   O512    1.290   .     A
C459   O513    1.280   .     A
C460   O515    1.306   .     A
C460   O514    1.289   .     A
C460   C462    1.463   .     S
C461   C478    1.409   .     A
C461   C1135   1.483   1_554 S
C461   C1140   1.422   1_554 S
C462   C478    1.403   .     A
C462   C477    1.411   .     A
C463   C464    1.388   .     A
C463   H497    1.083   .     S
C464   C1131   1.390   .     S
C464   H1146   1.083   .     S
C465   H498    1.082   .     S
C465   C1122   1.416   1_554 S
C465   C1130   1.390   1_554 S
C466   O502    1.400   .     S
C466   O516    1.220   .     D
C467   C476    1.418   .     A
C468   O504    1.394   .     S
C468   O503    1.222   .     D
C469   O506    1.396   .     S
C469   C1127   1.483   .     S
C469   O579    1.223   .     S
C470   C477    1.534   .     S
C470   C471    1.525   .     S
C470   H488    1.107   .     S
C470   H489    1.111   .     S
C471   H485    1.111   .     S
C471   H486    1.103   .     S
C471   H487    1.109   .     S
C472   O508    1.399   .     S
C472   O507    1.222   .     D
C473   C477    1.385   .     A
C473   C1122   1.410   1_554 S
C473   C1140   1.413   1_554 S
C474   C475    1.400   .     A
C474   C1127   1.422   .     S
C474   C1139   1.413   .     S
C475   H496    1.080   .     S
C475   C476    1.393   .     A
C476   H481    1.081   .     S
C478   H479    1.084   .     S
H480   C1130   1.083   1_554 S
H482   O502    1.014   .     S
H483   O504    1.013   .     S
H484   O654    1.013   1_455 S
H491   O508    1.014   .     S
N499   Zn517   2.022   .     S
N500   Zn518   2.022   .     S
O501   Zn517   1.975   .     S
O505   C617    1.223   1_455 S
O506   H558    1.013   .     S
O509   Zn518   1.991   .     S
O510   Zn517   1.971   .     S
O511   Zn518   1.939   .     S
O512   Zn517   1.991   .     S
O513   Zn518   1.975   .     S
O514   Zn517   1.939   .     S
O515   Zn518   1.971   .     S
C519   O575    1.282   .     A
C519   C527    1.406   .     S
C519   O583    1.285   .     A
C520   C522    1.456   .     S
C520   C541    1.418   .     A
C520   C537    1.402   .     A
C521   C527    1.406   .     A
C521   C546    1.492   .     S
C521   C79     1.379   1_565 S
C522   O585    1.291   .     A
C522   O584    1.301   .     A
C523   H564    1.086   .     S
C523   C524    1.395   .     A
C524   C525    1.409   .     A
C524   C533    1.410   .     S
C525   C540    1.492   .     S
C526   H566    1.086   .     S
C526   C527    1.392   .     A
C526   C81     1.380   1_565 S
C528   N574    1.352   .     A
C528   H567    1.083   .     S
C528   C603    1.411   .     S
C529   N573    1.387   .     A
C529   C542    1.463   .     S
C530   C541    1.404   .     A
C530   C1205   1.416   .     S
C530   C1213   1.410   .     S
C531   H568    1.081   .     S
C531   N573    1.368   .     A
C532   N574    1.369   .     A
C532   H569    1.082   .     S
C532   C605    1.421   .     S
C533   O586    1.290   .     A
C533   O587    1.280   .     A
C534   O589    1.306   .     A
C534   O588    1.289   .     A
C534   C536    1.463   .     S
C535   C552    1.409   .     A
C535   C1209   1.483   1_554 S
C535   C1214   1.422   1_554 S
C536   C552    1.403   .     A
C536   C551    1.411   .     A
C537   C538    1.388   .     A
C537   H571    1.083   .     S
C538   C1205   1.390   .     S
C538   H1220   1.083   .     S
C539   H572    1.082   .     S
C539   C1196   1.416   1_554 S
C539   C1204   1.390   1_554 S
C540   O576    1.400   .     S
C540   O590    1.220   .     D
C541   C550    1.418   .     A
C542   O578    1.394   .     S
C542   O577    1.222   .     D
C543   O580    1.396   .     S
C543   C1201   1.483   .     S
C543   O653    1.223   .     S
C544   C551    1.534   .     S
C544   C545    1.525   .     S
C544   H562    1.107   .     S
C544   H563    1.111   .     S
C545   H559    1.111   .     S
C545   H560    1.103   .     S
C545   H561    1.109   .     S
C546   O582    1.399   .     S
C546   O581    1.222   .     D
C547   C551    1.385   .     A
C547   C1196   1.410   1_554 S
C547   C1214   1.413   1_554 S
C548   C549    1.400   .     A
C548   C1201   1.422   .     S
C548   C1213   1.413   .     S
C549   H570    1.080   .     S
C549   C550    1.393   .     A
C550   H555    1.081   .     S
C552   H553    1.084   .     S
H554   C1204   1.083   1_554 S
H556   O576    1.014   .     S
H557   O578    1.013   .     S
H565   O582    1.014   .     S
N573   Zn591   2.022   .     S
N574   Zn592   2.022   .     S
O575   Zn591   1.975   .     S
O580   H632    1.013   .     S
O583   Zn592   1.991   .     S
O584   Zn591   1.971   .     S
O585   Zn592   1.939   .     S
O586   Zn591   1.991   .     S
O587   Zn592   1.975   .     S
O588   Zn591   1.939   .     S
O589   Zn592   1.971   .     S
C593   O649    1.282   .     A
C593   C601    1.406   .     S
C593   O657    1.285   .     A
C594   C596    1.456   .     S
C594   C615    1.418   .     A
C594   C611    1.402   .     A
C595   C601    1.406   .     A
C595   C620    1.492   .     S
C595   C153    1.379   1_565 S
C596   O659    1.291   .     A
C596   O658    1.301   .     A
C597   H638    1.086   .     S
C597   C598    1.395   .     A
C598   C599    1.409   .     A
C598   C607    1.410   .     S
C599   C614    1.492   .     S
C600   H640    1.086   .     S
C600   C601    1.392   .     A
C600   C155    1.380   1_565 S
C602   N648    1.352   .     A
C602   H641    1.083   .     S
C602   C455    1.411   1_655 S
C603   N647    1.387   .     A
C603   C616    1.463   .     S
C604   C615    1.404   .     A
C604   C1279   1.416   .     S
C604   C1287   1.410   .     S
C605   H642    1.081   .     S
C605   N647    1.368   .     A
C606   N648    1.369   .     A
C606   H643    1.082   .     S
C606   C457    1.421   1_655 S
C607   O660    1.290   .     A
C607   O661    1.280   .     A
C608   O663    1.306   .     A
C608   O662    1.289   .     A
C608   C610    1.463   .     S
C609   C626    1.409   .     A
C609   C1283   1.483   1_554 S
C609   C1288   1.422   1_554 S
C610   C626    1.403   .     A
C610   C625    1.411   .     A
C611   C612    1.388   .     A
C611   H645    1.083   .     S
C612   C1279   1.390   .     S
C612   H1294   1.083   .     S
C613   H646    1.082   .     S
C613   C1270   1.416   1_554 S
C613   C1278   1.390   1_554 S
C614   O650    1.400   .     S
C614   O664    1.220   .     D
C615   C624    1.418   .     A
C616   O652    1.394   .     S
C616   O651    1.222   .     D
C617   O654    1.396   .     S
C617   C1275   1.483   .     S
C617   O505    1.223   1_655 S
C618   C625    1.534   .     S
C618   C619    1.525   .     S
C618   H636    1.107   .     S
C618   H637    1.111   .     S
C619   H633    1.111   .     S
C619   H634    1.103   .     S
C619   H635    1.109   .     S
C620   O656    1.399   .     S
C620   O655    1.222   .     D
C621   C625    1.385   .     A
C621   C1270   1.410   1_554 S
C621   C1288   1.413   1_554 S
C622   C623    1.400   .     A
C622   C1275   1.422   .     S
C622   C1287   1.413   .     S
C623   H644    1.080   .     S
C623   C624    1.393   .     A
C624   H629    1.081   .     S
C626   H627    1.084   .     S
H628   C1278   1.083   1_554 S
H630   O650    1.014   .     S
H631   O652    1.013   .     S
H639   O656    1.014   .     S
N647   Zn665   2.022   .     S
N648   Zn666   2.022   .     S
O649   Zn665   1.975   .     S
O654   H484    1.013   1_655 S
O657   Zn666   1.991   .     S
O658   Zn665   1.971   .     S
O659   Zn666   1.939   .     S
O660   Zn665   1.991   .     S
O661   Zn666   1.975   .     S
O662   Zn665   1.939   .     S
O663   Zn666   1.971   .     S
C667   O723    1.282   .     A
C667   C675    1.406   .     S
C667   O731    1.285   .     A
C668   C670    1.456   .     S
C668   C689    1.418   .     A
C668   C685    1.402   .     A
C669   C675    1.406   .     A
C669   C694    1.492   .     S
C669   C893    1.379   .     S
C670   O733    1.291   .     A
C670   O732    1.301   .     A
C671   H712    1.086   .     S
C671   C672    1.395   .     A
C671   C1113   1.379   1_545 S
C672   C673    1.409   .     A
C672   C681    1.410   .     S
C673   C688    1.492   .     S
C673   C1118   1.380   1_545 S
C674   H714    1.086   .     S
C674   C675    1.392   .     A
C674   C895    1.380   .     S
C676   N722    1.352   .     A
C676   H715    1.083   .     S
C676   C751    1.411   .     S
C677   N721    1.387   .     A
C677   C690    1.463   .     S
C677   C824    1.411   1_455 S
C678   C689    1.404   .     A
C678   C21     1.416   1_556 S
C678   C29     1.410   1_556 S
C679   H716    1.081   .     S
C679   N721    1.368   .     A
C679   C828    1.421   1_455 S
C680   N722    1.369   .     A
C680   H717    1.082   .     S
C680   C753    1.421   .     S
C681   O734    1.290   .     A
C681   O735    1.280   .     A
C682   O737    1.306   .     A
C682   O736    1.289   .     A
C682   C684    1.463   .     S
C683   C700    1.409   .     A
C684   C700    1.403   .     A
C684   C699    1.411   .     A
C685   C686    1.388   .     A
C685   H719    1.083   .     S
C686   C21     1.390   1_556 S
C686   H36     1.083   1_556 S
C687   H720    1.082   .     S
C688   O724    1.400   .     S
C688   O738    1.220   .     D
C689   C698    1.418   .     A
C690   O726    1.394   .     S
C690   O725    1.222   .     D
C691   O728    1.396   .     S
C691   C17     1.483   1_556 S
C691   O801    1.223   .     S
C692   C699    1.534   .     S
C692   C693    1.525   .     S
C692   H710    1.107   .     S
C692   H711    1.111   .     S
C693   H707    1.111   .     S
C693   H708    1.103   .     S
C693   H709    1.109   .     S
C694   O730    1.399   .     S
C694   O729    1.222   .     D
C695   C699    1.385   .     A
C696   C697    1.400   .     A
C696   C17     1.422   1_556 S
C696   C29     1.413   1_556 S
C697   H718    1.080   .     S
C697   C698    1.393   .     A
C698   H703    1.081   .     S
C700   H701    1.084   .     S
H704   O724    1.014   .     S
H705   O726    1.013   .     S
H706   O876    1.013   1_455 S
H713   O730    1.014   .     S
N721   Zn739   2.022   .     S
N722   Zn740   2.022   .     S
O723   Zn739   1.975   .     S
O727   C839    1.223   1_455 S
O728   H780    1.013   .     S
O731   Zn740   1.991   .     S
O732   Zn739   1.971   .     S
O733   Zn740   1.939   .     S
O734   Zn739   1.991   .     S
O735   Zn740   1.975   .     S
O736   Zn739   1.939   .     S
O737   Zn740   1.971   .     S
C741   O797    1.282   .     A
C741   C749    1.406   .     S
C741   O805    1.285   .     A
C742   C744    1.456   .     S
C742   C763    1.418   .     A
C742   C759    1.402   .     A
C743   C749    1.406   .     A
C743   C768    1.492   .     S
C743   C967    1.379   .     S
C744   O807    1.291   .     A
C744   O806    1.301   .     A
C745   H786    1.086   .     S
C745   C746    1.395   .     A
C745   C1187   1.379   1_545 S
C746   C747    1.409   .     A
C746   C755    1.410   .     S
C747   C762    1.492   .     S
C747   C1192   1.380   1_545 S
C748   H788    1.086   .     S
C748   C749    1.392   .     A
C748   C969    1.380   .     S
C750   N796    1.352   .     A
C750   H789    1.083   .     S
C750   C825    1.411   .     S
C751   N795    1.387   .     A
C751   C764    1.463   .     S
C752   C763    1.404   .     A
C752   C95     1.416   1_556 S
C752   C103    1.410   1_556 S
C753   H790    1.081   .     S
C753   N795    1.368   .     A
C754   N796    1.369   .     A
C754   H791    1.082   .     S
C754   C827    1.421   .     S
C755   O808    1.290   .     A
C755   O809    1.280   .     A
C756   O811    1.306   .     A
C756   O810    1.289   .     A
C756   C758    1.463   .     S
C757   C774    1.409   .     A
C758   C774    1.403   .     A
C758   C773    1.411   .     A
C759   C760    1.388   .     A
C759   H793    1.083   .     S
C760   C95     1.390   1_556 S
C760   H110    1.083   1_556 S
C761   H794    1.082   .     S
C762   O798    1.400   .     S
C762   O812    1.220   .     D
C763   C772    1.418   .     A
C764   O800    1.394   .     S
C764   O799    1.222   .     D
C765   O802    1.396   .     S
C765   C91     1.483   1_556 S
C765   O875    1.223   .     S
C766   C773    1.534   .     S
C766   C767    1.525   .     S
C766   H784    1.107   .     S
C766   H785    1.111   .     S
C767   H781    1.111   .     S
C767   H782    1.103   .     S
C767   H783    1.109   .     S
C768   O804    1.399   .     S
C768   O803    1.222   .     D
C769   C773    1.385   .     A
C770   C771    1.400   .     A
C770   C91     1.422   1_556 S
C770   C103    1.413   1_556 S
C771   H792    1.080   .     S
C771   C772    1.393   .     A
C772   H777    1.081   .     S
C774   H775    1.084   .     S
H778   O798    1.014   .     S
H779   O800    1.013   .     S
H787   O804    1.014   .     S
N795   Zn813   2.022   .     S
N796   Zn814   2.022   .     S
O797   Zn813   1.975   .     S
O802   H854    1.013   .     S
O805   Zn814   1.991   .     S
O806   Zn813   1.971   .     S
O807   Zn814   1.939   .     S
O808   Zn813   1.991   .     S
O809   Zn814   1.975   .     S
O810   Zn813   1.939   .     S
O811   Zn814   1.971   .     S
C815   O871    1.282   .     A
C815   C823    1.406   .     S
C815   O879    1.285   .     A
C816   C818    1.456   .     S
C816   C837    1.418   .     A
C816   C833    1.402   .     A
C817   C823    1.406   .     A
C817   C842    1.492   .     S
C817   C1041   1.379   .     S
C818   O881    1.291   .     A
C818   O880    1.301   .     A
C819   H860    1.086   .     S
C819   C820    1.395   .     A
C819   C1261   1.379   1_545 S
C820   C821    1.409   .     A
C820   C829    1.410   .     S
C821   C836    1.492   .     S
C821   C1266   1.380   1_545 S
C822   H862    1.086   .     S
C822   C823    1.392   .     A
C822   C1043   1.380   .     S
C824   N870    1.352   .     A
C824   H863    1.083   .     S
C824   C677    1.411   1_655 S
C825   N869    1.387   .     A
C825   C838    1.463   .     S
C826   C837    1.404   .     A
C826   C169    1.416   1_556 S
C826   C177    1.410   1_556 S
C827   H864    1.081   .     S
C827   N869    1.368   .     A
C828   N870    1.369   .     A
C828   H865    1.082   .     S
C828   C679    1.421   1_655 S
C829   O882    1.290   .     A
C829   O883    1.280   .     A
C830   O885    1.306   .     A
C830   O884    1.289   .     A
C830   C832    1.463   .     S
C831   C848    1.409   .     A
C832   C848    1.403   .     A
C832   C847    1.411   .     A
C833   C834    1.388   .     A
C833   H867    1.083   .     S
C834   C169    1.390   1_556 S
C834   H184    1.083   1_556 S
C835   H868    1.082   .     S
C836   O872    1.400   .     S
C836   O886    1.220   .     D
C837   C846    1.418   .     A
C838   O874    1.394   .     S
C838   O873    1.222   .     D
C839   O876    1.396   .     S
C839   C165    1.483   1_556 S
C839   O727    1.223   1_655 S
C840   C847    1.534   .     S
C840   C841    1.525   .     S
C840   H858    1.107   .     S
C840   H859    1.111   .     S
C841   H855    1.111   .     S
C841   H856    1.103   .     S
C841   H857    1.109   .     S
C842   O878    1.399   .     S
C842   O877    1.222   .     D
C843   C847    1.385   .     A
C844   C845    1.400   .     A
C844   C165    1.422   1_556 S
C844   C177    1.413   1_556 S
C845   H866    1.080   .     S
C845   C846    1.393   .     A
C846   H851    1.081   .     S
C848   H849    1.084   .     S
H852   O872    1.014   .     S
H853   O874    1.013   .     S
H861   O878    1.014   .     S
N869   Zn887   2.022   .     S
N870   Zn888   2.022   .     S
O871   Zn887   1.975   .     S
O876   H706    1.013   1_655 S
O879   Zn888   1.991   .     S
O880   Zn887   1.971   .     S
O881   Zn888   1.939   .     S
O882   Zn887   1.991   .     S
O883   Zn888   1.975   .     S
O884   Zn887   1.939   .     S
O885   Zn888   1.971   .     S
C889   O945    1.282   .     A
C889   C897    1.406   .     S
C889   O953    1.285   .     A
C890   C892    1.456   .     S
C890   C911    1.418   .     A
C890   C907    1.402   .     A
C891   C897    1.406   .     A
C891   C916    1.492   .     S
C891   C1115   1.379   .     S
C892   O955    1.291   .     A
C892   O954    1.301   .     A
C893   H934    1.086   .     S
C893   C894    1.395   .     A
C894   C895    1.409   .     A
C894   C903    1.410   .     S
C895   C910    1.492   .     S
C896   H936    1.086   .     S
C896   C897    1.392   .     A
C896   C1117   1.380   .     S
C898   N944    1.352   .     A
C898   H937    1.083   .     S
C898   C973    1.411   .     S
C899   N943    1.387   .     A
C899   C912    1.463   .     S
C899   C1046   1.411   1_455 S
C900   C911    1.404   .     A
C900   C243    1.416   1_556 S
C900   C251    1.410   1_556 S
C901   H938    1.081   .     S
C901   N943    1.368   .     A
C901   C1050   1.421   1_455 S
C902   N944    1.369   .     A
C902   H939    1.082   .     S
C902   C975    1.421   .     S
C903   O956    1.290   .     A
C903   O957    1.280   .     A
C904   O959    1.306   .     A
C904   O958    1.289   .     A
C904   C906    1.463   .     S
C905   C922    1.409   .     A
C906   C922    1.403   .     A
C906   C921    1.411   .     A
C907   C908    1.388   .     A
C907   H941    1.083   .     S
C908   C243    1.390   1_556 S
C908   H258    1.083   1_556 S
C909   H942    1.082   .     S
C910   O946    1.400   .     S
C910   O960    1.220   .     D
C911   C920    1.418   .     A
C912   O948    1.394   .     S
C912   O947    1.222   .     D
C913   O950    1.396   .     S
C913   C239    1.483   1_556 S
C913   O1023   1.223   .     S
C914   C921    1.534   .     S
C914   C915    1.525   .     S
C914   H932    1.107   .     S
C914   H933    1.111   .     S
C915   H929    1.111   .     S
C915   H930    1.103   .     S
C915   H931    1.109   .     S
C916   O952    1.399   .     S
C916   O951    1.222   .     D
C917   C921    1.385   .     A
C918   C919    1.400   .     A
C918   C239    1.422   1_556 S
C918   C251    1.413   1_556 S
C919   H940    1.080   .     S
C919   C920    1.393   .     A
C920   H925    1.081   .     S
C922   H923    1.084   .     S
H926   O946    1.014   .     S
H927   O948    1.013   .     S
H928   O1098   1.013   1_455 S
H935   O952    1.014   .     S
N943   Zn961   2.022   .     S
N944   Zn962   2.022   .     S
O945   Zn961   1.975   .     S
O949   C1061   1.223   1_455 S
O950   H1002   1.013   .     S
O953   Zn962   1.991   .     S
O954   Zn961   1.971   .     S
O955   Zn962   1.939   .     S
O956   Zn961   1.991   .     S
O957   Zn962   1.975   .     S
O958   Zn961   1.939   .     S
O959   Zn962   1.971   .     S
C963   O1019   1.282   .     A
C963   C971    1.406   .     S
C963   O1027   1.285   .     A
C964   C966    1.456   .     S
C964   C985    1.418   .     A
C964   C981    1.402   .     A
C965   C971    1.406   .     A
C965   C990    1.492   .     S
C965   C1189   1.379   .     S
C966   O1029   1.291   .     A
C966   O1028   1.301   .     A
C967   H1008   1.086   .     S
C967   C968    1.395   .     A
C968   C969    1.409   .     A
C968   C977    1.410   .     S
C969   C984    1.492   .     S
C970   H1010   1.086   .     S
C970   C971    1.392   .     A
C970   C1191   1.380   .     S
C972   N1018   1.352   .     A
C972   H1011   1.083   .     S
C972   C1047   1.411   .     S
C973   N1017   1.387   .     A
C973   C986    1.463   .     S
C974   C985    1.404   .     A
C974   C317    1.416   1_556 S
C974   C325    1.410   1_556 S
C975   H1012   1.081   .     S
C975   N1017   1.368   .     A
C976   N1018   1.369   .     A
C976   H1013   1.082   .     S
C976   C1049   1.421   .     S
C977   O1030   1.290   .     A
C977   O1031   1.280   .     A
C978   O1033   1.306   .     A
C978   O1032   1.289   .     A
C978   C980    1.463   .     S
C979   C996    1.409   .     A
C980   C996    1.403   .     A
C980   C995    1.411   .     A
C981   C982    1.388   .     A
C981   H1015   1.083   .     S
C982   C317    1.390   1_556 S
C982   H332    1.083   1_556 S
C983   H1016   1.082   .     S
C984   O1020   1.400   .     S
C984   O1034   1.220   .     D
C985   C994    1.418   .     A
C986   O1022   1.394   .     S
C986   O1021   1.222   .     D
C987   O1024   1.396   .     S
C987   C313    1.483   1_556 S
C987   O1097   1.223   .     S
C988   C995    1.534   .     S
C988   C989    1.525   .     S
C988   H1006   1.107   .     S
C988   H1007   1.111   .     S
C989   H1003   1.111   .     S
C989   H1004   1.103   .     S
C989   H1005   1.109   .     S
C990   O1026   1.399   .     S
C990   O1025   1.222   .     D
C991   C995    1.385   .     A
C992   C993    1.400   .     A
C992   C313    1.422   1_556 S
C992   C325    1.413   1_556 S
C993   H1014   1.080   .     S
C993   C994    1.393   .     A
C994   H999    1.081   .     S
C996   H997    1.084   .     S
H1000  O1020   1.014   .     S
H1001  O1022   1.013   .     S
H1009  O1026   1.014   .     S
N1017  Zn1035  2.022   .     S
N1018  Zn1036  2.022   .     S
O1019  Zn1035  1.975   .     S
O1024  H1076   1.013   .     S
O1027  Zn1036  1.991   .     S
O1028  Zn1035  1.971   .     S
O1029  Zn1036  1.939   .     S
O1030  Zn1035  1.991   .     S
O1031  Zn1036  1.975   .     S
O1032  Zn1035  1.939   .     S
O1033  Zn1036  1.971   .     S
C1037  O1093   1.282   .     A
C1037  C1045   1.406   .     S
C1037  O1101   1.285   .     A
C1038  C1040   1.456   .     S
C1038  C1059   1.418   .     A
C1038  C1055   1.402   .     A
C1039  C1045   1.406   .     A
C1039  C1064   1.492   .     S
C1039  C1263   1.379   .     S
C1040  O1103   1.291   .     A
C1040  O1102   1.301   .     A
C1041  H1082   1.086   .     S
C1041  C1042   1.395   .     A
C1042  C1043   1.409   .     A
C1042  C1051   1.410   .     S
C1043  C1058   1.492   .     S
C1044  H1084   1.086   .     S
C1044  C1045   1.392   .     A
C1044  C1265   1.380   .     S
C1046  N1092   1.352   .     A
C1046  H1085   1.083   .     S
C1046  C899    1.411   1_655 S
C1047  N1091   1.387   .     A
C1047  C1060   1.463   .     S
C1048  C1059   1.404   .     A
C1048  C391    1.416   1_556 S
C1048  C399    1.410   1_556 S
C1049  H1086   1.081   .     S
C1049  N1091   1.368   .     A
C1050  N1092   1.369   .     A
C1050  H1087   1.082   .     S
C1050  C901    1.421   1_655 S
C1051  O1104   1.290   .     A
C1051  O1105   1.280   .     A
C1052  O1107   1.306   .     A
C1052  O1106   1.289   .     A
C1052  C1054   1.463   .     S
C1053  C1070   1.409   .     A
C1054  C1070   1.403   .     A
C1054  C1069   1.411   .     A
C1055  C1056   1.388   .     A
C1055  H1089   1.083   .     S
C1056  C391    1.390   1_556 S
C1056  H406    1.083   1_556 S
C1057  H1090   1.082   .     S
C1058  O1094   1.400   .     S
C1058  O1108   1.220   .     D
C1059  C1068   1.418   .     A
C1060  O1096   1.394   .     S
C1060  O1095   1.222   .     D
C1061  O1098   1.396   .     S
C1061  C387    1.483   1_556 S
C1061  O949    1.223   1_655 S
C1062  C1069   1.534   .     S
C1062  C1063   1.525   .     S
C1062  H1080   1.107   .     S
C1062  H1081   1.111   .     S
C1063  H1077   1.111   .     S
C1063  H1078   1.103   .     S
C1063  H1079   1.109   .     S
C1064  O1100   1.399   .     S
C1064  O1099   1.222   .     D
C1065  C1069   1.385   .     A
C1066  C1067   1.400   .     A
C1066  C387    1.422   1_556 S
C1066  C399    1.413   1_556 S
C1067  H1088   1.080   .     S
C1067  C1068   1.393   .     A
C1068  H1073   1.081   .     S
C1070  H1071   1.084   .     S
H1074  O1094   1.014   .     S
H1075  O1096   1.013   .     S
H1083  O1100   1.014   .     S
N1091  Zn1109  2.022   .     S
N1092  Zn1110  2.022   .     S
O1093  Zn1109  1.975   .     S
O1098  H928    1.013   1_655 S
O1101  Zn1110  1.991   .     S
O1102  Zn1109  1.971   .     S
O1103  Zn1110  1.939   .     S
O1104  Zn1109  1.991   .     S
O1105  Zn1110  1.975   .     S
O1106  Zn1109  1.939   .     S
O1107  Zn1110  1.971   .     S
C1111  O1167   1.282   .     A
C1111  C1119   1.406   .     S
C1111  O1175   1.285   .     A
C1112  C1114   1.456   .     S
C1112  C1133   1.418   .     A
C1112  C1129   1.402   .     A
C1113  C1119   1.406   .     A
C1113  C1138   1.492   .     S
C1113  C671    1.379   1_565 S
C1114  O1177   1.291   .     A
C1114  O1176   1.301   .     A
C1115  H1156   1.086   .     S
C1115  C1116   1.395   .     A
C1116  C1117   1.409   .     A
C1116  C1125   1.410   .     S
C1117  C1132   1.492   .     S
C1118  H1158   1.086   .     S
C1118  C1119   1.392   .     A
C1118  C673    1.380   1_565 S
C1120  N1166   1.352   .     A
C1120  H1159   1.083   .     S
C1120  C1195   1.411   .     S
C1121  N1165   1.387   .     A
C1121  C1134   1.463   .     S
C1121  C1268   1.411   1_455 S
C1122  C1133   1.404   .     A
C1122  C465    1.416   1_556 S
C1122  C473    1.410   1_556 S
C1123  H1160   1.081   .     S
C1123  N1165   1.368   .     A
C1123  C1272   1.421   1_455 S
C1124  N1166   1.369   .     A
C1124  H1161   1.082   .     S
C1124  C1197   1.421   .     S
C1125  O1178   1.290   .     A
C1125  O1179   1.280   .     A
C1126  O1181   1.306   .     A
C1126  O1180   1.289   .     A
C1126  C1128   1.463   .     S
C1127  C1144   1.409   .     A
C1128  C1144   1.403   .     A
C1128  C1143   1.411   .     A
C1129  C1130   1.388   .     A
C1129  H1163   1.083   .     S
C1130  C465    1.390   1_556 S
C1130  H480    1.083   1_556 S
C1131  H1164   1.082   .     S
C1132  O1168   1.400   .     S
C1132  O1182   1.220   .     D
C1133  C1142   1.418   .     A
C1134  O1170   1.394   .     S
C1134  O1169   1.222   .     D
C1135  O1172   1.396   .     S
C1135  C461    1.483   1_556 S
C1135  O1245   1.223   .     S
C1136  C1143   1.534   .     S
C1136  C1137   1.525   .     S
C1136  H1154   1.107   .     S
C1136  H1155   1.111   .     S
C1137  H1151   1.111   .     S
C1137  H1152   1.103   .     S
C1137  H1153   1.109   .     S
C1138  O1174   1.399   .     S
C1138  O1173   1.222   .     D
C1139  C1143   1.385   .     A
C1140  C1141   1.400   .     A
C1140  C461    1.422   1_556 S
C1140  C473    1.413   1_556 S
C1141  H1162   1.080   .     S
C1141  C1142   1.393   .     A
C1142  H1147   1.081   .     S
C1144  H1145   1.084   .     S
H1148  O1168   1.014   .     S
H1149  O1170   1.013   .     S
H1150  O1320   1.013   1_455 S
H1157  O1174   1.014   .     S
N1165  Zn1183  2.022   .     S
N1166  Zn1184  2.022   .     S
O1167  Zn1183  1.975   .     S
O1171  C1283   1.223   1_455 S
O1172  H1224   1.013   .     S
O1175  Zn1184  1.991   .     S
O1176  Zn1183  1.971   .     S
O1177  Zn1184  1.939   .     S
O1178  Zn1183  1.991   .     S
O1179  Zn1184  1.975   .     S
O1180  Zn1183  1.939   .     S
O1181  Zn1184  1.971   .     S
C1185  O1241   1.282   .     A
C1185  C1193   1.406   .     S
C1185  O1249   1.285   .     A
C1186  C1188   1.456   .     S
C1186  C1207   1.418   .     A
C1186  C1203   1.402   .     A
C1187  C1193   1.406   .     A
C1187  C1212   1.492   .     S
C1187  C745    1.379   1_565 S
C1188  O1251   1.291   .     A
C1188  O1250   1.301   .     A
C1189  H1230   1.086   .     S
C1189  C1190   1.395   .     A
C1190  C1191   1.409   .     A
C1190  C1199   1.410   .     S
C1191  C1206   1.492   .     S
C1192  H1232   1.086   .     S
C1192  C1193   1.392   .     A
C1192  C747    1.380   1_565 S
C1194  N1240   1.352   .     A
C1194  H1233   1.083   .     S
C1194  C1269   1.411   .     S
C1195  N1239   1.387   .     A
C1195  C1208   1.463   .     S
C1196  C1207   1.404   .     A
C1196  C539    1.416   1_556 S
C1196  C547    1.410   1_556 S
C1197  H1234   1.081   .     S
C1197  N1239   1.368   .     A
C1198  N1240   1.369   .     A
C1198  H1235   1.082   .     S
C1198  C1271   1.421   .     S
C1199  O1252   1.290   .     A
C1199  O1253   1.280   .     A
C1200  O1255   1.306   .     A
C1200  O1254   1.289   .     A
C1200  C1202   1.463   .     S
C1201  C1218   1.409   .     A
C1202  C1218   1.403   .     A
C1202  C1217   1.411   .     A
C1203  C1204   1.388   .     A
C1203  H1237   1.083   .     S
C1204  C539    1.390   1_556 S
C1204  H554    1.083   1_556 S
C1205  H1238   1.082   .     S
C1206  O1242   1.400   .     S
C1206  O1256   1.220   .     D
C1207  C1216   1.418   .     A
C1208  O1244   1.394   .     S
C1208  O1243   1.222   .     D
C1209  O1246   1.396   .     S
C1209  C535    1.483   1_556 S
C1209  O1319   1.223   .     S
C1210  C1217   1.534   .     S
C1210  C1211   1.525   .     S
C1210  H1228   1.107   .     S
C1210  H1229   1.111   .     S
C1211  H1225   1.111   .     S
C1211  H1226   1.103   .     S
C1211  H1227   1.109   .     S
C1212  O1248   1.399   .     S
C1212  O1247   1.222   .     D
C1213  C1217   1.385   .     A
C1214  C1215   1.400   .     A
C1214  C535    1.422   1_556 S
C1214  C547    1.413   1_556 S
C1215  H1236   1.080   .     S
C1215  C1216   1.393   .     A
C1216  H1221   1.081   .     S
C1218  H1219   1.084   .     S
H1222  O1242   1.014   .     S
H1223  O1244   1.013   .     S
H1231  O1248   1.014   .     S
N1239  Zn1257  2.022   .     S
N1240  Zn1258  2.022   .     S
O1241  Zn1257  1.975   .     S
O1246  H1298   1.013   .     S
O1249  Zn1258  1.991   .     S
O1250  Zn1257  1.971   .     S
O1251  Zn1258  1.939   .     S
O1252  Zn1257  1.991   .     S
O1253  Zn1258  1.975   .     S
O1254  Zn1257  1.939   .     S
O1255  Zn1258  1.971   .     S
C1259  O1315   1.282   .     A
C1259  C1267   1.406   .     S
C1259  O1323   1.285   .     A
C1260  C1262   1.456   .     S
C1260  C1281   1.418   .     A
C1260  C1277   1.402   .     A
C1261  C1267   1.406   .     A
C1261  C1286   1.492   .     S
C1261  C819    1.379   1_565 S
C1262  O1325   1.291   .     A
C1262  O1324   1.301   .     A
C1263  H1304   1.086   .     S
C1263  C1264   1.395   .     A
C1264  C1265   1.409   .     A
C1264  C1273   1.410   .     S
C1265  C1280   1.492   .     S
C1266  H1306   1.086   .     S
C1266  C1267   1.392   .     A
C1266  C821    1.380   1_565 S
C1268  N1314   1.352   .     A
C1268  H1307   1.083   .     S
C1268  C1121   1.411   1_655 S
C1269  N1313   1.387   .     A
C1269  C1282   1.463   .     S
C1270  C1281   1.404   .     A
C1270  C613    1.416   1_556 S
C1270  C621    1.410   1_556 S
C1271  H1308   1.081   .     S
C1271  N1313   1.368   .     A
C1272  N1314   1.369   .     A
C1272  H1309   1.082   .     S
C1272  C1123   1.421   1_655 S
C1273  O1326   1.290   .     A
C1273  O1327   1.280   .     A
C1274  O1329   1.306   .     A
C1274  O1328   1.289   .     A
C1274  C1276   1.463   .     S
C1275  C1292   1.409   .     A
C1276  C1292   1.403   .     A
C1276  C1291   1.411   .     A
C1277  C1278   1.388   .     A
C1277  H1311   1.083   .     S
C1278  C613    1.390   1_556 S
C1278  H628    1.083   1_556 S
C1279  H1312   1.082   .     S
C1280  O1316   1.400   .     S
C1280  O1330   1.220   .     D
C1281  C1290   1.418   .     A
C1282  O1318   1.394   .     S
C1282  O1317   1.222   .     D
C1283  O1320   1.396   .     S
C1283  C609    1.483   1_556 S
C1283  O1171   1.223   1_655 S
C1284  C1291   1.534   .     S
C1284  C1285   1.525   .     S
C1284  H1302   1.107   .     S
C1284  H1303   1.111   .     S
C1285  H1299   1.111   .     S
C1285  H1300   1.103   .     S
C1285  H1301   1.109   .     S
C1286  O1322   1.399   .     S
C1286  O1321   1.222   .     D
C1287  C1291   1.385   .     A
C1288  C1289   1.400   .     A
C1288  C609    1.422   1_556 S
C1288  C621    1.413   1_556 S
C1289  H1310   1.080   .     S
C1289  C1290   1.393   .     A
C1290  H1295   1.081   .     S
C1292  H1293   1.084   .     S
H1296  O1316   1.014   .     S
H1297  O1318   1.013   .     S
H1305  O1322   1.014   .     S
N1313  Zn1331  2.022   .     S
N1314  Zn1332  2.022   .     S
O1315  Zn1331  1.975   .     S
O1320  H1150   1.013   1_655 S
O1323  Zn1332  1.991   .     S
O1324  Zn1331  1.971   .     S
O1325  Zn1332  1.939   .     S
O1326  Zn1331  1.991   .     S
O1327  Zn1332  1.975   .     S
O1328  Zn1331  1.939   .     S
O1329  Zn1332  1.971   .     S
