data_str_m2_o1_o18_pcu_sym.135
_audit_creation_date              2020-01-03
_audit_creation_method            'Materials Studio'
_symmetry_space_group_name_H-M    'P1'
_symmetry_Int_Tables_number       1
_symmetry_cell_setting            triclinic
loop_
_symmetry_equiv_pos_as_xyz
  x,y,z
_cell_length_a                    28.5060
_cell_length_b                    32.4341
_cell_length_c                    30.7139
_cell_angle_alpha                 89.6018
_cell_angle_beta                  74.3971
_cell_angle_gamma                 89.7743
loop_
_atom_site_label
_atom_site_type_symbol
_atom_site_fract_x
_atom_site_fract_y
_atom_site_fract_z
_atom_site_U_iso_or_equiv
_atom_site_adp_type
_atom_site_occupancy
C1     C     0.00005   0.08735   0.25001   0.00000  Uiso   1.00
C2     C     0.33330   0.24599   0.24999   0.00000  Uiso   1.00
C3     C     0.19654   0.16826   0.05096   0.00000  Uiso   1.00
C4     C     0.15286   0.22938   0.46920   0.00000  Uiso   1.00
C5     C     0.24550   0.16374   0.02808   0.00000  Uiso   1.00
C6     C     0.10497   0.23703   0.49319   0.00000  Uiso   1.00
C7     C     0.28919   0.02142   0.25891   0.00000  Uiso   1.00
C8     C     0.04423   0.31191   0.24116   0.00000  Uiso   1.00
C9     C     0.28911   0.31213   0.25904   0.00000  Uiso   1.00
C10    C     0.04429   0.02122   0.24109   0.00000  Uiso   1.00
C11    C     0.33329   0.29059   0.25004   0.00000  Uiso   1.00
C12    C     0.00009   0.04275   0.25001   0.00000  Uiso   1.00
C13    C     0.18367   0.14092   0.27808   0.00000  Uiso   1.00
C14    C     0.14982   0.19194   0.22154   0.00000  Uiso   1.00
C15    C     0.13304   0.14076   0.27875   0.00000  Uiso   1.00
C16    C     0.19982   0.19279   0.22182   0.00000  Uiso   1.00
C17    C     0.30582   0.16885   0.33642   0.00000  Uiso   1.00
C18    C     0.02732   0.16685   0.16373   0.00000  Uiso   1.00
C19    C     0.29049   0.17346   0.38637   0.00000  Uiso   1.00
C20    C     0.04243   0.17508   0.11500   0.00000  Uiso   1.00
C21    C     0.30904   0.16092   0.45793   0.00000  Uiso   1.00
C22    C     0.03519   0.22227   0.05576   0.00000  Uiso   1.00
C23    C     0.32361   0.16257   0.41100   0.00000  Uiso   1.00
C24    C     0.01533   0.20375   0.09749   0.00000  Uiso   1.00
C25    C     0.24274   0.18695   0.40984   0.00000  Uiso   1.00
C26    C     0.08846   0.16196   0.08835   0.00000  Uiso   1.00
C27    C     0.22841   0.18711   0.45811   0.00000  Uiso   1.00
C28    C     0.11214   0.18631   0.05008   0.00000  Uiso   1.00
C29    C     0.26123   0.17093   0.48145   0.00000  Uiso   1.00
C30    C     0.08388   0.21498   0.03271   0.00000  Uiso   1.00
C31    C     0.18122   0.19961   0.48427   0.00000  Uiso   1.00
C32    C     0.16290   0.18340   0.02847   0.00000  Uiso   1.00
Cu33   Cu    0.04689   0.16667   0.25000   0.00000  Uiso   1.00
Cu34   Cu    0.28645   0.16666   0.25000   0.00000  Uiso   1.00
H35    H     0.27053   0.15226   0.04640   0.00000  Uiso   1.00
H36    H     0.08425   0.26010   0.48055   0.00000  Uiso   1.00
H37    H     0.31290   0.21340   0.11711   0.00000  Uiso   1.00
H38    H     0.02701   0.15299   0.39385   0.00000  Uiso   1.00
H39    H     0.00142   0.15008   0.47584   0.00000  Uiso   1.00
H40    H     0.01351   0.24442   0.04299   0.00000  Uiso   1.00
H41    H     0.18552   0.16108   0.08672   0.00000  Uiso   1.00
H42    H     0.16802   0.24855   0.43997   0.00000  Uiso   1.00
H43    H     0.25470   0.03761   0.26609   0.00000  Uiso   1.00
H44    H     0.07876   0.29572   0.23398   0.00000  Uiso   1.00
H45    H     0.25455   0.29612   0.26647   0.00000  Uiso   1.00
H46    H     0.07883   0.03725   0.23373   0.00000  Uiso   1.00
H47    H     0.19820   0.12050   0.29908   0.00000  Uiso   1.00
H48    H     0.13665   0.21121   0.19857   0.00000  Uiso   1.00
N49    N     0.11736   0.16668   0.24999   0.00000  Uiso   1.00
N50    N     0.21597   0.16666   0.25001   0.00000  Uiso   1.00
O51    O     0.03958   0.10655   0.25000   0.00000  Uiso   1.00
O52    O     0.29375   0.22678   0.25000   0.00000  Uiso   1.00
O53    O     0.29372   0.10654   0.25000   0.00000  Uiso   1.00
O54    O     0.03961   0.22679   0.24999   0.00000  Uiso   1.00
O55    O     0.01852   0.16668   0.31491   0.00000  Uiso   1.00
O56    O     0.31481   0.16666   0.18508   0.00000  Uiso   1.00
O57    O     0.27267   0.16667   0.31492   0.00000  Uiso   1.00
O58    O     0.06067   0.16667   0.18508   0.00000  Uiso   1.00
C59    C     0.10590   0.11924   0.09494   0.00000  Uiso   1.00
O60    O     0.13056   0.10026   0.06244   0.00000  Uiso   1.00
O61    O     0.09204   0.09957   0.13710   0.00000  Uiso   1.00
H62    H     0.10573   0.07061   0.13647   0.00000  Uiso   1.00
C63    C     0.20669   0.19614   0.38402   0.00000  Uiso   1.00
O64    O     0.17073   0.17432   0.38894   0.00000  Uiso   1.00
O65    O     0.21401   0.22982   0.35427   0.00000  Uiso   1.00
H66    H     0.18722   0.23277   0.33842   0.00000  Uiso   1.00
O67    O     0.09787   0.11500   0.30622   0.00000  Uiso   1.00
C68    C     0.11363   0.08969   0.33722   0.00000  Uiso   1.00
H69    H     0.08074   0.08096   0.36441   0.00000  Uiso   1.00
H70    H     0.13683   0.10638   0.35510   0.00000  Uiso   1.00
C71    C     0.13674   0.04969   0.31463   0.00000  Uiso   1.00
H72    H     0.10825   0.03084   0.30568   0.00000  Uiso   1.00
H73    H     0.16522   0.05654   0.28289   0.00000  Uiso   1.00
C74    C     0.15943   0.02459   0.34597   0.00000  Uiso   1.00
H75    H     0.18916   0.04237   0.35416   0.00000  Uiso   1.00
H76    H     0.17495   0.32889   0.32901   0.00000  Uiso   1.00
H77    H     0.13143   0.01670   0.37774   0.00000  Uiso   1.00
O78    O     0.23410   0.21664   0.19130   0.00000  Uiso   1.00
C79    C     0.21728   0.25694   0.18543   0.00000  Uiso   1.00
H80    H     0.24640   0.27887   0.18751   0.00000  Uiso   1.00
H81    H     0.18444   0.26653   0.21246   0.00000  Uiso   1.00
C82    C     0.20903   0.26143   0.13829   0.00000  Uiso   1.00
H83    H     0.24449   0.25866   0.11226   0.00000  Uiso   1.00
H84    H     0.18501   0.23650   0.13226   0.00000  Uiso   1.00
C85    C     0.18611   0.30303   0.13266   0.00000  Uiso   1.00
H86    H     0.14982   0.30596   0.15741   0.00000  Uiso   1.00
H87    H     0.18137   0.30560   0.09802   0.00000  Uiso   1.00
H88    H     0.20992   0.32855   0.13778   0.00000  Uiso   1.00
C89    C     0.33338   0.08735   0.25001   0.00000  Uiso   1.00
C90    C     0.66663   0.24599   0.24999   0.00000  Uiso   1.00
C91    C     0.52987   0.16826   0.05096   0.00000  Uiso   1.00
C92    C     0.48620   0.22938   0.46920   0.00000  Uiso   1.00
C93    C     0.57883   0.16374   0.02808   0.00000  Uiso   1.00
C94    C     0.43830   0.23703   0.49319   0.00000  Uiso   1.00
C95    C     0.62252   0.02142   0.25891   0.00000  Uiso   1.00
C96    C     0.37756   0.31191   0.24116   0.00000  Uiso   1.00
C97    C     0.62244   0.31213   0.25904   0.00000  Uiso   1.00
C98    C     0.37762   0.02122   0.24109   0.00000  Uiso   1.00
C99    C     0.66663   0.29059   0.25004   0.00000  Uiso   1.00
C100   C     0.33343   0.04275   0.25001   0.00000  Uiso   1.00
C101   C     0.51700   0.14092   0.27808   0.00000  Uiso   1.00
C102   C     0.48315   0.19194   0.22154   0.00000  Uiso   1.00
C103   C     0.46637   0.14076   0.27875   0.00000  Uiso   1.00
C104   C     0.53315   0.19279   0.22182   0.00000  Uiso   1.00
C105   C     0.63915   0.16885   0.33642   0.00000  Uiso   1.00
C106   C     0.36066   0.16685   0.16373   0.00000  Uiso   1.00
C107   C     0.62382   0.17346   0.38637   0.00000  Uiso   1.00
C108   C     0.37576   0.17508   0.11500   0.00000  Uiso   1.00
C109   C     0.64237   0.16092   0.45793   0.00000  Uiso   1.00
C110   C     0.36853   0.22227   0.05576   0.00000  Uiso   1.00
C111   C     0.65694   0.16257   0.41100   0.00000  Uiso   1.00
C112   C     0.34866   0.20375   0.09749   0.00000  Uiso   1.00
C113   C     0.57607   0.18695   0.40984   0.00000  Uiso   1.00
C114   C     0.42179   0.16196   0.08835   0.00000  Uiso   1.00
C115   C     0.56175   0.18711   0.45811   0.00000  Uiso   1.00
C116   C     0.44548   0.18631   0.05008   0.00000  Uiso   1.00
C117   C     0.59456   0.17093   0.48145   0.00000  Uiso   1.00
C118   C     0.41721   0.21498   0.03271   0.00000  Uiso   1.00
C119   C     0.51456   0.19961   0.48427   0.00000  Uiso   1.00
C120   C     0.49623   0.18340   0.02847   0.00000  Uiso   1.00
Cu121  Cu    0.38022   0.16667   0.25000   0.00000  Uiso   1.00
Cu122  Cu    0.61978   0.16666   0.25000   0.00000  Uiso   1.00
H123   H     0.60386   0.15226   0.04640   0.00000  Uiso   1.00
H124   H     0.41758   0.26010   0.48055   0.00000  Uiso   1.00
H125   H     0.64623   0.21340   0.11711   0.00000  Uiso   1.00
H126   H     0.36034   0.15299   0.39385   0.00000  Uiso   1.00
H127   H     0.33475   0.15008   0.47584   0.00000  Uiso   1.00
H128   H     0.34684   0.24442   0.04299   0.00000  Uiso   1.00
H129   H     0.51885   0.16108   0.08672   0.00000  Uiso   1.00
H130   H     0.50135   0.24855   0.43997   0.00000  Uiso   1.00
H131   H     0.58803   0.03761   0.26609   0.00000  Uiso   1.00
H132   H     0.41209   0.29572   0.23398   0.00000  Uiso   1.00
H133   H     0.58788   0.29612   0.26647   0.00000  Uiso   1.00
H134   H     0.41216   0.03725   0.23373   0.00000  Uiso   1.00
H135   H     0.53153   0.12050   0.29908   0.00000  Uiso   1.00
H136   H     0.46998   0.21121   0.19857   0.00000  Uiso   1.00
N137   N     0.45069   0.16668   0.24999   0.00000  Uiso   1.00
N138   N     0.54931   0.16666   0.25001   0.00000  Uiso   1.00
O139   O     0.37291   0.10655   0.25000   0.00000  Uiso   1.00
O140   O     0.62709   0.22678   0.25000   0.00000  Uiso   1.00
O141   O     0.62706   0.10654   0.25000   0.00000  Uiso   1.00
O142   O     0.37294   0.22679   0.24999   0.00000  Uiso   1.00
O143   O     0.35186   0.16668   0.31491   0.00000  Uiso   1.00
O144   O     0.64814   0.16666   0.18508   0.00000  Uiso   1.00
O145   O     0.60600   0.16667   0.31492   0.00000  Uiso   1.00
O146   O     0.39400   0.16667   0.18508   0.00000  Uiso   1.00
C147   C     0.43923   0.11924   0.09494   0.00000  Uiso   1.00
O148   O     0.46390   0.10026   0.06244   0.00000  Uiso   1.00
O149   O     0.42537   0.09957   0.13710   0.00000  Uiso   1.00
H150   H     0.43907   0.07061   0.13647   0.00000  Uiso   1.00
C151   C     0.54003   0.19614   0.38402   0.00000  Uiso   1.00
O152   O     0.50406   0.17432   0.38894   0.00000  Uiso   1.00
O153   O     0.54734   0.22982   0.35427   0.00000  Uiso   1.00
H154   H     0.52056   0.23277   0.33842   0.00000  Uiso   1.00
O155   O     0.43120   0.11500   0.30622   0.00000  Uiso   1.00
C156   C     0.44697   0.08969   0.33722   0.00000  Uiso   1.00
H157   H     0.41407   0.08096   0.36441   0.00000  Uiso   1.00
H158   H     0.47016   0.10638   0.35510   0.00000  Uiso   1.00
C159   C     0.47008   0.04969   0.31463   0.00000  Uiso   1.00
H160   H     0.44159   0.03084   0.30568   0.00000  Uiso   1.00
H161   H     0.49856   0.05654   0.28289   0.00000  Uiso   1.00
C162   C     0.49276   0.02459   0.34597   0.00000  Uiso   1.00
H163   H     0.52249   0.04237   0.35416   0.00000  Uiso   1.00
H164   H     0.50828   0.32889   0.32901   0.00000  Uiso   1.00
H165   H     0.46476   0.01670   0.37774   0.00000  Uiso   1.00
O166   O     0.56744   0.21664   0.19130   0.00000  Uiso   1.00
C167   C     0.55061   0.25694   0.18543   0.00000  Uiso   1.00
H168   H     0.57974   0.27887   0.18751   0.00000  Uiso   1.00
H169   H     0.51777   0.26653   0.21246   0.00000  Uiso   1.00
C170   C     0.54237   0.26143   0.13829   0.00000  Uiso   1.00
H171   H     0.57782   0.25866   0.11226   0.00000  Uiso   1.00
H172   H     0.51834   0.23650   0.13226   0.00000  Uiso   1.00
C173   C     0.51945   0.30303   0.13266   0.00000  Uiso   1.00
H174   H     0.48315   0.30596   0.15741   0.00000  Uiso   1.00
H175   H     0.51470   0.30560   0.09802   0.00000  Uiso   1.00
H176   H     0.54325   0.32855   0.13778   0.00000  Uiso   1.00
C177   C     0.66671   0.08735   0.25001   0.00000  Uiso   1.00
C178   C     0.99996   0.24599   0.24999   0.00000  Uiso   1.00
C179   C     0.86320   0.16826   0.05096   0.00000  Uiso   1.00
C180   C     0.81953   0.22938   0.46920   0.00000  Uiso   1.00
C181   C     0.91217   0.16374   0.02808   0.00000  Uiso   1.00
C182   C     0.77163   0.23703   0.49319   0.00000  Uiso   1.00
C183   C     0.95585   0.02142   0.25891   0.00000  Uiso   1.00
C184   C     0.71089   0.31191   0.24116   0.00000  Uiso   1.00
C185   C     0.95577   0.31213   0.25904   0.00000  Uiso   1.00
C186   C     0.71095   0.02122   0.24109   0.00000  Uiso   1.00
C187   C     0.99996   0.29059   0.25004   0.00000  Uiso   1.00
C188   C     0.66676   0.04275   0.25001   0.00000  Uiso   1.00
C189   C     0.85034   0.14092   0.27808   0.00000  Uiso   1.00
C190   C     0.81648   0.19194   0.22154   0.00000  Uiso   1.00
C191   C     0.79971   0.14076   0.27875   0.00000  Uiso   1.00
C192   C     0.86648   0.19279   0.22182   0.00000  Uiso   1.00
C193   C     0.97248   0.16885   0.33642   0.00000  Uiso   1.00
C194   C     0.69399   0.16685   0.16373   0.00000  Uiso   1.00
C195   C     0.95716   0.17346   0.38637   0.00000  Uiso   1.00
C196   C     0.70910   0.17508   0.11500   0.00000  Uiso   1.00
C197   C     0.97570   0.16092   0.45793   0.00000  Uiso   1.00
C198   C     0.70186   0.22227   0.05576   0.00000  Uiso   1.00
C199   C     0.99027   0.16257   0.41100   0.00000  Uiso   1.00
C200   C     0.68199   0.20375   0.09749   0.00000  Uiso   1.00
C201   C     0.90941   0.18695   0.40984   0.00000  Uiso   1.00
C202   C     0.75513   0.16196   0.08835   0.00000  Uiso   1.00
C203   C     0.89508   0.18711   0.45811   0.00000  Uiso   1.00
C204   C     0.77881   0.18631   0.05008   0.00000  Uiso   1.00
C205   C     0.92790   0.17093   0.48145   0.00000  Uiso   1.00
C206   C     0.75054   0.21498   0.03271   0.00000  Uiso   1.00
C207   C     0.84789   0.19961   0.48427   0.00000  Uiso   1.00
C208   C     0.82957   0.18340   0.02847   0.00000  Uiso   1.00
Cu209  Cu    0.71355   0.16667   0.25000   0.00000  Uiso   1.00
Cu210  Cu    0.95311   0.16666   0.25000   0.00000  Uiso   1.00
H211   H     0.93719   0.15226   0.04640   0.00000  Uiso   1.00
H212   H     0.75091   0.26010   0.48055   0.00000  Uiso   1.00
H213   H     0.97956   0.21340   0.11711   0.00000  Uiso   1.00
H214   H     0.69367   0.15299   0.39385   0.00000  Uiso   1.00
H215   H     0.66808   0.15008   0.47584   0.00000  Uiso   1.00
H216   H     0.68017   0.24442   0.04299   0.00000  Uiso   1.00
H217   H     0.85219   0.16108   0.08672   0.00000  Uiso   1.00
H218   H     0.83468   0.24855   0.43997   0.00000  Uiso   1.00
H219   H     0.92136   0.03761   0.26609   0.00000  Uiso   1.00
H220   H     0.74542   0.29572   0.23398   0.00000  Uiso   1.00
H221   H     0.92121   0.29612   0.26647   0.00000  Uiso   1.00
H222   H     0.74549   0.03725   0.23373   0.00000  Uiso   1.00
H223   H     0.86487   0.12050   0.29908   0.00000  Uiso   1.00
H224   H     0.80331   0.21121   0.19857   0.00000  Uiso   1.00
N225   N     0.78403   0.16668   0.24999   0.00000  Uiso   1.00
N226   N     0.88264   0.16666   0.25001   0.00000  Uiso   1.00
O227   O     0.70625   0.10655   0.25000   0.00000  Uiso   1.00
O228   O     0.96042   0.22678   0.25000   0.00000  Uiso   1.00
O229   O     0.96039   0.10654   0.25000   0.00000  Uiso   1.00
O230   O     0.70628   0.22679   0.24999   0.00000  Uiso   1.00
O231   O     0.68519   0.16668   0.31491   0.00000  Uiso   1.00
O232   O     0.98148   0.16666   0.18508   0.00000  Uiso   1.00
O233   O     0.93933   0.16667   0.31492   0.00000  Uiso   1.00
O234   O     0.72733   0.16667   0.18508   0.00000  Uiso   1.00
C235   C     0.77256   0.11924   0.09494   0.00000  Uiso   1.00
O236   O     0.79723   0.10026   0.06244   0.00000  Uiso   1.00
O237   O     0.75871   0.09957   0.13710   0.00000  Uiso   1.00
H238   H     0.77240   0.07061   0.13647   0.00000  Uiso   1.00
C239   C     0.87336   0.19614   0.38402   0.00000  Uiso   1.00
O240   O     0.83740   0.17432   0.38894   0.00000  Uiso   1.00
O241   O     0.88068   0.22982   0.35427   0.00000  Uiso   1.00
H242   H     0.85389   0.23277   0.33842   0.00000  Uiso   1.00
O243   O     0.76453   0.11500   0.30622   0.00000  Uiso   1.00
C244   C     0.78030   0.08969   0.33722   0.00000  Uiso   1.00
H245   H     0.74740   0.08096   0.36441   0.00000  Uiso   1.00
H246   H     0.80350   0.10638   0.35510   0.00000  Uiso   1.00
C247   C     0.80341   0.04969   0.31463   0.00000  Uiso   1.00
H248   H     0.77492   0.03084   0.30568   0.00000  Uiso   1.00
H249   H     0.83189   0.05654   0.28289   0.00000  Uiso   1.00
C250   C     0.82609   0.02459   0.34597   0.00000  Uiso   1.00
H251   H     0.85583   0.04237   0.35416   0.00000  Uiso   1.00
H252   H     0.84161   0.32889   0.32901   0.00000  Uiso   1.00
H253   H     0.79809   0.01670   0.37774   0.00000  Uiso   1.00
O254   O     0.90077   0.21664   0.19130   0.00000  Uiso   1.00
C255   C     0.88394   0.25694   0.18543   0.00000  Uiso   1.00
H256   H     0.91307   0.27887   0.18751   0.00000  Uiso   1.00
H257   H     0.85111   0.26653   0.21246   0.00000  Uiso   1.00
C258   C     0.87570   0.26143   0.13829   0.00000  Uiso   1.00
H259   H     0.91116   0.25866   0.11226   0.00000  Uiso   1.00
H260   H     0.85167   0.23650   0.13226   0.00000  Uiso   1.00
C261   C     0.85278   0.30303   0.13266   0.00000  Uiso   1.00
H262   H     0.81648   0.30596   0.15741   0.00000  Uiso   1.00
H263   H     0.84804   0.30560   0.09802   0.00000  Uiso   1.00
H264   H     0.87659   0.32855   0.13778   0.00000  Uiso   1.00
C265   C     0.00005   0.42068   0.25001   0.00000  Uiso   1.00
C266   C     0.33330   0.57932   0.24999   0.00000  Uiso   1.00
C267   C     0.19654   0.50160   0.05096   0.00000  Uiso   1.00
C268   C     0.15286   0.56271   0.46920   0.00000  Uiso   1.00
C269   C     0.24550   0.49708   0.02808   0.00000  Uiso   1.00
C270   C     0.10497   0.57037   0.49319   0.00000  Uiso   1.00
C271   C     0.28919   0.35475   0.25891   0.00000  Uiso   1.00
C272   C     0.04423   0.64525   0.24116   0.00000  Uiso   1.00
C273   C     0.28911   0.64546   0.25904   0.00000  Uiso   1.00
C274   C     0.04429   0.35455   0.24109   0.00000  Uiso   1.00
C275   C     0.33329   0.62392   0.25004   0.00000  Uiso   1.00
C276   C     0.00009   0.37608   0.25001   0.00000  Uiso   1.00
C277   C     0.18367   0.47425   0.27808   0.00000  Uiso   1.00
C278   C     0.14982   0.52527   0.22154   0.00000  Uiso   1.00
C279   C     0.13304   0.47410   0.27875   0.00000  Uiso   1.00
C280   C     0.19982   0.52613   0.22182   0.00000  Uiso   1.00
C281   C     0.30582   0.50218   0.33642   0.00000  Uiso   1.00
C282   C     0.02732   0.50018   0.16373   0.00000  Uiso   1.00
C283   C     0.29049   0.50679   0.38637   0.00000  Uiso   1.00
C284   C     0.04243   0.50841   0.11500   0.00000  Uiso   1.00
C285   C     0.30904   0.49425   0.45793   0.00000  Uiso   1.00
C286   C     0.03519   0.55561   0.05576   0.00000  Uiso   1.00
C287   C     0.32361   0.49590   0.41100   0.00000  Uiso   1.00
C288   C     0.01533   0.53708   0.09749   0.00000  Uiso   1.00
C289   C     0.24274   0.52028   0.40984   0.00000  Uiso   1.00
C290   C     0.08846   0.49529   0.08835   0.00000  Uiso   1.00
C291   C     0.22841   0.52044   0.45811   0.00000  Uiso   1.00
C292   C     0.11214   0.51964   0.05008   0.00000  Uiso   1.00
C293   C     0.26123   0.50426   0.48145   0.00000  Uiso   1.00
C294   C     0.08388   0.54831   0.03271   0.00000  Uiso   1.00
C295   C     0.18122   0.53295   0.48427   0.00000  Uiso   1.00
C296   C     0.16290   0.51673   0.02847   0.00000  Uiso   1.00
Cu297  Cu    0.04689   0.50001   0.25000   0.00000  Uiso   1.00
Cu298  Cu    0.28645   0.49999   0.25000   0.00000  Uiso   1.00
H299   H     0.27053   0.48559   0.04640   0.00000  Uiso   1.00
H300   H     0.08425   0.59343   0.48055   0.00000  Uiso   1.00
H301   H     0.31290   0.54673   0.11711   0.00000  Uiso   1.00
H302   H     0.02701   0.48632   0.39385   0.00000  Uiso   1.00
H303   H     0.00142   0.48341   0.47584   0.00000  Uiso   1.00
H304   H     0.01351   0.57775   0.04299   0.00000  Uiso   1.00
H305   H     0.18552   0.49441   0.08672   0.00000  Uiso   1.00
H306   H     0.16802   0.58188   0.43997   0.00000  Uiso   1.00
H307   H     0.25470   0.37095   0.26609   0.00000  Uiso   1.00
H308   H     0.07876   0.62906   0.23398   0.00000  Uiso   1.00
H309   H     0.25455   0.62945   0.26647   0.00000  Uiso   1.00
H310   H     0.07883   0.37058   0.23373   0.00000  Uiso   1.00
H311   H     0.19820   0.45383   0.29908   0.00000  Uiso   1.00
H312   H     0.13665   0.54454   0.19857   0.00000  Uiso   1.00
N313   N     0.11736   0.50001   0.24999   0.00000  Uiso   1.00
N314   N     0.21597   0.49999   0.25001   0.00000  Uiso   1.00
O315   O     0.03958   0.43989   0.25000   0.00000  Uiso   1.00
O316   O     0.29375   0.56011   0.25000   0.00000  Uiso   1.00
O317   O     0.29372   0.43988   0.25000   0.00000  Uiso   1.00
O318   O     0.03961   0.56012   0.24999   0.00000  Uiso   1.00
O319   O     0.01852   0.50001   0.31491   0.00000  Uiso   1.00
O320   O     0.31481   0.49999   0.18508   0.00000  Uiso   1.00
O321   O     0.27267   0.50000   0.31492   0.00000  Uiso   1.00
O322   O     0.06067   0.50000   0.18508   0.00000  Uiso   1.00
C323   C     0.10590   0.45258   0.09494   0.00000  Uiso   1.00
O324   O     0.13056   0.43360   0.06244   0.00000  Uiso   1.00
O325   O     0.09204   0.43290   0.13710   0.00000  Uiso   1.00
H326   H     0.10573   0.40394   0.13647   0.00000  Uiso   1.00
C327   C     0.20669   0.52947   0.38402   0.00000  Uiso   1.00
O328   O     0.17073   0.50765   0.38894   0.00000  Uiso   1.00
O329   O     0.21401   0.56316   0.35427   0.00000  Uiso   1.00
H330   H     0.18722   0.56610   0.33842   0.00000  Uiso   1.00
O331   O     0.09787   0.44833   0.30622   0.00000  Uiso   1.00
C332   C     0.11363   0.42303   0.33722   0.00000  Uiso   1.00
H333   H     0.08074   0.41429   0.36441   0.00000  Uiso   1.00
H334   H     0.13683   0.43971   0.35510   0.00000  Uiso   1.00
C335   C     0.13674   0.38302   0.31463   0.00000  Uiso   1.00
H336   H     0.10825   0.36418   0.30568   0.00000  Uiso   1.00
H337   H     0.16522   0.38987   0.28289   0.00000  Uiso   1.00
C338   C     0.15943   0.35793   0.34597   0.00000  Uiso   1.00
H339   H     0.18916   0.37570   0.35416   0.00000  Uiso   1.00
H340   H     0.17495   0.66223   0.32901   0.00000  Uiso   1.00
H341   H     0.13143   0.35004   0.37774   0.00000  Uiso   1.00
O342   O     0.23410   0.54997   0.19130   0.00000  Uiso   1.00
C343   C     0.21728   0.59027   0.18543   0.00000  Uiso   1.00
H344   H     0.24640   0.61221   0.18751   0.00000  Uiso   1.00
H345   H     0.18444   0.59986   0.21246   0.00000  Uiso   1.00
C346   C     0.20903   0.59476   0.13829   0.00000  Uiso   1.00
H347   H     0.24449   0.59199   0.11226   0.00000  Uiso   1.00
H348   H     0.18501   0.56983   0.13226   0.00000  Uiso   1.00
C349   C     0.18611   0.63637   0.13266   0.00000  Uiso   1.00
H350   H     0.14982   0.63929   0.15741   0.00000  Uiso   1.00
H351   H     0.18137   0.63893   0.09802   0.00000  Uiso   1.00
H352   H     0.20992   0.66189   0.13778   0.00000  Uiso   1.00
C353   C     0.33338   0.42068   0.25001   0.00000  Uiso   1.00
C354   C     0.66663   0.57932   0.24999   0.00000  Uiso   1.00
C355   C     0.52987   0.50160   0.05096   0.00000  Uiso   1.00
C356   C     0.48620   0.56271   0.46920   0.00000  Uiso   1.00
C357   C     0.57883   0.49708   0.02808   0.00000  Uiso   1.00
C358   C     0.43830   0.57037   0.49319   0.00000  Uiso   1.00
C359   C     0.62252   0.35475   0.25891   0.00000  Uiso   1.00
C360   C     0.37756   0.64525   0.24116   0.00000  Uiso   1.00
C361   C     0.62244   0.64546   0.25904   0.00000  Uiso   1.00
C362   C     0.37762   0.35455   0.24109   0.00000  Uiso   1.00
C363   C     0.66663   0.62392   0.25004   0.00000  Uiso   1.00
C364   C     0.33343   0.37608   0.25001   0.00000  Uiso   1.00
C365   C     0.51700   0.47425   0.27808   0.00000  Uiso   1.00
C366   C     0.48315   0.52527   0.22154   0.00000  Uiso   1.00
C367   C     0.46637   0.47410   0.27875   0.00000  Uiso   1.00
C368   C     0.53315   0.52613   0.22182   0.00000  Uiso   1.00
C369   C     0.63915   0.50218   0.33642   0.00000  Uiso   1.00
C370   C     0.36066   0.50018   0.16373   0.00000  Uiso   1.00
C371   C     0.62382   0.50679   0.38637   0.00000  Uiso   1.00
C372   C     0.37576   0.50841   0.11500   0.00000  Uiso   1.00
C373   C     0.64237   0.49425   0.45793   0.00000  Uiso   1.00
C374   C     0.36853   0.55561   0.05576   0.00000  Uiso   1.00
C375   C     0.65694   0.49590   0.41100   0.00000  Uiso   1.00
C376   C     0.34866   0.53708   0.09749   0.00000  Uiso   1.00
C377   C     0.57607   0.52028   0.40984   0.00000  Uiso   1.00
C378   C     0.42179   0.49529   0.08835   0.00000  Uiso   1.00
C379   C     0.56175   0.52044   0.45811   0.00000  Uiso   1.00
C380   C     0.44548   0.51964   0.05008   0.00000  Uiso   1.00
C381   C     0.59456   0.50426   0.48145   0.00000  Uiso   1.00
C382   C     0.41721   0.54831   0.03271   0.00000  Uiso   1.00
C383   C     0.51456   0.53295   0.48427   0.00000  Uiso   1.00
C384   C     0.49623   0.51673   0.02847   0.00000  Uiso   1.00
Cu385  Cu    0.38022   0.50001   0.25000   0.00000  Uiso   1.00
Cu386  Cu    0.61978   0.49999   0.25000   0.00000  Uiso   1.00
H387   H     0.60386   0.48559   0.04640   0.00000  Uiso   1.00
H388   H     0.41758   0.59343   0.48055   0.00000  Uiso   1.00
H389   H     0.64623   0.54673   0.11711   0.00000  Uiso   1.00
H390   H     0.36034   0.48632   0.39385   0.00000  Uiso   1.00
H391   H     0.33475   0.48341   0.47584   0.00000  Uiso   1.00
H392   H     0.34684   0.57775   0.04299   0.00000  Uiso   1.00
H393   H     0.51885   0.49441   0.08672   0.00000  Uiso   1.00
H394   H     0.50135   0.58188   0.43997   0.00000  Uiso   1.00
H395   H     0.58803   0.37095   0.26609   0.00000  Uiso   1.00
H396   H     0.41209   0.62906   0.23398   0.00000  Uiso   1.00
H397   H     0.58788   0.62945   0.26647   0.00000  Uiso   1.00
H398   H     0.41216   0.37058   0.23373   0.00000  Uiso   1.00
H399   H     0.53153   0.45383   0.29908   0.00000  Uiso   1.00
H400   H     0.46998   0.54454   0.19857   0.00000  Uiso   1.00
N401   N     0.45069   0.50001   0.24999   0.00000  Uiso   1.00
N402   N     0.54931   0.49999   0.25001   0.00000  Uiso   1.00
O403   O     0.37291   0.43989   0.25000   0.00000  Uiso   1.00
O404   O     0.62709   0.56011   0.25000   0.00000  Uiso   1.00
O405   O     0.62706   0.43988   0.25000   0.00000  Uiso   1.00
O406   O     0.37294   0.56012   0.24999   0.00000  Uiso   1.00
O407   O     0.35186   0.50001   0.31491   0.00000  Uiso   1.00
O408   O     0.64814   0.49999   0.18508   0.00000  Uiso   1.00
O409   O     0.60600   0.50000   0.31492   0.00000  Uiso   1.00
O410   O     0.39400   0.50000   0.18508   0.00000  Uiso   1.00
C411   C     0.43923   0.45258   0.09494   0.00000  Uiso   1.00
O412   O     0.46390   0.43360   0.06244   0.00000  Uiso   1.00
O413   O     0.42537   0.43290   0.13710   0.00000  Uiso   1.00
H414   H     0.43907   0.40394   0.13647   0.00000  Uiso   1.00
C415   C     0.54003   0.52947   0.38402   0.00000  Uiso   1.00
O416   O     0.50406   0.50765   0.38894   0.00000  Uiso   1.00
O417   O     0.54734   0.56316   0.35427   0.00000  Uiso   1.00
H418   H     0.52056   0.56610   0.33842   0.00000  Uiso   1.00
O419   O     0.43120   0.44833   0.30622   0.00000  Uiso   1.00
C420   C     0.44697   0.42303   0.33722   0.00000  Uiso   1.00
H421   H     0.41407   0.41429   0.36441   0.00000  Uiso   1.00
H422   H     0.47016   0.43971   0.35510   0.00000  Uiso   1.00
C423   C     0.47008   0.38302   0.31463   0.00000  Uiso   1.00
H424   H     0.44159   0.36418   0.30568   0.00000  Uiso   1.00
H425   H     0.49856   0.38987   0.28289   0.00000  Uiso   1.00
C426   C     0.49276   0.35793   0.34597   0.00000  Uiso   1.00
H427   H     0.52249   0.37570   0.35416   0.00000  Uiso   1.00
H428   H     0.50828   0.66223   0.32901   0.00000  Uiso   1.00
H429   H     0.46476   0.35004   0.37774   0.00000  Uiso   1.00
O430   O     0.56744   0.54997   0.19130   0.00000  Uiso   1.00
C431   C     0.55061   0.59027   0.18543   0.00000  Uiso   1.00
H432   H     0.57974   0.61221   0.18751   0.00000  Uiso   1.00
H433   H     0.51777   0.59986   0.21246   0.00000  Uiso   1.00
C434   C     0.54237   0.59476   0.13829   0.00000  Uiso   1.00
H435   H     0.57782   0.59199   0.11226   0.00000  Uiso   1.00
H436   H     0.51834   0.56983   0.13226   0.00000  Uiso   1.00
C437   C     0.51945   0.63637   0.13266   0.00000  Uiso   1.00
H438   H     0.48315   0.63929   0.15741   0.00000  Uiso   1.00
H439   H     0.51470   0.63893   0.09802   0.00000  Uiso   1.00
H440   H     0.54325   0.66189   0.13778   0.00000  Uiso   1.00
C441   C     0.66671   0.42068   0.25001   0.00000  Uiso   1.00
C442   C     0.99996   0.57932   0.24999   0.00000  Uiso   1.00
C443   C     0.86320   0.50160   0.05096   0.00000  Uiso   1.00
C444   C     0.81953   0.56271   0.46920   0.00000  Uiso   1.00
C445   C     0.91217   0.49708   0.02808   0.00000  Uiso   1.00
C446   C     0.77163   0.57037   0.49319   0.00000  Uiso   1.00
C447   C     0.95585   0.35475   0.25891   0.00000  Uiso   1.00
C448   C     0.71089   0.64525   0.24116   0.00000  Uiso   1.00
C449   C     0.95577   0.64546   0.25904   0.00000  Uiso   1.00
C450   C     0.71095   0.35455   0.24109   0.00000  Uiso   1.00
C451   C     0.99996   0.62392   0.25004   0.00000  Uiso   1.00
C452   C     0.66676   0.37608   0.25001   0.00000  Uiso   1.00
C453   C     0.85034   0.47425   0.27808   0.00000  Uiso   1.00
C454   C     0.81648   0.52527   0.22154   0.00000  Uiso   1.00
C455   C     0.79971   0.47410   0.27875   0.00000  Uiso   1.00
C456   C     0.86648   0.52613   0.22182   0.00000  Uiso   1.00
C457   C     0.97248   0.50218   0.33642   0.00000  Uiso   1.00
C458   C     0.69399   0.50018   0.16373   0.00000  Uiso   1.00
C459   C     0.95716   0.50679   0.38637   0.00000  Uiso   1.00
C460   C     0.70910   0.50841   0.11500   0.00000  Uiso   1.00
C461   C     0.97570   0.49425   0.45793   0.00000  Uiso   1.00
C462   C     0.70186   0.55561   0.05576   0.00000  Uiso   1.00
C463   C     0.99027   0.49590   0.41100   0.00000  Uiso   1.00
C464   C     0.68199   0.53708   0.09749   0.00000  Uiso   1.00
C465   C     0.90941   0.52028   0.40984   0.00000  Uiso   1.00
C466   C     0.75513   0.49529   0.08835   0.00000  Uiso   1.00
C467   C     0.89508   0.52044   0.45811   0.00000  Uiso   1.00
C468   C     0.77881   0.51964   0.05008   0.00000  Uiso   1.00
C469   C     0.92790   0.50426   0.48145   0.00000  Uiso   1.00
C470   C     0.75054   0.54831   0.03271   0.00000  Uiso   1.00
C471   C     0.84789   0.53295   0.48427   0.00000  Uiso   1.00
C472   C     0.82957   0.51673   0.02847   0.00000  Uiso   1.00
Cu473  Cu    0.71355   0.50001   0.25000   0.00000  Uiso   1.00
Cu474  Cu    0.95311   0.49999   0.25000   0.00000  Uiso   1.00
H475   H     0.93719   0.48559   0.04640   0.00000  Uiso   1.00
H476   H     0.75091   0.59343   0.48055   0.00000  Uiso   1.00
H477   H     0.97956   0.54673   0.11711   0.00000  Uiso   1.00
H478   H     0.69367   0.48632   0.39385   0.00000  Uiso   1.00
H479   H     0.66808   0.48341   0.47584   0.00000  Uiso   1.00
H480   H     0.68017   0.57775   0.04299   0.00000  Uiso   1.00
H481   H     0.85219   0.49441   0.08672   0.00000  Uiso   1.00
H482   H     0.83468   0.58188   0.43997   0.00000  Uiso   1.00
H483   H     0.92136   0.37095   0.26609   0.00000  Uiso   1.00
H484   H     0.74542   0.62906   0.23398   0.00000  Uiso   1.00
H485   H     0.92121   0.62945   0.26647   0.00000  Uiso   1.00
H486   H     0.74549   0.37058   0.23373   0.00000  Uiso   1.00
H487   H     0.86487   0.45383   0.29908   0.00000  Uiso   1.00
H488   H     0.80331   0.54454   0.19857   0.00000  Uiso   1.00
N489   N     0.78403   0.50001   0.24999   0.00000  Uiso   1.00
N490   N     0.88264   0.49999   0.25001   0.00000  Uiso   1.00
O491   O     0.70625   0.43989   0.25000   0.00000  Uiso   1.00
O492   O     0.96042   0.56011   0.25000   0.00000  Uiso   1.00
O493   O     0.96039   0.43988   0.25000   0.00000  Uiso   1.00
O494   O     0.70628   0.56012   0.24999   0.00000  Uiso   1.00
O495   O     0.68519   0.50001   0.31491   0.00000  Uiso   1.00
O496   O     0.98148   0.49999   0.18508   0.00000  Uiso   1.00
O497   O     0.93933   0.50000   0.31492   0.00000  Uiso   1.00
O498   O     0.72733   0.50000   0.18508   0.00000  Uiso   1.00
C499   C     0.77256   0.45258   0.09494   0.00000  Uiso   1.00
O500   O     0.79723   0.43360   0.06244   0.00000  Uiso   1.00
O501   O     0.75871   0.43290   0.13710   0.00000  Uiso   1.00
H502   H     0.77240   0.40394   0.13647   0.00000  Uiso   1.00
C503   C     0.87336   0.52947   0.38402   0.00000  Uiso   1.00
O504   O     0.83740   0.50765   0.38894   0.00000  Uiso   1.00
O505   O     0.88068   0.56316   0.35427   0.00000  Uiso   1.00
H506   H     0.85389   0.56610   0.33842   0.00000  Uiso   1.00
O507   O     0.76453   0.44833   0.30622   0.00000  Uiso   1.00
C508   C     0.78030   0.42303   0.33722   0.00000  Uiso   1.00
H509   H     0.74740   0.41429   0.36441   0.00000  Uiso   1.00
H510   H     0.80350   0.43971   0.35510   0.00000  Uiso   1.00
C511   C     0.80341   0.38302   0.31463   0.00000  Uiso   1.00
H512   H     0.77492   0.36418   0.30568   0.00000  Uiso   1.00
H513   H     0.83189   0.38987   0.28289   0.00000  Uiso   1.00
C514   C     0.82609   0.35793   0.34597   0.00000  Uiso   1.00
H515   H     0.85583   0.37570   0.35416   0.00000  Uiso   1.00
H516   H     0.84161   0.66223   0.32901   0.00000  Uiso   1.00
H517   H     0.79809   0.35004   0.37774   0.00000  Uiso   1.00
O518   O     0.90077   0.54997   0.19130   0.00000  Uiso   1.00
C519   C     0.88394   0.59027   0.18543   0.00000  Uiso   1.00
H520   H     0.91307   0.61221   0.18751   0.00000  Uiso   1.00
H521   H     0.85111   0.59986   0.21246   0.00000  Uiso   1.00
C522   C     0.87570   0.59476   0.13829   0.00000  Uiso   1.00
H523   H     0.91116   0.59199   0.11226   0.00000  Uiso   1.00
H524   H     0.85167   0.56983   0.13226   0.00000  Uiso   1.00
C525   C     0.85278   0.63637   0.13266   0.00000  Uiso   1.00
H526   H     0.81648   0.63929   0.15741   0.00000  Uiso   1.00
H527   H     0.84804   0.63893   0.09802   0.00000  Uiso   1.00
H528   H     0.87659   0.66189   0.13778   0.00000  Uiso   1.00
C529   C     0.00005   0.75402   0.25001   0.00000  Uiso   1.00
C530   C     0.33330   0.91265   0.24999   0.00000  Uiso   1.00
C531   C     0.19654   0.83493   0.05096   0.00000  Uiso   1.00
C532   C     0.15286   0.89604   0.46920   0.00000  Uiso   1.00
C533   C     0.24550   0.83041   0.02808   0.00000  Uiso   1.00
C534   C     0.10497   0.90370   0.49319   0.00000  Uiso   1.00
C535   C     0.28919   0.68809   0.25891   0.00000  Uiso   1.00
C536   C     0.04423   0.97858   0.24116   0.00000  Uiso   1.00
C537   C     0.28911   0.97879   0.25904   0.00000  Uiso   1.00
C538   C     0.04429   0.68788   0.24109   0.00000  Uiso   1.00
C539   C     0.33329   0.95725   0.25004   0.00000  Uiso   1.00
C540   C     0.00009   0.70941   0.25001   0.00000  Uiso   1.00
C541   C     0.18367   0.80758   0.27808   0.00000  Uiso   1.00
C542   C     0.14982   0.85860   0.22154   0.00000  Uiso   1.00
C543   C     0.13304   0.80743   0.27875   0.00000  Uiso   1.00
C544   C     0.19982   0.85946   0.22182   0.00000  Uiso   1.00
C545   C     0.30582   0.83552   0.33642   0.00000  Uiso   1.00
C546   C     0.02732   0.83352   0.16373   0.00000  Uiso   1.00
C547   C     0.29049   0.84012   0.38637   0.00000  Uiso   1.00
C548   C     0.04243   0.84175   0.11500   0.00000  Uiso   1.00
C549   C     0.30904   0.82759   0.45793   0.00000  Uiso   1.00
C550   C     0.03519   0.88894   0.05576   0.00000  Uiso   1.00
C551   C     0.32361   0.82924   0.41100   0.00000  Uiso   1.00
C552   C     0.01533   0.87042   0.09749   0.00000  Uiso   1.00
C553   C     0.24274   0.85362   0.40984   0.00000  Uiso   1.00
C554   C     0.08846   0.82863   0.08835   0.00000  Uiso   1.00
C555   C     0.22841   0.85377   0.45811   0.00000  Uiso   1.00
C556   C     0.11214   0.85297   0.05008   0.00000  Uiso   1.00
C557   C     0.26123   0.83759   0.48145   0.00000  Uiso   1.00
C558   C     0.08388   0.88165   0.03271   0.00000  Uiso   1.00
C559   C     0.18122   0.86628   0.48427   0.00000  Uiso   1.00
C560   C     0.16290   0.85007   0.02847   0.00000  Uiso   1.00
Cu561  Cu    0.04689   0.83334   0.25000   0.00000  Uiso   1.00
Cu562  Cu    0.28645   0.83333   0.25000   0.00000  Uiso   1.00
H563   H     0.27053   0.81893   0.04640   0.00000  Uiso   1.00
H564   H     0.08425   0.92677   0.48055   0.00000  Uiso   1.00
H565   H     0.31290   0.88006   0.11711   0.00000  Uiso   1.00
H566   H     0.02701   0.81966   0.39385   0.00000  Uiso   1.00
H567   H     0.00142   0.81674   0.47584   0.00000  Uiso   1.00
H568   H     0.01351   0.91109   0.04299   0.00000  Uiso   1.00
H569   H     0.18552   0.82774   0.08672   0.00000  Uiso   1.00
H570   H     0.16802   0.91522   0.43997   0.00000  Uiso   1.00
H571   H     0.25470   0.70428   0.26609   0.00000  Uiso   1.00
H572   H     0.07876   0.96239   0.23398   0.00000  Uiso   1.00
H573   H     0.25455   0.96278   0.26647   0.00000  Uiso   1.00
H574   H     0.07883   0.70392   0.23373   0.00000  Uiso   1.00
H575   H     0.19820   0.78716   0.29908   0.00000  Uiso   1.00
H576   H     0.13665   0.87787   0.19857   0.00000  Uiso   1.00
N577   N     0.11736   0.83334   0.24999   0.00000  Uiso   1.00
N578   N     0.21597   0.83332   0.25001   0.00000  Uiso   1.00
O579   O     0.03958   0.77322   0.25000   0.00000  Uiso   1.00
O580   O     0.29375   0.89345   0.25000   0.00000  Uiso   1.00
O581   O     0.29372   0.77321   0.25000   0.00000  Uiso   1.00
O582   O     0.03961   0.89346   0.24999   0.00000  Uiso   1.00
O583   O     0.01852   0.83334   0.31491   0.00000  Uiso   1.00
O584   O     0.31481   0.83332   0.18508   0.00000  Uiso   1.00
O585   O     0.27267   0.83333   0.31492   0.00000  Uiso   1.00
O586   O     0.06067   0.83333   0.18508   0.00000  Uiso   1.00
C587   C     0.10590   0.78591   0.09494   0.00000  Uiso   1.00
O588   O     0.13056   0.76693   0.06244   0.00000  Uiso   1.00
O589   O     0.09204   0.76623   0.13710   0.00000  Uiso   1.00
H590   H     0.10573   0.73727   0.13647   0.00000  Uiso   1.00
C591   C     0.20669   0.86280   0.38402   0.00000  Uiso   1.00
O592   O     0.17073   0.84099   0.38894   0.00000  Uiso   1.00
O593   O     0.21401   0.89649   0.35427   0.00000  Uiso   1.00
H594   H     0.18722   0.89943   0.33842   0.00000  Uiso   1.00
O595   O     0.09787   0.78167   0.30622   0.00000  Uiso   1.00
C596   C     0.11363   0.75636   0.33722   0.00000  Uiso   1.00
H597   H     0.08074   0.74763   0.36441   0.00000  Uiso   1.00
H598   H     0.13683   0.77304   0.35510   0.00000  Uiso   1.00
C599   C     0.13674   0.71635   0.31463   0.00000  Uiso   1.00
H600   H     0.10825   0.69751   0.30568   0.00000  Uiso   1.00
H601   H     0.16522   0.72320   0.28289   0.00000  Uiso   1.00
C602   C     0.15943   0.69126   0.34597   0.00000  Uiso   1.00
H603   H     0.18916   0.70903   0.35416   0.00000  Uiso   1.00
H604   H     0.17495   0.99556   0.32901   0.00000  Uiso   1.00
H605   H     0.13143   0.68337   0.37774   0.00000  Uiso   1.00
O606   O     0.23410   0.88331   0.19130   0.00000  Uiso   1.00
C607   C     0.21728   0.92361   0.18543   0.00000  Uiso   1.00
H608   H     0.24640   0.94554   0.18751   0.00000  Uiso   1.00
H609   H     0.18444   0.93319   0.21246   0.00000  Uiso   1.00
C610   C     0.20903   0.92810   0.13829   0.00000  Uiso   1.00
H611   H     0.24449   0.92533   0.11226   0.00000  Uiso   1.00
H612   H     0.18501   0.90316   0.13226   0.00000  Uiso   1.00
C613   C     0.18611   0.96970   0.13266   0.00000  Uiso   1.00
H614   H     0.14982   0.97262   0.15741   0.00000  Uiso   1.00
H615   H     0.18137   0.97227   0.09802   0.00000  Uiso   1.00
H616   H     0.20992   0.99522   0.13778   0.00000  Uiso   1.00
C617   C     0.33338   0.75402   0.25001   0.00000  Uiso   1.00
C618   C     0.66663   0.91265   0.24999   0.00000  Uiso   1.00
C619   C     0.52987   0.83493   0.05096   0.00000  Uiso   1.00
C620   C     0.48620   0.89604   0.46920   0.00000  Uiso   1.00
C621   C     0.57883   0.83041   0.02808   0.00000  Uiso   1.00
C622   C     0.43830   0.90370   0.49319   0.00000  Uiso   1.00
C623   C     0.62252   0.68809   0.25891   0.00000  Uiso   1.00
C624   C     0.37756   0.97858   0.24116   0.00000  Uiso   1.00
C625   C     0.62244   0.97879   0.25904   0.00000  Uiso   1.00
C626   C     0.37762   0.68788   0.24109   0.00000  Uiso   1.00
C627   C     0.66663   0.95725   0.25004   0.00000  Uiso   1.00
C628   C     0.33343   0.70941   0.25001   0.00000  Uiso   1.00
C629   C     0.51700   0.80758   0.27808   0.00000  Uiso   1.00
C630   C     0.48315   0.85860   0.22154   0.00000  Uiso   1.00
C631   C     0.46637   0.80743   0.27875   0.00000  Uiso   1.00
C632   C     0.53315   0.85946   0.22182   0.00000  Uiso   1.00
C633   C     0.63915   0.83552   0.33642   0.00000  Uiso   1.00
C634   C     0.36066   0.83352   0.16373   0.00000  Uiso   1.00
C635   C     0.62382   0.84012   0.38637   0.00000  Uiso   1.00
C636   C     0.37576   0.84175   0.11500   0.00000  Uiso   1.00
C637   C     0.64237   0.82759   0.45793   0.00000  Uiso   1.00
C638   C     0.36853   0.88894   0.05576   0.00000  Uiso   1.00
C639   C     0.65694   0.82924   0.41100   0.00000  Uiso   1.00
C640   C     0.34866   0.87042   0.09749   0.00000  Uiso   1.00
C641   C     0.57607   0.85362   0.40984   0.00000  Uiso   1.00
C642   C     0.42179   0.82863   0.08835   0.00000  Uiso   1.00
C643   C     0.56175   0.85377   0.45811   0.00000  Uiso   1.00
C644   C     0.44548   0.85297   0.05008   0.00000  Uiso   1.00
C645   C     0.59456   0.83759   0.48145   0.00000  Uiso   1.00
C646   C     0.41721   0.88165   0.03271   0.00000  Uiso   1.00
C647   C     0.51456   0.86628   0.48427   0.00000  Uiso   1.00
C648   C     0.49623   0.85007   0.02847   0.00000  Uiso   1.00
Cu649  Cu    0.38022   0.83334   0.25000   0.00000  Uiso   1.00
Cu650  Cu    0.61978   0.83333   0.25000   0.00000  Uiso   1.00
H651   H     0.60386   0.81893   0.04640   0.00000  Uiso   1.00
H652   H     0.41758   0.92677   0.48055   0.00000  Uiso   1.00
H653   H     0.64623   0.88006   0.11711   0.00000  Uiso   1.00
H654   H     0.36034   0.81966   0.39385   0.00000  Uiso   1.00
H655   H     0.33475   0.81674   0.47584   0.00000  Uiso   1.00
H656   H     0.34684   0.91109   0.04299   0.00000  Uiso   1.00
H657   H     0.51885   0.82774   0.08672   0.00000  Uiso   1.00
H658   H     0.50135   0.91522   0.43997   0.00000  Uiso   1.00
H659   H     0.58803   0.70428   0.26609   0.00000  Uiso   1.00
H660   H     0.41209   0.96239   0.23398   0.00000  Uiso   1.00
H661   H     0.58788   0.96278   0.26647   0.00000  Uiso   1.00
H662   H     0.41216   0.70392   0.23373   0.00000  Uiso   1.00
H663   H     0.53153   0.78716   0.29908   0.00000  Uiso   1.00
H664   H     0.46998   0.87787   0.19857   0.00000  Uiso   1.00
N665   N     0.45069   0.83334   0.24999   0.00000  Uiso   1.00
N666   N     0.54931   0.83332   0.25001   0.00000  Uiso   1.00
O667   O     0.37291   0.77322   0.25000   0.00000  Uiso   1.00
O668   O     0.62709   0.89345   0.25000   0.00000  Uiso   1.00
O669   O     0.62706   0.77321   0.25000   0.00000  Uiso   1.00
O670   O     0.37294   0.89346   0.24999   0.00000  Uiso   1.00
O671   O     0.35186   0.83334   0.31491   0.00000  Uiso   1.00
O672   O     0.64814   0.83332   0.18508   0.00000  Uiso   1.00
O673   O     0.60600   0.83333   0.31492   0.00000  Uiso   1.00
O674   O     0.39400   0.83333   0.18508   0.00000  Uiso   1.00
C675   C     0.43923   0.78591   0.09494   0.00000  Uiso   1.00
O676   O     0.46390   0.76693   0.06244   0.00000  Uiso   1.00
O677   O     0.42537   0.76623   0.13710   0.00000  Uiso   1.00
H678   H     0.43907   0.73727   0.13647   0.00000  Uiso   1.00
C679   C     0.54003   0.86280   0.38402   0.00000  Uiso   1.00
O680   O     0.50406   0.84099   0.38894   0.00000  Uiso   1.00
O681   O     0.54734   0.89649   0.35427   0.00000  Uiso   1.00
H682   H     0.52056   0.89943   0.33842   0.00000  Uiso   1.00
O683   O     0.43120   0.78167   0.30622   0.00000  Uiso   1.00
C684   C     0.44697   0.75636   0.33722   0.00000  Uiso   1.00
H685   H     0.41407   0.74763   0.36441   0.00000  Uiso   1.00
H686   H     0.47016   0.77304   0.35510   0.00000  Uiso   1.00
C687   C     0.47008   0.71635   0.31463   0.00000  Uiso   1.00
H688   H     0.44159   0.69751   0.30568   0.00000  Uiso   1.00
H689   H     0.49856   0.72320   0.28289   0.00000  Uiso   1.00
C690   C     0.49276   0.69126   0.34597   0.00000  Uiso   1.00
H691   H     0.52249   0.70903   0.35416   0.00000  Uiso   1.00
H692   H     0.50828   0.99556   0.32901   0.00000  Uiso   1.00
H693   H     0.46476   0.68337   0.37774   0.00000  Uiso   1.00
O694   O     0.56744   0.88331   0.19130   0.00000  Uiso   1.00
C695   C     0.55061   0.92361   0.18543   0.00000  Uiso   1.00
H696   H     0.57974   0.94554   0.18751   0.00000  Uiso   1.00
H697   H     0.51777   0.93319   0.21246   0.00000  Uiso   1.00
C698   C     0.54237   0.92810   0.13829   0.00000  Uiso   1.00
H699   H     0.57782   0.92533   0.11226   0.00000  Uiso   1.00
H700   H     0.51834   0.90316   0.13226   0.00000  Uiso   1.00
C701   C     0.51945   0.96970   0.13266   0.00000  Uiso   1.00
H702   H     0.48315   0.97262   0.15741   0.00000  Uiso   1.00
H703   H     0.51470   0.97227   0.09802   0.00000  Uiso   1.00
H704   H     0.54325   0.99522   0.13778   0.00000  Uiso   1.00
C705   C     0.66671   0.75402   0.25001   0.00000  Uiso   1.00
C706   C     0.99996   0.91265   0.24999   0.00000  Uiso   1.00
C707   C     0.86320   0.83493   0.05096   0.00000  Uiso   1.00
C708   C     0.81953   0.89604   0.46920   0.00000  Uiso   1.00
C709   C     0.91217   0.83041   0.02808   0.00000  Uiso   1.00
C710   C     0.77163   0.90370   0.49319   0.00000  Uiso   1.00
C711   C     0.95585   0.68809   0.25891   0.00000  Uiso   1.00
C712   C     0.71089   0.97858   0.24116   0.00000  Uiso   1.00
C713   C     0.95577   0.97879   0.25904   0.00000  Uiso   1.00
C714   C     0.71095   0.68788   0.24109   0.00000  Uiso   1.00
C715   C     0.99996   0.95725   0.25004   0.00000  Uiso   1.00
C716   C     0.66676   0.70941   0.25001   0.00000  Uiso   1.00
C717   C     0.85034   0.80758   0.27808   0.00000  Uiso   1.00
C718   C     0.81648   0.85860   0.22154   0.00000  Uiso   1.00
C719   C     0.79971   0.80743   0.27875   0.00000  Uiso   1.00
C720   C     0.86648   0.85946   0.22182   0.00000  Uiso   1.00
C721   C     0.97248   0.83552   0.33642   0.00000  Uiso   1.00
C722   C     0.69399   0.83352   0.16373   0.00000  Uiso   1.00
C723   C     0.95716   0.84012   0.38637   0.00000  Uiso   1.00
C724   C     0.70910   0.84175   0.11500   0.00000  Uiso   1.00
C725   C     0.97570   0.82759   0.45793   0.00000  Uiso   1.00
C726   C     0.70186   0.88894   0.05576   0.00000  Uiso   1.00
C727   C     0.99027   0.82924   0.41100   0.00000  Uiso   1.00
C728   C     0.68199   0.87042   0.09749   0.00000  Uiso   1.00
C729   C     0.90941   0.85362   0.40984   0.00000  Uiso   1.00
C730   C     0.75513   0.82863   0.08835   0.00000  Uiso   1.00
C731   C     0.89508   0.85377   0.45811   0.00000  Uiso   1.00
C732   C     0.77881   0.85297   0.05008   0.00000  Uiso   1.00
C733   C     0.92790   0.83759   0.48145   0.00000  Uiso   1.00
C734   C     0.75054   0.88165   0.03271   0.00000  Uiso   1.00
C735   C     0.84789   0.86628   0.48427   0.00000  Uiso   1.00
C736   C     0.82957   0.85007   0.02847   0.00000  Uiso   1.00
Cu737  Cu    0.71355   0.83334   0.25000   0.00000  Uiso   1.00
Cu738  Cu    0.95311   0.83333   0.25000   0.00000  Uiso   1.00
H739   H     0.93719   0.81893   0.04640   0.00000  Uiso   1.00
H740   H     0.75091   0.92677   0.48055   0.00000  Uiso   1.00
H741   H     0.97956   0.88006   0.11711   0.00000  Uiso   1.00
H742   H     0.69367   0.81966   0.39385   0.00000  Uiso   1.00
H743   H     0.66808   0.81674   0.47584   0.00000  Uiso   1.00
H744   H     0.68017   0.91109   0.04299   0.00000  Uiso   1.00
H745   H     0.85219   0.82774   0.08672   0.00000  Uiso   1.00
H746   H     0.83468   0.91522   0.43997   0.00000  Uiso   1.00
H747   H     0.92136   0.70428   0.26609   0.00000  Uiso   1.00
H748   H     0.74542   0.96239   0.23398   0.00000  Uiso   1.00
H749   H     0.92121   0.96278   0.26647   0.00000  Uiso   1.00
H750   H     0.74549   0.70392   0.23373   0.00000  Uiso   1.00
H751   H     0.86487   0.78716   0.29908   0.00000  Uiso   1.00
H752   H     0.80331   0.87787   0.19857   0.00000  Uiso   1.00
N753   N     0.78403   0.83334   0.24999   0.00000  Uiso   1.00
N754   N     0.88264   0.83332   0.25001   0.00000  Uiso   1.00
O755   O     0.70625   0.77322   0.25000   0.00000  Uiso   1.00
O756   O     0.96042   0.89345   0.25000   0.00000  Uiso   1.00
O757   O     0.96039   0.77321   0.25000   0.00000  Uiso   1.00
O758   O     0.70628   0.89346   0.24999   0.00000  Uiso   1.00
O759   O     0.68519   0.83334   0.31491   0.00000  Uiso   1.00
O760   O     0.98148   0.83332   0.18508   0.00000  Uiso   1.00
O761   O     0.93933   0.83333   0.31492   0.00000  Uiso   1.00
O762   O     0.72733   0.83333   0.18508   0.00000  Uiso   1.00
C763   C     0.77256   0.78591   0.09494   0.00000  Uiso   1.00
O764   O     0.79723   0.76693   0.06244   0.00000  Uiso   1.00
O765   O     0.75871   0.76623   0.13710   0.00000  Uiso   1.00
H766   H     0.77240   0.73727   0.13647   0.00000  Uiso   1.00
C767   C     0.87336   0.86280   0.38402   0.00000  Uiso   1.00
O768   O     0.83740   0.84099   0.38894   0.00000  Uiso   1.00
O769   O     0.88068   0.89649   0.35427   0.00000  Uiso   1.00
H770   H     0.85389   0.89943   0.33842   0.00000  Uiso   1.00
O771   O     0.76453   0.78167   0.30622   0.00000  Uiso   1.00
C772   C     0.78030   0.75636   0.33722   0.00000  Uiso   1.00
H773   H     0.74740   0.74763   0.36441   0.00000  Uiso   1.00
H774   H     0.80350   0.77304   0.35510   0.00000  Uiso   1.00
C775   C     0.80341   0.71635   0.31463   0.00000  Uiso   1.00
H776   H     0.77492   0.69751   0.30568   0.00000  Uiso   1.00
H777   H     0.83189   0.72320   0.28289   0.00000  Uiso   1.00
C778   C     0.82609   0.69126   0.34597   0.00000  Uiso   1.00
H779   H     0.85583   0.70903   0.35416   0.00000  Uiso   1.00
H780   H     0.84161   0.99556   0.32901   0.00000  Uiso   1.00
H781   H     0.79809   0.68337   0.37774   0.00000  Uiso   1.00
O782   O     0.90077   0.88331   0.19130   0.00000  Uiso   1.00
C783   C     0.88394   0.92361   0.18543   0.00000  Uiso   1.00
H784   H     0.91307   0.94554   0.18751   0.00000  Uiso   1.00
H785   H     0.85111   0.93319   0.21246   0.00000  Uiso   1.00
C786   C     0.87570   0.92810   0.13829   0.00000  Uiso   1.00
H787   H     0.91116   0.92533   0.11226   0.00000  Uiso   1.00
H788   H     0.85167   0.90316   0.13226   0.00000  Uiso   1.00
C789   C     0.85278   0.96970   0.13266   0.00000  Uiso   1.00
H790   H     0.81648   0.97262   0.15741   0.00000  Uiso   1.00
H791   H     0.84804   0.97227   0.09802   0.00000  Uiso   1.00
H792   H     0.87659   0.99522   0.13778   0.00000  Uiso   1.00
C793   C     0.00005   0.08735   0.75001   0.00000  Uiso   1.00
C794   C     0.33330   0.24599   0.74999   0.00000  Uiso   1.00
C795   C     0.19654   0.16826   0.55096   0.00000  Uiso   1.00
C796   C     0.15286   0.22938   0.96920   0.00000  Uiso   1.00
C797   C     0.24550   0.16374   0.52808   0.00000  Uiso   1.00
C798   C     0.10497   0.23703   0.99319   0.00000  Uiso   1.00
C799   C     0.28919   0.02142   0.75891   0.00000  Uiso   1.00
C800   C     0.04423   0.31191   0.74116   0.00000  Uiso   1.00
C801   C     0.28911   0.31213   0.75904   0.00000  Uiso   1.00
C802   C     0.04429   0.02122   0.74109   0.00000  Uiso   1.00
C803   C     0.33329   0.29059   0.75004   0.00000  Uiso   1.00
C804   C     0.00009   0.04275   0.75001   0.00000  Uiso   1.00
C805   C     0.18367   0.14092   0.77808   0.00000  Uiso   1.00
C806   C     0.14982   0.19194   0.72154   0.00000  Uiso   1.00
C807   C     0.13304   0.14076   0.77875   0.00000  Uiso   1.00
C808   C     0.19982   0.19279   0.72182   0.00000  Uiso   1.00
C809   C     0.30582   0.16885   0.83642   0.00000  Uiso   1.00
C810   C     0.02732   0.16685   0.66373   0.00000  Uiso   1.00
C811   C     0.29049   0.17346   0.88637   0.00000  Uiso   1.00
C812   C     0.04243   0.17508   0.61500   0.00000  Uiso   1.00
C813   C     0.30904   0.16092   0.95793   0.00000  Uiso   1.00
C814   C     0.03519   0.22227   0.55576   0.00000  Uiso   1.00
C815   C     0.32361   0.16257   0.91100   0.00000  Uiso   1.00
C816   C     0.01533   0.20375   0.59749   0.00000  Uiso   1.00
C817   C     0.24274   0.18695   0.90984   0.00000  Uiso   1.00
C818   C     0.08846   0.16196   0.58835   0.00000  Uiso   1.00
C819   C     0.22841   0.18711   0.95811   0.00000  Uiso   1.00
C820   C     0.11214   0.18631   0.55008   0.00000  Uiso   1.00
C821   C     0.26123   0.17093   0.98145   0.00000  Uiso   1.00
C822   C     0.08388   0.21498   0.53271   0.00000  Uiso   1.00
C823   C     0.18122   0.19961   0.98427   0.00000  Uiso   1.00
C824   C     0.16290   0.18340   0.52847   0.00000  Uiso   1.00
Cu825  Cu    0.04689   0.16667   0.75000   0.00000  Uiso   1.00
Cu826  Cu    0.28645   0.16666   0.75000   0.00000  Uiso   1.00
H827   H     0.27053   0.15226   0.54640   0.00000  Uiso   1.00
H828   H     0.08425   0.26010   0.98055   0.00000  Uiso   1.00
H829   H     0.31290   0.21340   0.61711   0.00000  Uiso   1.00
H830   H     0.02701   0.15299   0.89385   0.00000  Uiso   1.00
H831   H     0.00142   0.15008   0.97584   0.00000  Uiso   1.00
H832   H     0.01351   0.24442   0.54299   0.00000  Uiso   1.00
H833   H     0.18552   0.16108   0.58672   0.00000  Uiso   1.00
H834   H     0.16802   0.24855   0.93997   0.00000  Uiso   1.00
H835   H     0.25470   0.03761   0.76609   0.00000  Uiso   1.00
H836   H     0.07876   0.29572   0.73398   0.00000  Uiso   1.00
H837   H     0.25455   0.29612   0.76647   0.00000  Uiso   1.00
H838   H     0.07883   0.03725   0.73373   0.00000  Uiso   1.00
H839   H     0.19820   0.12050   0.79908   0.00000  Uiso   1.00
H840   H     0.13665   0.21121   0.69857   0.00000  Uiso   1.00
N841   N     0.11736   0.16668   0.74999   0.00000  Uiso   1.00
N842   N     0.21597   0.16666   0.75001   0.00000  Uiso   1.00
O843   O     0.03958   0.10655   0.75000   0.00000  Uiso   1.00
O844   O     0.29375   0.22678   0.75000   0.00000  Uiso   1.00
O845   O     0.29372   0.10654   0.75000   0.00000  Uiso   1.00
O846   O     0.03961   0.22679   0.74999   0.00000  Uiso   1.00
O847   O     0.01852   0.16668   0.81491   0.00000  Uiso   1.00
O848   O     0.31481   0.16666   0.68508   0.00000  Uiso   1.00
O849   O     0.27267   0.16667   0.81492   0.00000  Uiso   1.00
O850   O     0.06067   0.16667   0.68508   0.00000  Uiso   1.00
C851   C     0.10590   0.11924   0.59494   0.00000  Uiso   1.00
O852   O     0.13056   0.10026   0.56244   0.00000  Uiso   1.00
O853   O     0.09204   0.09957   0.63710   0.00000  Uiso   1.00
H854   H     0.10573   0.07061   0.63647   0.00000  Uiso   1.00
C855   C     0.20669   0.19614   0.88402   0.00000  Uiso   1.00
O856   O     0.17073   0.17432   0.88894   0.00000  Uiso   1.00
O857   O     0.21401   0.22982   0.85427   0.00000  Uiso   1.00
H858   H     0.18722   0.23277   0.83842   0.00000  Uiso   1.00
O859   O     0.09787   0.11500   0.80622   0.00000  Uiso   1.00
C860   C     0.11363   0.08969   0.83722   0.00000  Uiso   1.00
H861   H     0.08074   0.08096   0.86441   0.00000  Uiso   1.00
H862   H     0.13683   0.10638   0.85510   0.00000  Uiso   1.00
C863   C     0.13674   0.04969   0.81463   0.00000  Uiso   1.00
H864   H     0.10825   0.03084   0.80568   0.00000  Uiso   1.00
H865   H     0.16522   0.05654   0.78289   0.00000  Uiso   1.00
C866   C     0.15943   0.02459   0.84597   0.00000  Uiso   1.00
H867   H     0.18916   0.04237   0.85416   0.00000  Uiso   1.00
H868   H     0.17495   0.32889   0.82901   0.00000  Uiso   1.00
H869   H     0.13143   0.01670   0.87774   0.00000  Uiso   1.00
O870   O     0.23410   0.21664   0.69130   0.00000  Uiso   1.00
C871   C     0.21728   0.25694   0.68543   0.00000  Uiso   1.00
H872   H     0.24640   0.27887   0.68751   0.00000  Uiso   1.00
H873   H     0.18444   0.26653   0.71246   0.00000  Uiso   1.00
C874   C     0.20903   0.26143   0.63829   0.00000  Uiso   1.00
H875   H     0.24449   0.25866   0.61226   0.00000  Uiso   1.00
H876   H     0.18501   0.23650   0.63226   0.00000  Uiso   1.00
C877   C     0.18611   0.30303   0.63266   0.00000  Uiso   1.00
H878   H     0.14982   0.30596   0.65741   0.00000  Uiso   1.00
H879   H     0.18137   0.30560   0.59802   0.00000  Uiso   1.00
H880   H     0.20992   0.32855   0.63778   0.00000  Uiso   1.00
C881   C     0.33338   0.08735   0.75001   0.00000  Uiso   1.00
C882   C     0.66663   0.24599   0.74999   0.00000  Uiso   1.00
C883   C     0.52987   0.16826   0.55096   0.00000  Uiso   1.00
C884   C     0.48620   0.22938   0.96920   0.00000  Uiso   1.00
C885   C     0.57883   0.16374   0.52808   0.00000  Uiso   1.00
C886   C     0.43830   0.23703   0.99319   0.00000  Uiso   1.00
C887   C     0.62252   0.02142   0.75891   0.00000  Uiso   1.00
C888   C     0.37756   0.31191   0.74116   0.00000  Uiso   1.00
C889   C     0.62244   0.31213   0.75904   0.00000  Uiso   1.00
C890   C     0.37762   0.02122   0.74109   0.00000  Uiso   1.00
C891   C     0.66663   0.29059   0.75004   0.00000  Uiso   1.00
C892   C     0.33343   0.04275   0.75001   0.00000  Uiso   1.00
C893   C     0.51700   0.14092   0.77808   0.00000  Uiso   1.00
C894   C     0.48315   0.19194   0.72154   0.00000  Uiso   1.00
C895   C     0.46637   0.14076   0.77875   0.00000  Uiso   1.00
C896   C     0.53315   0.19279   0.72182   0.00000  Uiso   1.00
C897   C     0.63915   0.16885   0.83642   0.00000  Uiso   1.00
C898   C     0.36066   0.16685   0.66373   0.00000  Uiso   1.00
C899   C     0.62382   0.17346   0.88637   0.00000  Uiso   1.00
C900   C     0.37576   0.17508   0.61500   0.00000  Uiso   1.00
C901   C     0.64237   0.16092   0.95793   0.00000  Uiso   1.00
C902   C     0.36853   0.22227   0.55576   0.00000  Uiso   1.00
C903   C     0.65694   0.16257   0.91100   0.00000  Uiso   1.00
C904   C     0.34866   0.20375   0.59749   0.00000  Uiso   1.00
C905   C     0.57607   0.18695   0.90984   0.00000  Uiso   1.00
C906   C     0.42179   0.16196   0.58835   0.00000  Uiso   1.00
C907   C     0.56175   0.18711   0.95811   0.00000  Uiso   1.00
C908   C     0.44548   0.18631   0.55008   0.00000  Uiso   1.00
C909   C     0.59456   0.17093   0.98145   0.00000  Uiso   1.00
C910   C     0.41721   0.21498   0.53271   0.00000  Uiso   1.00
C911   C     0.51456   0.19961   0.98427   0.00000  Uiso   1.00
C912   C     0.49623   0.18340   0.52847   0.00000  Uiso   1.00
Cu913  Cu    0.38022   0.16667   0.75000   0.00000  Uiso   1.00
Cu914  Cu    0.61978   0.16666   0.75000   0.00000  Uiso   1.00
H915   H     0.60386   0.15226   0.54640   0.00000  Uiso   1.00
H916   H     0.41758   0.26010   0.98055   0.00000  Uiso   1.00
H917   H     0.64623   0.21340   0.61711   0.00000  Uiso   1.00
H918   H     0.36034   0.15299   0.89385   0.00000  Uiso   1.00
H919   H     0.33475   0.15008   0.97584   0.00000  Uiso   1.00
H920   H     0.34684   0.24442   0.54299   0.00000  Uiso   1.00
H921   H     0.51885   0.16108   0.58672   0.00000  Uiso   1.00
H922   H     0.50135   0.24855   0.93997   0.00000  Uiso   1.00
H923   H     0.58803   0.03761   0.76609   0.00000  Uiso   1.00
H924   H     0.41209   0.29572   0.73398   0.00000  Uiso   1.00
H925   H     0.58788   0.29612   0.76647   0.00000  Uiso   1.00
H926   H     0.41216   0.03725   0.73373   0.00000  Uiso   1.00
H927   H     0.53153   0.12050   0.79908   0.00000  Uiso   1.00
H928   H     0.46998   0.21121   0.69857   0.00000  Uiso   1.00
N929   N     0.45069   0.16668   0.74999   0.00000  Uiso   1.00
N930   N     0.54931   0.16666   0.75001   0.00000  Uiso   1.00
O931   O     0.37291   0.10655   0.75000   0.00000  Uiso   1.00
O932   O     0.62709   0.22678   0.75000   0.00000  Uiso   1.00
O933   O     0.62706   0.10654   0.75000   0.00000  Uiso   1.00
O934   O     0.37294   0.22679   0.74999   0.00000  Uiso   1.00
O935   O     0.35186   0.16668   0.81491   0.00000  Uiso   1.00
O936   O     0.64814   0.16666   0.68508   0.00000  Uiso   1.00
O937   O     0.60600   0.16667   0.81492   0.00000  Uiso   1.00
O938   O     0.39400   0.16667   0.68508   0.00000  Uiso   1.00
C939   C     0.43923   0.11924   0.59494   0.00000  Uiso   1.00
O940   O     0.46390   0.10026   0.56244   0.00000  Uiso   1.00
O941   O     0.42537   0.09957   0.63710   0.00000  Uiso   1.00
H942   H     0.43907   0.07061   0.63647   0.00000  Uiso   1.00
C943   C     0.54003   0.19614   0.88402   0.00000  Uiso   1.00
O944   O     0.50406   0.17432   0.88894   0.00000  Uiso   1.00
O945   O     0.54734   0.22982   0.85427   0.00000  Uiso   1.00
H946   H     0.52056   0.23277   0.83842   0.00000  Uiso   1.00
O947   O     0.43120   0.11500   0.80622   0.00000  Uiso   1.00
C948   C     0.44697   0.08969   0.83722   0.00000  Uiso   1.00
H949   H     0.41407   0.08096   0.86441   0.00000  Uiso   1.00
H950   H     0.47016   0.10638   0.85510   0.00000  Uiso   1.00
C951   C     0.47008   0.04969   0.81463   0.00000  Uiso   1.00
H952   H     0.44159   0.03084   0.80568   0.00000  Uiso   1.00
H953   H     0.49856   0.05654   0.78289   0.00000  Uiso   1.00
C954   C     0.49276   0.02459   0.84597   0.00000  Uiso   1.00
H955   H     0.52249   0.04237   0.85416   0.00000  Uiso   1.00
H956   H     0.50828   0.32889   0.82901   0.00000  Uiso   1.00
H957   H     0.46476   0.01670   0.87774   0.00000  Uiso   1.00
O958   O     0.56744   0.21664   0.69130   0.00000  Uiso   1.00
C959   C     0.55061   0.25694   0.68543   0.00000  Uiso   1.00
H960   H     0.57974   0.27887   0.68751   0.00000  Uiso   1.00
H961   H     0.51777   0.26653   0.71246   0.00000  Uiso   1.00
C962   C     0.54237   0.26143   0.63829   0.00000  Uiso   1.00
H963   H     0.57782   0.25866   0.61226   0.00000  Uiso   1.00
H964   H     0.51834   0.23650   0.63226   0.00000  Uiso   1.00
C965   C     0.51945   0.30303   0.63266   0.00000  Uiso   1.00
H966   H     0.48315   0.30596   0.65741   0.00000  Uiso   1.00
H967   H     0.51470   0.30560   0.59802   0.00000  Uiso   1.00
H968   H     0.54325   0.32855   0.63778   0.00000  Uiso   1.00
C969   C     0.66671   0.08735   0.75001   0.00000  Uiso   1.00
C970   C     0.99996   0.24599   0.74999   0.00000  Uiso   1.00
C971   C     0.86320   0.16826   0.55096   0.00000  Uiso   1.00
C972   C     0.81953   0.22938   0.96920   0.00000  Uiso   1.00
C973   C     0.91217   0.16374   0.52808   0.00000  Uiso   1.00
C974   C     0.77163   0.23703   0.99319   0.00000  Uiso   1.00
C975   C     0.95585   0.02142   0.75891   0.00000  Uiso   1.00
C976   C     0.71089   0.31191   0.74116   0.00000  Uiso   1.00
C977   C     0.95577   0.31213   0.75904   0.00000  Uiso   1.00
C978   C     0.71095   0.02122   0.74109   0.00000  Uiso   1.00
C979   C     0.99996   0.29059   0.75004   0.00000  Uiso   1.00
C980   C     0.66676   0.04275   0.75001   0.00000  Uiso   1.00
C981   C     0.85034   0.14092   0.77808   0.00000  Uiso   1.00
C982   C     0.81648   0.19194   0.72154   0.00000  Uiso   1.00
C983   C     0.79971   0.14076   0.77875   0.00000  Uiso   1.00
C984   C     0.86648   0.19279   0.72182   0.00000  Uiso   1.00
C985   C     0.97248   0.16885   0.83642   0.00000  Uiso   1.00
C986   C     0.69399   0.16685   0.66373   0.00000  Uiso   1.00
C987   C     0.95716   0.17346   0.88637   0.00000  Uiso   1.00
C988   C     0.70910   0.17508   0.61500   0.00000  Uiso   1.00
C989   C     0.97570   0.16092   0.95793   0.00000  Uiso   1.00
C990   C     0.70186   0.22227   0.55576   0.00000  Uiso   1.00
C991   C     0.99027   0.16257   0.91100   0.00000  Uiso   1.00
C992   C     0.68199   0.20375   0.59749   0.00000  Uiso   1.00
C993   C     0.90941   0.18695   0.90984   0.00000  Uiso   1.00
C994   C     0.75513   0.16196   0.58835   0.00000  Uiso   1.00
C995   C     0.89508   0.18711   0.95811   0.00000  Uiso   1.00
C996   C     0.77881   0.18631   0.55008   0.00000  Uiso   1.00
C997   C     0.92790   0.17093   0.98145   0.00000  Uiso   1.00
C998   C     0.75054   0.21498   0.53271   0.00000  Uiso   1.00
C999   C     0.84789   0.19961   0.98427   0.00000  Uiso   1.00
C1000  C     0.82957   0.18340   0.52847   0.00000  Uiso   1.00
Cu1001 Cu    0.71355   0.16667   0.75000   0.00000  Uiso   1.00
Cu1002 Cu    0.95311   0.16666   0.75000   0.00000  Uiso   1.00
H1003  H     0.93719   0.15226   0.54640   0.00000  Uiso   1.00
H1004  H     0.75091   0.26010   0.98055   0.00000  Uiso   1.00
H1005  H     0.97956   0.21340   0.61711   0.00000  Uiso   1.00
H1006  H     0.69367   0.15299   0.89385   0.00000  Uiso   1.00
H1007  H     0.66808   0.15008   0.97584   0.00000  Uiso   1.00
H1008  H     0.68017   0.24442   0.54299   0.00000  Uiso   1.00
H1009  H     0.85219   0.16108   0.58672   0.00000  Uiso   1.00
H1010  H     0.83468   0.24855   0.93997   0.00000  Uiso   1.00
H1011  H     0.92136   0.03761   0.76609   0.00000  Uiso   1.00
H1012  H     0.74542   0.29572   0.73398   0.00000  Uiso   1.00
H1013  H     0.92121   0.29612   0.76647   0.00000  Uiso   1.00
H1014  H     0.74549   0.03725   0.73373   0.00000  Uiso   1.00
H1015  H     0.86487   0.12050   0.79908   0.00000  Uiso   1.00
H1016  H     0.80331   0.21121   0.69857   0.00000  Uiso   1.00
N1017  N     0.78403   0.16668   0.74999   0.00000  Uiso   1.00
N1018  N     0.88264   0.16666   0.75001   0.00000  Uiso   1.00
O1019  O     0.70625   0.10655   0.75000   0.00000  Uiso   1.00
O1020  O     0.96042   0.22678   0.75000   0.00000  Uiso   1.00
O1021  O     0.96039   0.10654   0.75000   0.00000  Uiso   1.00
O1022  O     0.70628   0.22679   0.74999   0.00000  Uiso   1.00
O1023  O     0.68519   0.16668   0.81491   0.00000  Uiso   1.00
O1024  O     0.98148   0.16666   0.68508   0.00000  Uiso   1.00
O1025  O     0.93933   0.16667   0.81492   0.00000  Uiso   1.00
O1026  O     0.72733   0.16667   0.68508   0.00000  Uiso   1.00
C1027  C     0.77256   0.11924   0.59494   0.00000  Uiso   1.00
O1028  O     0.79723   0.10026   0.56244   0.00000  Uiso   1.00
O1029  O     0.75871   0.09957   0.63710   0.00000  Uiso   1.00
H1030  H     0.77240   0.07061   0.63647   0.00000  Uiso   1.00
C1031  C     0.87336   0.19614   0.88402   0.00000  Uiso   1.00
O1032  O     0.83740   0.17432   0.88894   0.00000  Uiso   1.00
O1033  O     0.88068   0.22982   0.85427   0.00000  Uiso   1.00
H1034  H     0.85389   0.23277   0.83842   0.00000  Uiso   1.00
O1035  O     0.76453   0.11500   0.80622   0.00000  Uiso   1.00
C1036  C     0.78030   0.08969   0.83722   0.00000  Uiso   1.00
H1037  H     0.74740   0.08096   0.86441   0.00000  Uiso   1.00
H1038  H     0.80350   0.10638   0.85510   0.00000  Uiso   1.00
C1039  C     0.80341   0.04969   0.81463   0.00000  Uiso   1.00
H1040  H     0.77492   0.03084   0.80568   0.00000  Uiso   1.00
H1041  H     0.83189   0.05654   0.78289   0.00000  Uiso   1.00
C1042  C     0.82609   0.02459   0.84597   0.00000  Uiso   1.00
H1043  H     0.85583   0.04237   0.85416   0.00000  Uiso   1.00
H1044  H     0.84161   0.32889   0.82901   0.00000  Uiso   1.00
H1045  H     0.79809   0.01670   0.87774   0.00000  Uiso   1.00
O1046  O     0.90077   0.21664   0.69130   0.00000  Uiso   1.00
C1047  C     0.88394   0.25694   0.68543   0.00000  Uiso   1.00
H1048  H     0.91307   0.27887   0.68751   0.00000  Uiso   1.00
H1049  H     0.85111   0.26653   0.71246   0.00000  Uiso   1.00
C1050  C     0.87570   0.26143   0.63829   0.00000  Uiso   1.00
H1051  H     0.91116   0.25866   0.61226   0.00000  Uiso   1.00
H1052  H     0.85167   0.23650   0.63226   0.00000  Uiso   1.00
C1053  C     0.85278   0.30303   0.63266   0.00000  Uiso   1.00
H1054  H     0.81648   0.30596   0.65741   0.00000  Uiso   1.00
H1055  H     0.84804   0.30560   0.59802   0.00000  Uiso   1.00
H1056  H     0.87659   0.32855   0.63778   0.00000  Uiso   1.00
C1057  C     0.00005   0.42068   0.75001   0.00000  Uiso   1.00
C1058  C     0.33330   0.57932   0.74999   0.00000  Uiso   1.00
C1059  C     0.19654   0.50160   0.55096   0.00000  Uiso   1.00
C1060  C     0.15286   0.56271   0.96920   0.00000  Uiso   1.00
C1061  C     0.24550   0.49708   0.52808   0.00000  Uiso   1.00
C1062  C     0.10497   0.57037   0.99319   0.00000  Uiso   1.00
C1063  C     0.28919   0.35475   0.75891   0.00000  Uiso   1.00
C1064  C     0.04423   0.64525   0.74116   0.00000  Uiso   1.00
C1065  C     0.28911   0.64546   0.75904   0.00000  Uiso   1.00
C1066  C     0.04429   0.35455   0.74109   0.00000  Uiso   1.00
C1067  C     0.33329   0.62392   0.75004   0.00000  Uiso   1.00
C1068  C     0.00009   0.37608   0.75001   0.00000  Uiso   1.00
C1069  C     0.18367   0.47425   0.77808   0.00000  Uiso   1.00
C1070  C     0.14982   0.52527   0.72154   0.00000  Uiso   1.00
C1071  C     0.13304   0.47410   0.77875   0.00000  Uiso   1.00
C1072  C     0.19982   0.52613   0.72182   0.00000  Uiso   1.00
C1073  C     0.30582   0.50218   0.83642   0.00000  Uiso   1.00
C1074  C     0.02732   0.50018   0.66373   0.00000  Uiso   1.00
C1075  C     0.29049   0.50679   0.88637   0.00000  Uiso   1.00
C1076  C     0.04243   0.50841   0.61500   0.00000  Uiso   1.00
C1077  C     0.30904   0.49425   0.95793   0.00000  Uiso   1.00
C1078  C     0.03519   0.55561   0.55576   0.00000  Uiso   1.00
C1079  C     0.32361   0.49590   0.91100   0.00000  Uiso   1.00
C1080  C     0.01533   0.53708   0.59749   0.00000  Uiso   1.00
C1081  C     0.24274   0.52028   0.90984   0.00000  Uiso   1.00
C1082  C     0.08846   0.49529   0.58835   0.00000  Uiso   1.00
C1083  C     0.22841   0.52044   0.95811   0.00000  Uiso   1.00
C1084  C     0.11214   0.51964   0.55008   0.00000  Uiso   1.00
C1085  C     0.26123   0.50426   0.98145   0.00000  Uiso   1.00
C1086  C     0.08388   0.54831   0.53271   0.00000  Uiso   1.00
C1087  C     0.18122   0.53295   0.98427   0.00000  Uiso   1.00
C1088  C     0.16290   0.51673   0.52847   0.00000  Uiso   1.00
Cu1089 Cu    0.04689   0.50001   0.75000   0.00000  Uiso   1.00
Cu1090 Cu    0.28645   0.49999   0.75000   0.00000  Uiso   1.00
H1091  H     0.27053   0.48559   0.54640   0.00000  Uiso   1.00
H1092  H     0.08425   0.59343   0.98055   0.00000  Uiso   1.00
H1093  H     0.31290   0.54673   0.61711   0.00000  Uiso   1.00
H1094  H     0.02701   0.48632   0.89385   0.00000  Uiso   1.00
H1095  H     0.00142   0.48341   0.97584   0.00000  Uiso   1.00
H1096  H     0.01351   0.57775   0.54299   0.00000  Uiso   1.00
H1097  H     0.18552   0.49441   0.58672   0.00000  Uiso   1.00
H1098  H     0.16802   0.58188   0.93997   0.00000  Uiso   1.00
H1099  H     0.25470   0.37095   0.76609   0.00000  Uiso   1.00
H1100  H     0.07876   0.62906   0.73398   0.00000  Uiso   1.00
H1101  H     0.25455   0.62945   0.76647   0.00000  Uiso   1.00
H1102  H     0.07883   0.37058   0.73373   0.00000  Uiso   1.00
H1103  H     0.19820   0.45383   0.79908   0.00000  Uiso   1.00
H1104  H     0.13665   0.54454   0.69857   0.00000  Uiso   1.00
N1105  N     0.11736   0.50001   0.74999   0.00000  Uiso   1.00
N1106  N     0.21597   0.49999   0.75001   0.00000  Uiso   1.00
O1107  O     0.03958   0.43989   0.75000   0.00000  Uiso   1.00
O1108  O     0.29375   0.56011   0.75000   0.00000  Uiso   1.00
O1109  O     0.29372   0.43988   0.75000   0.00000  Uiso   1.00
O1110  O     0.03961   0.56012   0.74999   0.00000  Uiso   1.00
O1111  O     0.01852   0.50001   0.81491   0.00000  Uiso   1.00
O1112  O     0.31481   0.49999   0.68508   0.00000  Uiso   1.00
O1113  O     0.27267   0.50000   0.81492   0.00000  Uiso   1.00
O1114  O     0.06067   0.50000   0.68508   0.00000  Uiso   1.00
C1115  C     0.10590   0.45258   0.59494   0.00000  Uiso   1.00
O1116  O     0.13056   0.43360   0.56244   0.00000  Uiso   1.00
O1117  O     0.09204   0.43290   0.63710   0.00000  Uiso   1.00
H1118  H     0.10573   0.40394   0.63647   0.00000  Uiso   1.00
C1119  C     0.20669   0.52947   0.88402   0.00000  Uiso   1.00
O1120  O     0.17073   0.50765   0.88894   0.00000  Uiso   1.00
O1121  O     0.21401   0.56316   0.85427   0.00000  Uiso   1.00
H1122  H     0.18722   0.56610   0.83842   0.00000  Uiso   1.00
O1123  O     0.09787   0.44833   0.80622   0.00000  Uiso   1.00
C1124  C     0.11363   0.42303   0.83722   0.00000  Uiso   1.00
H1125  H     0.08074   0.41429   0.86441   0.00000  Uiso   1.00
H1126  H     0.13683   0.43971   0.85510   0.00000  Uiso   1.00
C1127  C     0.13674   0.38302   0.81463   0.00000  Uiso   1.00
H1128  H     0.10825   0.36418   0.80568   0.00000  Uiso   1.00
H1129  H     0.16522   0.38987   0.78289   0.00000  Uiso   1.00
C1130  C     0.15943   0.35793   0.84597   0.00000  Uiso   1.00
H1131  H     0.18916   0.37570   0.85416   0.00000  Uiso   1.00
H1132  H     0.17495   0.66223   0.82901   0.00000  Uiso   1.00
H1133  H     0.13143   0.35004   0.87774   0.00000  Uiso   1.00
O1134  O     0.23410   0.54997   0.69130   0.00000  Uiso   1.00
C1135  C     0.21728   0.59027   0.68543   0.00000  Uiso   1.00
H1136  H     0.24640   0.61221   0.68751   0.00000  Uiso   1.00
H1137  H     0.18444   0.59986   0.71246   0.00000  Uiso   1.00
C1138  C     0.20903   0.59476   0.63829   0.00000  Uiso   1.00
H1139  H     0.24449   0.59199   0.61226   0.00000  Uiso   1.00
H1140  H     0.18501   0.56983   0.63226   0.00000  Uiso   1.00
C1141  C     0.18611   0.63637   0.63266   0.00000  Uiso   1.00
H1142  H     0.14982   0.63929   0.65741   0.00000  Uiso   1.00
H1143  H     0.18137   0.63893   0.59802   0.00000  Uiso   1.00
H1144  H     0.20992   0.66189   0.63778   0.00000  Uiso   1.00
C1145  C     0.33338   0.42068   0.75001   0.00000  Uiso   1.00
C1146  C     0.66663   0.57932   0.74999   0.00000  Uiso   1.00
C1147  C     0.52987   0.50160   0.55096   0.00000  Uiso   1.00
C1148  C     0.48620   0.56271   0.96920   0.00000  Uiso   1.00
C1149  C     0.57883   0.49708   0.52808   0.00000  Uiso   1.00
C1150  C     0.43830   0.57037   0.99319   0.00000  Uiso   1.00
C1151  C     0.62252   0.35475   0.75891   0.00000  Uiso   1.00
C1152  C     0.37756   0.64525   0.74116   0.00000  Uiso   1.00
C1153  C     0.62244   0.64546   0.75904   0.00000  Uiso   1.00
C1154  C     0.37762   0.35455   0.74109   0.00000  Uiso   1.00
C1155  C     0.66663   0.62392   0.75004   0.00000  Uiso   1.00
C1156  C     0.33343   0.37608   0.75001   0.00000  Uiso   1.00
C1157  C     0.51700   0.47425   0.77808   0.00000  Uiso   1.00
C1158  C     0.48315   0.52527   0.72154   0.00000  Uiso   1.00
C1159  C     0.46637   0.47410   0.77875   0.00000  Uiso   1.00
C1160  C     0.53315   0.52613   0.72182   0.00000  Uiso   1.00
C1161  C     0.63915   0.50218   0.83642   0.00000  Uiso   1.00
C1162  C     0.36066   0.50018   0.66373   0.00000  Uiso   1.00
C1163  C     0.62382   0.50679   0.88637   0.00000  Uiso   1.00
C1164  C     0.37576   0.50841   0.61500   0.00000  Uiso   1.00
C1165  C     0.64237   0.49425   0.95793   0.00000  Uiso   1.00
C1166  C     0.36853   0.55561   0.55576   0.00000  Uiso   1.00
C1167  C     0.65694   0.49590   0.91100   0.00000  Uiso   1.00
C1168  C     0.34866   0.53708   0.59749   0.00000  Uiso   1.00
C1169  C     0.57607   0.52028   0.90984   0.00000  Uiso   1.00
C1170  C     0.42179   0.49529   0.58835   0.00000  Uiso   1.00
C1171  C     0.56175   0.52044   0.95811   0.00000  Uiso   1.00
C1172  C     0.44548   0.51964   0.55008   0.00000  Uiso   1.00
C1173  C     0.59456   0.50426   0.98145   0.00000  Uiso   1.00
C1174  C     0.41721   0.54831   0.53271   0.00000  Uiso   1.00
C1175  C     0.51456   0.53295   0.98427   0.00000  Uiso   1.00
C1176  C     0.49623   0.51673   0.52847   0.00000  Uiso   1.00
Cu1177 Cu    0.38022   0.50001   0.75000   0.00000  Uiso   1.00
Cu1178 Cu    0.61978   0.49999   0.75000   0.00000  Uiso   1.00
H1179  H     0.60386   0.48559   0.54640   0.00000  Uiso   1.00
H1180  H     0.41758   0.59343   0.98055   0.00000  Uiso   1.00
H1181  H     0.64623   0.54673   0.61711   0.00000  Uiso   1.00
H1182  H     0.36034   0.48632   0.89385   0.00000  Uiso   1.00
H1183  H     0.33475   0.48341   0.97584   0.00000  Uiso   1.00
H1184  H     0.34684   0.57775   0.54299   0.00000  Uiso   1.00
H1185  H     0.51885   0.49441   0.58672   0.00000  Uiso   1.00
H1186  H     0.50135   0.58188   0.93997   0.00000  Uiso   1.00
H1187  H     0.58803   0.37095   0.76609   0.00000  Uiso   1.00
H1188  H     0.41209   0.62906   0.73398   0.00000  Uiso   1.00
H1189  H     0.58788   0.62945   0.76647   0.00000  Uiso   1.00
H1190  H     0.41216   0.37058   0.73373   0.00000  Uiso   1.00
H1191  H     0.53153   0.45383   0.79908   0.00000  Uiso   1.00
H1192  H     0.46998   0.54454   0.69857   0.00000  Uiso   1.00
N1193  N     0.45069   0.50001   0.74999   0.00000  Uiso   1.00
N1194  N     0.54931   0.49999   0.75001   0.00000  Uiso   1.00
O1195  O     0.37291   0.43989   0.75000   0.00000  Uiso   1.00
O1196  O     0.62709   0.56011   0.75000   0.00000  Uiso   1.00
O1197  O     0.62706   0.43988   0.75000   0.00000  Uiso   1.00
O1198  O     0.37294   0.56012   0.74999   0.00000  Uiso   1.00
O1199  O     0.35186   0.50001   0.81491   0.00000  Uiso   1.00
O1200  O     0.64814   0.49999   0.68508   0.00000  Uiso   1.00
O1201  O     0.60600   0.50000   0.81492   0.00000  Uiso   1.00
O1202  O     0.39400   0.50000   0.68508   0.00000  Uiso   1.00
C1203  C     0.43923   0.45258   0.59494   0.00000  Uiso   1.00
O1204  O     0.46390   0.43360   0.56244   0.00000  Uiso   1.00
O1205  O     0.42537   0.43290   0.63710   0.00000  Uiso   1.00
H1206  H     0.43907   0.40394   0.63647   0.00000  Uiso   1.00
C1207  C     0.54003   0.52947   0.88402   0.00000  Uiso   1.00
O1208  O     0.50406   0.50765   0.88894   0.00000  Uiso   1.00
O1209  O     0.54734   0.56316   0.85427   0.00000  Uiso   1.00
H1210  H     0.52056   0.56610   0.83842   0.00000  Uiso   1.00
O1211  O     0.43120   0.44833   0.80622   0.00000  Uiso   1.00
C1212  C     0.44697   0.42303   0.83722   0.00000  Uiso   1.00
H1213  H     0.41407   0.41429   0.86441   0.00000  Uiso   1.00
H1214  H     0.47016   0.43971   0.85510   0.00000  Uiso   1.00
C1215  C     0.47008   0.38302   0.81463   0.00000  Uiso   1.00
H1216  H     0.44159   0.36418   0.80568   0.00000  Uiso   1.00
H1217  H     0.49856   0.38987   0.78289   0.00000  Uiso   1.00
C1218  C     0.49276   0.35793   0.84597   0.00000  Uiso   1.00
H1219  H     0.52249   0.37570   0.85416   0.00000  Uiso   1.00
H1220  H     0.50828   0.66223   0.82901   0.00000  Uiso   1.00
H1221  H     0.46476   0.35004   0.87774   0.00000  Uiso   1.00
O1222  O     0.56744   0.54997   0.69130   0.00000  Uiso   1.00
C1223  C     0.55061   0.59027   0.68543   0.00000  Uiso   1.00
H1224  H     0.57974   0.61221   0.68751   0.00000  Uiso   1.00
H1225  H     0.51777   0.59986   0.71246   0.00000  Uiso   1.00
C1226  C     0.54237   0.59476   0.63829   0.00000  Uiso   1.00
H1227  H     0.57782   0.59199   0.61226   0.00000  Uiso   1.00
H1228  H     0.51834   0.56983   0.63226   0.00000  Uiso   1.00
C1229  C     0.51945   0.63637   0.63266   0.00000  Uiso   1.00
H1230  H     0.48315   0.63929   0.65741   0.00000  Uiso   1.00
H1231  H     0.51470   0.63893   0.59802   0.00000  Uiso   1.00
H1232  H     0.54325   0.66189   0.63778   0.00000  Uiso   1.00
C1233  C     0.66671   0.42068   0.75001   0.00000  Uiso   1.00
C1234  C     0.99996   0.57932   0.74999   0.00000  Uiso   1.00
C1235  C     0.86320   0.50160   0.55096   0.00000  Uiso   1.00
C1236  C     0.81953   0.56271   0.96920   0.00000  Uiso   1.00
C1237  C     0.91217   0.49708   0.52808   0.00000  Uiso   1.00
C1238  C     0.77163   0.57037   0.99319   0.00000  Uiso   1.00
C1239  C     0.95585   0.35475   0.75891   0.00000  Uiso   1.00
C1240  C     0.71089   0.64525   0.74116   0.00000  Uiso   1.00
C1241  C     0.95577   0.64546   0.75904   0.00000  Uiso   1.00
C1242  C     0.71095   0.35455   0.74109   0.00000  Uiso   1.00
C1243  C     0.99996   0.62392   0.75004   0.00000  Uiso   1.00
C1244  C     0.66676   0.37608   0.75001   0.00000  Uiso   1.00
C1245  C     0.85034   0.47425   0.77808   0.00000  Uiso   1.00
C1246  C     0.81648   0.52527   0.72154   0.00000  Uiso   1.00
C1247  C     0.79971   0.47410   0.77875   0.00000  Uiso   1.00
C1248  C     0.86648   0.52613   0.72182   0.00000  Uiso   1.00
C1249  C     0.97248   0.50218   0.83642   0.00000  Uiso   1.00
C1250  C     0.69399   0.50018   0.66373   0.00000  Uiso   1.00
C1251  C     0.95716   0.50679   0.88637   0.00000  Uiso   1.00
C1252  C     0.70910   0.50841   0.61500   0.00000  Uiso   1.00
C1253  C     0.97570   0.49425   0.95793   0.00000  Uiso   1.00
C1254  C     0.70186   0.55561   0.55576   0.00000  Uiso   1.00
C1255  C     0.99027   0.49590   0.91100   0.00000  Uiso   1.00
C1256  C     0.68199   0.53708   0.59749   0.00000  Uiso   1.00
C1257  C     0.90941   0.52028   0.90984   0.00000  Uiso   1.00
C1258  C     0.75513   0.49529   0.58835   0.00000  Uiso   1.00
C1259  C     0.89508   0.52044   0.95811   0.00000  Uiso   1.00
C1260  C     0.77881   0.51964   0.55008   0.00000  Uiso   1.00
C1261  C     0.92790   0.50426   0.98145   0.00000  Uiso   1.00
C1262  C     0.75054   0.54831   0.53271   0.00000  Uiso   1.00
C1263  C     0.84789   0.53295   0.98427   0.00000  Uiso   1.00
C1264  C     0.82957   0.51673   0.52847   0.00000  Uiso   1.00
Cu1265 Cu    0.71355   0.50001   0.75000   0.00000  Uiso   1.00
Cu1266 Cu    0.95311   0.49999   0.75000   0.00000  Uiso   1.00
H1267  H     0.93719   0.48559   0.54640   0.00000  Uiso   1.00
H1268  H     0.75091   0.59343   0.98055   0.00000  Uiso   1.00
H1269  H     0.97956   0.54673   0.61711   0.00000  Uiso   1.00
H1270  H     0.69367   0.48632   0.89385   0.00000  Uiso   1.00
H1271  H     0.66808   0.48341   0.97584   0.00000  Uiso   1.00
H1272  H     0.68017   0.57775   0.54299   0.00000  Uiso   1.00
H1273  H     0.85219   0.49441   0.58672   0.00000  Uiso   1.00
H1274  H     0.83468   0.58188   0.93997   0.00000  Uiso   1.00
H1275  H     0.92136   0.37095   0.76609   0.00000  Uiso   1.00
H1276  H     0.74542   0.62906   0.73398   0.00000  Uiso   1.00
H1277  H     0.92121   0.62945   0.76647   0.00000  Uiso   1.00
H1278  H     0.74549   0.37058   0.73373   0.00000  Uiso   1.00
H1279  H     0.86487   0.45383   0.79908   0.00000  Uiso   1.00
H1280  H     0.80331   0.54454   0.69857   0.00000  Uiso   1.00
N1281  N     0.78403   0.50001   0.74999   0.00000  Uiso   1.00
N1282  N     0.88264   0.49999   0.75001   0.00000  Uiso   1.00
O1283  O     0.70625   0.43989   0.75000   0.00000  Uiso   1.00
O1284  O     0.96042   0.56011   0.75000   0.00000  Uiso   1.00
O1285  O     0.96039   0.43988   0.75000   0.00000  Uiso   1.00
O1286  O     0.70628   0.56012   0.74999   0.00000  Uiso   1.00
O1287  O     0.68519   0.50001   0.81491   0.00000  Uiso   1.00
O1288  O     0.98148   0.49999   0.68508   0.00000  Uiso   1.00
O1289  O     0.93933   0.50000   0.81492   0.00000  Uiso   1.00
O1290  O     0.72733   0.50000   0.68508   0.00000  Uiso   1.00
C1291  C     0.77256   0.45258   0.59494   0.00000  Uiso   1.00
O1292  O     0.79723   0.43360   0.56244   0.00000  Uiso   1.00
O1293  O     0.75871   0.43290   0.63710   0.00000  Uiso   1.00
H1294  H     0.77240   0.40394   0.63647   0.00000  Uiso   1.00
C1295  C     0.87336   0.52947   0.88402   0.00000  Uiso   1.00
O1296  O     0.83740   0.50765   0.88894   0.00000  Uiso   1.00
O1297  O     0.88068   0.56316   0.85427   0.00000  Uiso   1.00
H1298  H     0.85389   0.56610   0.83842   0.00000  Uiso   1.00
O1299  O     0.76453   0.44833   0.80622   0.00000  Uiso   1.00
C1300  C     0.78030   0.42303   0.83722   0.00000  Uiso   1.00
H1301  H     0.74740   0.41429   0.86441   0.00000  Uiso   1.00
H1302  H     0.80350   0.43971   0.85510   0.00000  Uiso   1.00
C1303  C     0.80341   0.38302   0.81463   0.00000  Uiso   1.00
H1304  H     0.77492   0.36418   0.80568   0.00000  Uiso   1.00
H1305  H     0.83189   0.38987   0.78289   0.00000  Uiso   1.00
C1306  C     0.82609   0.35793   0.84597   0.00000  Uiso   1.00
H1307  H     0.85583   0.37570   0.85416   0.00000  Uiso   1.00
H1308  H     0.84161   0.66223   0.82901   0.00000  Uiso   1.00
H1309  H     0.79809   0.35004   0.87774   0.00000  Uiso   1.00
O1310  O     0.90077   0.54997   0.69130   0.00000  Uiso   1.00
C1311  C     0.88394   0.59027   0.68543   0.00000  Uiso   1.00
H1312  H     0.91307   0.61221   0.68751   0.00000  Uiso   1.00
H1313  H     0.85111   0.59986   0.71246   0.00000  Uiso   1.00
C1314  C     0.87570   0.59476   0.63829   0.00000  Uiso   1.00
H1315  H     0.91116   0.59199   0.61226   0.00000  Uiso   1.00
H1316  H     0.85167   0.56983   0.63226   0.00000  Uiso   1.00
C1317  C     0.85278   0.63637   0.63266   0.00000  Uiso   1.00
H1318  H     0.81648   0.63929   0.65741   0.00000  Uiso   1.00
H1319  H     0.84804   0.63893   0.59802   0.00000  Uiso   1.00
H1320  H     0.87659   0.66189   0.63778   0.00000  Uiso   1.00
C1321  C     0.00005   0.75402   0.75001   0.00000  Uiso   1.00
C1322  C     0.33330   0.91265   0.74999   0.00000  Uiso   1.00
C1323  C     0.19654   0.83493   0.55096   0.00000  Uiso   1.00
C1324  C     0.15286   0.89604   0.96920   0.00000  Uiso   1.00
C1325  C     0.24550   0.83041   0.52808   0.00000  Uiso   1.00
C1326  C     0.10497   0.90370   0.99319   0.00000  Uiso   1.00
C1327  C     0.28919   0.68809   0.75891   0.00000  Uiso   1.00
C1328  C     0.04423   0.97858   0.74116   0.00000  Uiso   1.00
C1329  C     0.28911   0.97879   0.75904   0.00000  Uiso   1.00
C1330  C     0.04429   0.68788   0.74109   0.00000  Uiso   1.00
C1331  C     0.33329   0.95725   0.75004   0.00000  Uiso   1.00
C1332  C     0.00009   0.70941   0.75001   0.00000  Uiso   1.00
C1333  C     0.18367   0.80758   0.77808   0.00000  Uiso   1.00
C1334  C     0.14982   0.85860   0.72154   0.00000  Uiso   1.00
C1335  C     0.13304   0.80743   0.77875   0.00000  Uiso   1.00
C1336  C     0.19982   0.85946   0.72182   0.00000  Uiso   1.00
C1337  C     0.30582   0.83552   0.83642   0.00000  Uiso   1.00
C1338  C     0.02732   0.83352   0.66373   0.00000  Uiso   1.00
C1339  C     0.29049   0.84012   0.88637   0.00000  Uiso   1.00
C1340  C     0.04243   0.84175   0.61500   0.00000  Uiso   1.00
C1341  C     0.30904   0.82759   0.95793   0.00000  Uiso   1.00
C1342  C     0.03519   0.88894   0.55576   0.00000  Uiso   1.00
C1343  C     0.32361   0.82924   0.91100   0.00000  Uiso   1.00
C1344  C     0.01533   0.87042   0.59749   0.00000  Uiso   1.00
C1345  C     0.24274   0.85362   0.90984   0.00000  Uiso   1.00
C1346  C     0.08846   0.82863   0.58835   0.00000  Uiso   1.00
C1347  C     0.22841   0.85377   0.95811   0.00000  Uiso   1.00
C1348  C     0.11214   0.85297   0.55008   0.00000  Uiso   1.00
C1349  C     0.26123   0.83759   0.98145   0.00000  Uiso   1.00
C1350  C     0.08388   0.88165   0.53271   0.00000  Uiso   1.00
C1351  C     0.18122   0.86628   0.98427   0.00000  Uiso   1.00
C1352  C     0.16290   0.85007   0.52847   0.00000  Uiso   1.00
Cu1353 Cu    0.04689   0.83334   0.75000   0.00000  Uiso   1.00
Cu1354 Cu    0.28645   0.83333   0.75000   0.00000  Uiso   1.00
H1355  H     0.27053   0.81893   0.54640   0.00000  Uiso   1.00
H1356  H     0.08425   0.92677   0.98055   0.00000  Uiso   1.00
H1357  H     0.31290   0.88006   0.61711   0.00000  Uiso   1.00
H1358  H     0.02701   0.81966   0.89385   0.00000  Uiso   1.00
H1359  H     0.00142   0.81674   0.97584   0.00000  Uiso   1.00
H1360  H     0.01351   0.91109   0.54299   0.00000  Uiso   1.00
H1361  H     0.18552   0.82774   0.58672   0.00000  Uiso   1.00
H1362  H     0.16802   0.91522   0.93997   0.00000  Uiso   1.00
H1363  H     0.25470   0.70428   0.76609   0.00000  Uiso   1.00
H1364  H     0.07876   0.96239   0.73398   0.00000  Uiso   1.00
H1365  H     0.25455   0.96278   0.76647   0.00000  Uiso   1.00
H1366  H     0.07883   0.70392   0.73373   0.00000  Uiso   1.00
H1367  H     0.19820   0.78716   0.79908   0.00000  Uiso   1.00
H1368  H     0.13665   0.87787   0.69857   0.00000  Uiso   1.00
N1369  N     0.11736   0.83334   0.74999   0.00000  Uiso   1.00
N1370  N     0.21597   0.83332   0.75001   0.00000  Uiso   1.00
O1371  O     0.03958   0.77322   0.75000   0.00000  Uiso   1.00
O1372  O     0.29375   0.89345   0.75000   0.00000  Uiso   1.00
O1373  O     0.29372   0.77321   0.75000   0.00000  Uiso   1.00
O1374  O     0.03961   0.89346   0.74999   0.00000  Uiso   1.00
O1375  O     0.01852   0.83334   0.81491   0.00000  Uiso   1.00
O1376  O     0.31481   0.83332   0.68508   0.00000  Uiso   1.00
O1377  O     0.27267   0.83333   0.81492   0.00000  Uiso   1.00
O1378  O     0.06067   0.83333   0.68508   0.00000  Uiso   1.00
C1379  C     0.10590   0.78591   0.59494   0.00000  Uiso   1.00
O1380  O     0.13056   0.76693   0.56244   0.00000  Uiso   1.00
O1381  O     0.09204   0.76623   0.63710   0.00000  Uiso   1.00
H1382  H     0.10573   0.73727   0.63647   0.00000  Uiso   1.00
C1383  C     0.20669   0.86280   0.88402   0.00000  Uiso   1.00
O1384  O     0.17073   0.84099   0.88894   0.00000  Uiso   1.00
O1385  O     0.21401   0.89649   0.85427   0.00000  Uiso   1.00
H1386  H     0.18722   0.89943   0.83842   0.00000  Uiso   1.00
O1387  O     0.09787   0.78167   0.80622   0.00000  Uiso   1.00
C1388  C     0.11363   0.75636   0.83722   0.00000  Uiso   1.00
H1389  H     0.08074   0.74763   0.86441   0.00000  Uiso   1.00
H1390  H     0.13683   0.77304   0.85510   0.00000  Uiso   1.00
C1391  C     0.13674   0.71635   0.81463   0.00000  Uiso   1.00
H1392  H     0.10825   0.69751   0.80568   0.00000  Uiso   1.00
H1393  H     0.16522   0.72320   0.78289   0.00000  Uiso   1.00
C1394  C     0.15943   0.69126   0.84597   0.00000  Uiso   1.00
H1395  H     0.18916   0.70903   0.85416   0.00000  Uiso   1.00
H1396  H     0.17495   0.99556   0.82901   0.00000  Uiso   1.00
H1397  H     0.13143   0.68337   0.87774   0.00000  Uiso   1.00
O1398  O     0.23410   0.88331   0.69130   0.00000  Uiso   1.00
C1399  C     0.21728   0.92361   0.68543   0.00000  Uiso   1.00
H1400  H     0.24640   0.94554   0.68751   0.00000  Uiso   1.00
H1401  H     0.18444   0.93319   0.71246   0.00000  Uiso   1.00
C1402  C     0.20903   0.92810   0.63829   0.00000  Uiso   1.00
H1403  H     0.24449   0.92533   0.61226   0.00000  Uiso   1.00
H1404  H     0.18501   0.90316   0.63226   0.00000  Uiso   1.00
C1405  C     0.18611   0.96970   0.63266   0.00000  Uiso   1.00
H1406  H     0.14982   0.97262   0.65741   0.00000  Uiso   1.00
H1407  H     0.18137   0.97227   0.59802   0.00000  Uiso   1.00
H1408  H     0.20992   0.99522   0.63778   0.00000  Uiso   1.00
C1409  C     0.33338   0.75402   0.75001   0.00000  Uiso   1.00
C1410  C     0.66663   0.91265   0.74999   0.00000  Uiso   1.00
C1411  C     0.52987   0.83493   0.55096   0.00000  Uiso   1.00
C1412  C     0.48620   0.89604   0.96920   0.00000  Uiso   1.00
C1413  C     0.57883   0.83041   0.52808   0.00000  Uiso   1.00
C1414  C     0.43830   0.90370   0.99319   0.00000  Uiso   1.00
C1415  C     0.62252   0.68809   0.75891   0.00000  Uiso   1.00
C1416  C     0.37756   0.97858   0.74116   0.00000  Uiso   1.00
C1417  C     0.62244   0.97879   0.75904   0.00000  Uiso   1.00
C1418  C     0.37762   0.68788   0.74109   0.00000  Uiso   1.00
C1419  C     0.66663   0.95725   0.75004   0.00000  Uiso   1.00
C1420  C     0.33343   0.70941   0.75001   0.00000  Uiso   1.00
C1421  C     0.51700   0.80758   0.77808   0.00000  Uiso   1.00
C1422  C     0.48315   0.85860   0.72154   0.00000  Uiso   1.00
C1423  C     0.46637   0.80743   0.77875   0.00000  Uiso   1.00
C1424  C     0.53315   0.85946   0.72182   0.00000  Uiso   1.00
C1425  C     0.63915   0.83552   0.83642   0.00000  Uiso   1.00
C1426  C     0.36066   0.83352   0.66373   0.00000  Uiso   1.00
C1427  C     0.62382   0.84012   0.88637   0.00000  Uiso   1.00
C1428  C     0.37576   0.84175   0.61500   0.00000  Uiso   1.00
C1429  C     0.64237   0.82759   0.95793   0.00000  Uiso   1.00
C1430  C     0.36853   0.88894   0.55576   0.00000  Uiso   1.00
C1431  C     0.65694   0.82924   0.91100   0.00000  Uiso   1.00
C1432  C     0.34866   0.87042   0.59749   0.00000  Uiso   1.00
C1433  C     0.57607   0.85362   0.90984   0.00000  Uiso   1.00
C1434  C     0.42179   0.82863   0.58835   0.00000  Uiso   1.00
C1435  C     0.56175   0.85377   0.95811   0.00000  Uiso   1.00
C1436  C     0.44548   0.85297   0.55008   0.00000  Uiso   1.00
C1437  C     0.59456   0.83759   0.98145   0.00000  Uiso   1.00
C1438  C     0.41721   0.88165   0.53271   0.00000  Uiso   1.00
C1439  C     0.51456   0.86628   0.98427   0.00000  Uiso   1.00
C1440  C     0.49623   0.85007   0.52847   0.00000  Uiso   1.00
Cu1441 Cu    0.38022   0.83334   0.75000   0.00000  Uiso   1.00
Cu1442 Cu    0.61978   0.83333   0.75000   0.00000  Uiso   1.00
H1443  H     0.60386   0.81893   0.54640   0.00000  Uiso   1.00
H1444  H     0.41758   0.92677   0.98055   0.00000  Uiso   1.00
H1445  H     0.64623   0.88006   0.61711   0.00000  Uiso   1.00
H1446  H     0.36034   0.81966   0.89385   0.00000  Uiso   1.00
H1447  H     0.33475   0.81674   0.97584   0.00000  Uiso   1.00
H1448  H     0.34684   0.91109   0.54299   0.00000  Uiso   1.00
H1449  H     0.51885   0.82774   0.58672   0.00000  Uiso   1.00
H1450  H     0.50135   0.91522   0.93997   0.00000  Uiso   1.00
H1451  H     0.58803   0.70428   0.76609   0.00000  Uiso   1.00
H1452  H     0.41209   0.96239   0.73398   0.00000  Uiso   1.00
H1453  H     0.58788   0.96278   0.76647   0.00000  Uiso   1.00
H1454  H     0.41216   0.70392   0.73373   0.00000  Uiso   1.00
H1455  H     0.53153   0.78716   0.79908   0.00000  Uiso   1.00
H1456  H     0.46998   0.87787   0.69857   0.00000  Uiso   1.00
N1457  N     0.45069   0.83334   0.74999   0.00000  Uiso   1.00
N1458  N     0.54931   0.83332   0.75001   0.00000  Uiso   1.00
O1459  O     0.37291   0.77322   0.75000   0.00000  Uiso   1.00
O1460  O     0.62709   0.89345   0.75000   0.00000  Uiso   1.00
O1461  O     0.62706   0.77321   0.75000   0.00000  Uiso   1.00
O1462  O     0.37294   0.89346   0.74999   0.00000  Uiso   1.00
O1463  O     0.35186   0.83334   0.81491   0.00000  Uiso   1.00
O1464  O     0.64814   0.83332   0.68508   0.00000  Uiso   1.00
O1465  O     0.60600   0.83333   0.81492   0.00000  Uiso   1.00
O1466  O     0.39400   0.83333   0.68508   0.00000  Uiso   1.00
C1467  C     0.43923   0.78591   0.59494   0.00000  Uiso   1.00
O1468  O     0.46390   0.76693   0.56244   0.00000  Uiso   1.00
O1469  O     0.42537   0.76623   0.63710   0.00000  Uiso   1.00
H1470  H     0.43907   0.73727   0.63647   0.00000  Uiso   1.00
C1471  C     0.54003   0.86280   0.88402   0.00000  Uiso   1.00
O1472  O     0.50406   0.84099   0.88894   0.00000  Uiso   1.00
O1473  O     0.54734   0.89649   0.85427   0.00000  Uiso   1.00
H1474  H     0.52056   0.89943   0.83842   0.00000  Uiso   1.00
O1475  O     0.43120   0.78167   0.80622   0.00000  Uiso   1.00
C1476  C     0.44697   0.75636   0.83722   0.00000  Uiso   1.00
H1477  H     0.41407   0.74763   0.86441   0.00000  Uiso   1.00
H1478  H     0.47016   0.77304   0.85510   0.00000  Uiso   1.00
C1479  C     0.47008   0.71635   0.81463   0.00000  Uiso   1.00
H1480  H     0.44159   0.69751   0.80568   0.00000  Uiso   1.00
H1481  H     0.49856   0.72320   0.78289   0.00000  Uiso   1.00
C1482  C     0.49276   0.69126   0.84597   0.00000  Uiso   1.00
H1483  H     0.52249   0.70903   0.85416   0.00000  Uiso   1.00
H1484  H     0.50828   0.99556   0.82901   0.00000  Uiso   1.00
H1485  H     0.46476   0.68337   0.87774   0.00000  Uiso   1.00
O1486  O     0.56744   0.88331   0.69130   0.00000  Uiso   1.00
C1487  C     0.55061   0.92361   0.68543   0.00000  Uiso   1.00
H1488  H     0.57974   0.94554   0.68751   0.00000  Uiso   1.00
H1489  H     0.51777   0.93319   0.71246   0.00000  Uiso   1.00
C1490  C     0.54237   0.92810   0.63829   0.00000  Uiso   1.00
H1491  H     0.57782   0.92533   0.61226   0.00000  Uiso   1.00
H1492  H     0.51834   0.90316   0.63226   0.00000  Uiso   1.00
C1493  C     0.51945   0.96970   0.63266   0.00000  Uiso   1.00
H1494  H     0.48315   0.97262   0.65741   0.00000  Uiso   1.00
H1495  H     0.51470   0.97227   0.59802   0.00000  Uiso   1.00
H1496  H     0.54325   0.99522   0.63778   0.00000  Uiso   1.00
C1497  C     0.66671   0.75402   0.75001   0.00000  Uiso   1.00
C1498  C     0.99996   0.91265   0.74999   0.00000  Uiso   1.00
C1499  C     0.86320   0.83493   0.55096   0.00000  Uiso   1.00
C1500  C     0.81953   0.89604   0.96920   0.00000  Uiso   1.00
C1501  C     0.91217   0.83041   0.52808   0.00000  Uiso   1.00
C1502  C     0.77163   0.90370   0.99319   0.00000  Uiso   1.00
C1503  C     0.95585   0.68809   0.75891   0.00000  Uiso   1.00
C1504  C     0.71089   0.97858   0.74116   0.00000  Uiso   1.00
C1505  C     0.95577   0.97879   0.75904   0.00000  Uiso   1.00
C1506  C     0.71095   0.68788   0.74109   0.00000  Uiso   1.00
C1507  C     0.99996   0.95725   0.75004   0.00000  Uiso   1.00
C1508  C     0.66676   0.70941   0.75001   0.00000  Uiso   1.00
C1509  C     0.85034   0.80758   0.77808   0.00000  Uiso   1.00
C1510  C     0.81648   0.85860   0.72154   0.00000  Uiso   1.00
C1511  C     0.79971   0.80743   0.77875   0.00000  Uiso   1.00
C1512  C     0.86648   0.85946   0.72182   0.00000  Uiso   1.00
C1513  C     0.97248   0.83552   0.83642   0.00000  Uiso   1.00
C1514  C     0.69399   0.83352   0.66373   0.00000  Uiso   1.00
C1515  C     0.95716   0.84012   0.88637   0.00000  Uiso   1.00
C1516  C     0.70910   0.84175   0.61500   0.00000  Uiso   1.00
C1517  C     0.97570   0.82759   0.95793   0.00000  Uiso   1.00
C1518  C     0.70186   0.88894   0.55576   0.00000  Uiso   1.00
C1519  C     0.99027   0.82924   0.91100   0.00000  Uiso   1.00
C1520  C     0.68199   0.87042   0.59749   0.00000  Uiso   1.00
C1521  C     0.90941   0.85362   0.90984   0.00000  Uiso   1.00
C1522  C     0.75513   0.82863   0.58835   0.00000  Uiso   1.00
C1523  C     0.89508   0.85377   0.95811   0.00000  Uiso   1.00
C1524  C     0.77881   0.85297   0.55008   0.00000  Uiso   1.00
C1525  C     0.92790   0.83759   0.98145   0.00000  Uiso   1.00
C1526  C     0.75054   0.88165   0.53271   0.00000  Uiso   1.00
C1527  C     0.84789   0.86628   0.98427   0.00000  Uiso   1.00
C1528  C     0.82957   0.85007   0.52847   0.00000  Uiso   1.00
Cu1529 Cu    0.71355   0.83334   0.75000   0.00000  Uiso   1.00
Cu1530 Cu    0.95311   0.83333   0.75000   0.00000  Uiso   1.00
H1531  H     0.93719   0.81893   0.54640   0.00000  Uiso   1.00
H1532  H     0.75091   0.92677   0.98055   0.00000  Uiso   1.00
H1533  H     0.97956   0.88006   0.61711   0.00000  Uiso   1.00
H1534  H     0.69367   0.81966   0.89385   0.00000  Uiso   1.00
H1535  H     0.66808   0.81674   0.97584   0.00000  Uiso   1.00
H1536  H     0.68017   0.91109   0.54299   0.00000  Uiso   1.00
H1537  H     0.85219   0.82774   0.58672   0.00000  Uiso   1.00
H1538  H     0.83468   0.91522   0.93997   0.00000  Uiso   1.00
H1539  H     0.92136   0.70428   0.76609   0.00000  Uiso   1.00
H1540  H     0.74542   0.96239   0.73398   0.00000  Uiso   1.00
H1541  H     0.92121   0.96278   0.76647   0.00000  Uiso   1.00
H1542  H     0.74549   0.70392   0.73373   0.00000  Uiso   1.00
H1543  H     0.86487   0.78716   0.79908   0.00000  Uiso   1.00
H1544  H     0.80331   0.87787   0.69857   0.00000  Uiso   1.00
N1545  N     0.78403   0.83334   0.74999   0.00000  Uiso   1.00
N1546  N     0.88264   0.83332   0.75001   0.00000  Uiso   1.00
O1547  O     0.70625   0.77322   0.75000   0.00000  Uiso   1.00
O1548  O     0.96042   0.89345   0.75000   0.00000  Uiso   1.00
O1549  O     0.96039   0.77321   0.75000   0.00000  Uiso   1.00
O1550  O     0.70628   0.89346   0.74999   0.00000  Uiso   1.00
O1551  O     0.68519   0.83334   0.81491   0.00000  Uiso   1.00
O1552  O     0.98148   0.83332   0.68508   0.00000  Uiso   1.00
O1553  O     0.93933   0.83333   0.81492   0.00000  Uiso   1.00
O1554  O     0.72733   0.83333   0.68508   0.00000  Uiso   1.00
C1555  C     0.77256   0.78591   0.59494   0.00000  Uiso   1.00
O1556  O     0.79723   0.76693   0.56244   0.00000  Uiso   1.00
O1557  O     0.75871   0.76623   0.63710   0.00000  Uiso   1.00
H1558  H     0.77240   0.73727   0.63647   0.00000  Uiso   1.00
C1559  C     0.87336   0.86280   0.88402   0.00000  Uiso   1.00
O1560  O     0.83740   0.84099   0.88894   0.00000  Uiso   1.00
O1561  O     0.88068   0.89649   0.85427   0.00000  Uiso   1.00
H1562  H     0.85389   0.89943   0.83842   0.00000  Uiso   1.00
O1563  O     0.76453   0.78167   0.80622   0.00000  Uiso   1.00
C1564  C     0.78030   0.75636   0.83722   0.00000  Uiso   1.00
H1565  H     0.74740   0.74763   0.86441   0.00000  Uiso   1.00
H1566  H     0.80350   0.77304   0.85510   0.00000  Uiso   1.00
C1567  C     0.80341   0.71635   0.81463   0.00000  Uiso   1.00
H1568  H     0.77492   0.69751   0.80568   0.00000  Uiso   1.00
H1569  H     0.83189   0.72320   0.78289   0.00000  Uiso   1.00
C1570  C     0.82609   0.69126   0.84597   0.00000  Uiso   1.00
H1571  H     0.85583   0.70903   0.85416   0.00000  Uiso   1.00
H1572  H     0.84161   0.99556   0.82901   0.00000  Uiso   1.00
H1573  H     0.79809   0.68337   0.87774   0.00000  Uiso   1.00
O1574  O     0.90077   0.88331   0.69130   0.00000  Uiso   1.00
C1575  C     0.88394   0.92361   0.68543   0.00000  Uiso   1.00
H1576  H     0.91307   0.94554   0.68751   0.00000  Uiso   1.00
H1577  H     0.85111   0.93319   0.71246   0.00000  Uiso   1.00
C1578  C     0.87570   0.92810   0.63829   0.00000  Uiso   1.00
H1579  H     0.91116   0.92533   0.61226   0.00000  Uiso   1.00
H1580  H     0.85167   0.90316   0.63226   0.00000  Uiso   1.00
C1581  C     0.85278   0.96970   0.63266   0.00000  Uiso   1.00
H1582  H     0.81648   0.97262   0.65741   0.00000  Uiso   1.00
H1583  H     0.84804   0.97227   0.59802   0.00000  Uiso   1.00
H1584  H     0.87659   0.99522   0.63778   0.00000  Uiso   1.00
loop_
_geom_bond_atom_site_label_1
_geom_bond_atom_site_label_2
_geom_bond_distance
_geom_bond_site_symmetry_2
_ccdc_geom_bond_type
C1     C12     1.447   .     S
C1     O51     1.290   .     A
C1     O229    1.288   1_455 S
C2     C11     1.447   .     S
C2     O52     1.290   .     A
C2     O142    1.288   .     S
C3     C32     1.409   .     A
C3     H41     1.082   .     S
C3     C5      1.391   .     A
C4     C6      1.388   .     A
C4     H42     1.079   .     S
C4     C31     1.410   .     A
C5     H35     1.084   .     S
C5     C821    1.399   1_554 S
C6     H36     1.084   .     S
C6     C822    1.395   .     S
C7     H43     1.083   .     S
C7     C537    1.383   1_545 S
C7     C100    1.401   .     S
C8     H44     1.083   .     S
C8     C274    1.383   .     S
C8     C187    1.401   1_455 S
C9     H45     1.083   .     S
C9     C11     1.400   .     A
C9     C271    1.383   .     S
C10    H46     1.083   .     S
C10    C12     1.400   .     A
C10    C536    1.383   1_545 S
C11    C96     1.401   .     S
C12    C183    1.401   1_455 S
C13    C15     1.438   .     A
C13    H47     1.078   .     S
C13    N50     1.363   .     A
C14    N49     1.361   .     A
C14    H48     1.079   .     S
C14    C16     1.428   .     A
C15    O67     1.399   .     S
C15    N49     1.373   .     A
C16    N50     1.372   .     A
C16    O78     1.391   .     S
C17    C19     1.486   .     S
C17    O57     1.293   .     A
C17    O143    1.303   .     S
C18    O58     1.292   .     A
C18    C20     1.465   .     S
C18    O232    1.295   1_455 S
C19    C23     1.402   .     A
C19    C25     1.427   .     A
C20    C26     1.412   .     A
C20    C24     1.401   .     A
C21    C23     1.389   .     A
C21    C29     1.398   .     A
C21    H127    1.084   .     S
C22    C24     1.388   .     A
C22    H40     1.084   .     S
C22    C30     1.398   .     A
C23    H126    1.083   .     S
C24    H213    1.082   1_455 S
C25    C63     1.485   .     S
C25    C27     1.428   .     A
C26    C59     1.501   .     S
C26    C28     1.423   .     A
C27    C29     1.420   .     A
C27    C31     1.428   .     A
C28    C32     1.423   .     A
C28    C30     1.420   .     A
C29    C797    1.399   .     S
C30    C798    1.395   1_554 S
C31    C824    1.415   .     S
C32    C823    1.415   1_554 S
Cu33   O55     1.940   .     S
Cu33   O58     1.926   .     S
Cu33   N49     2.009   .     S
Cu33   O51     1.962   .     S
Cu33   O54     1.960   .     S
Cu33   Cu210   2.673   1_455 S
Cu34   O56     1.940   .     S
Cu34   O57     1.926   .     S
Cu34   N50     2.009   .     S
Cu34   O52     1.962   .     S
Cu34   O53     1.960   .     S
Cu34   Cu121   2.673   .     S
H37    C112    1.082   .     S
H38    C199    1.083   1_455 S
H39    C197    1.084   1_455 S
O53    C89     1.288   .     S
O54    C178    1.288   1_455 S
O55    C193    1.303   1_455 S
O56    C106    1.295   .     S
C59    O60     1.224   .     D
C59    O61     1.398   .     S
O61    H62     1.014   .     S
C63    O65     1.399   .     S
C63    O64     1.223   .     D
O65    H66     1.014   .     S
O67    C68     1.414   .     S
C68    C71     1.536   .     S
C68    H69     1.111   .     S
C68    H70     1.111   .     S
C71    H73     1.110   .     S
C71    C74     1.525   .     S
C71    H72     1.111   .     S
C74    H77     1.111   .     S
C74    H75     1.111   .     S
C74    H604    1.111   1_545 S
H76    C338    1.111   .     S
O78    C79     1.418   .     S
C79    H80     1.110   .     S
C79    C82     1.534   .     S
C79    H81     1.116   .     S
C82    H84     1.110   .     S
C82    C85     1.526   .     S
C82    H83     1.111   .     S
C85    H86     1.111   .     S
C85    H87     1.110   .     S
C85    H88     1.111   .     S
C89    C100    1.447   .     S
C89    O139    1.290   .     A
C90    C99     1.447   .     S
C90    O140    1.290   .     A
C90    O230    1.288   .     S
C91    C120    1.409   .     A
C91    H129    1.082   .     S
C91    C93     1.391   .     A
C92    C94     1.388   .     A
C92    H130    1.079   .     S
C92    C119    1.410   .     A
C93    H123    1.084   .     S
C93    C909    1.399   1_554 S
C94    H124    1.084   .     S
C94    C910    1.395   .     S
C95    H131    1.083   .     S
C95    C625    1.383   1_545 S
C95    C188    1.401   .     S
C96    H132    1.083   .     S
C96    C362    1.383   .     S
C97    H133    1.083   .     S
C97    C99     1.400   .     A
C97    C359    1.383   .     S
C98    H134    1.083   .     S
C98    C100    1.400   .     A
C98    C624    1.383   1_545 S
C99    C184    1.401   .     S
C101   C103    1.438   .     A
C101   H135    1.078   .     S
C101   N138    1.363   .     A
C102   N137    1.361   .     A
C102   H136    1.079   .     S
C102   C104    1.428   .     A
C103   O155    1.399   .     S
C103   N137    1.373   .     A
C104   N138    1.372   .     A
C104   O166    1.391   .     S
C105   C107    1.486   .     S
C105   O145    1.293   .     A
C105   O231    1.303   .     S
C106   O146    1.292   .     A
C106   C108    1.465   .     S
C107   C111    1.402   .     A
C107   C113    1.427   .     A
C108   C114    1.412   .     A
C108   C112    1.401   .     A
C109   C111    1.389   .     A
C109   C117    1.398   .     A
C109   H215    1.084   .     S
C110   C112    1.388   .     A
C110   H128    1.084   .     S
C110   C118    1.398   .     A
C111   H214    1.083   .     S
C113   C151    1.485   .     S
C113   C115    1.428   .     A
C114   C147    1.501   .     S
C114   C116    1.423   .     A
C115   C117    1.420   .     A
C115   C119    1.428   .     A
C116   C120    1.423   .     A
C116   C118    1.420   .     A
C117   C885    1.399   .     S
C118   C886    1.395   1_554 S
C119   C912    1.415   .     S
C120   C911    1.415   1_554 S
Cu121  O143    1.940   .     S
Cu121  O146    1.926   .     S
Cu121  N137    2.009   .     S
Cu121  O139    1.962   .     S
Cu121  O142    1.960   .     S
Cu122  O144    1.940   .     S
Cu122  O145    1.926   .     S
Cu122  N138    2.009   .     S
Cu122  O140    1.962   .     S
Cu122  O141    1.960   .     S
Cu122  Cu209   2.673   .     S
H125   C200    1.082   .     S
O141   C177    1.288   .     S
O144   C194    1.295   .     S
C147   O148    1.224   .     D
C147   O149    1.398   .     S
O149   H150    1.014   .     S
C151   O153    1.399   .     S
C151   O152    1.223   .     D
O153   H154    1.014   .     S
O155   C156    1.414   .     S
C156   C159    1.536   .     S
C156   H157    1.111   .     S
C156   H158    1.111   .     S
C159   H161    1.110   .     S
C159   C162    1.525   .     S
C159   H160    1.111   .     S
C162   H165    1.111   .     S
C162   H163    1.111   .     S
C162   H692    1.111   1_545 S
H164   C426    1.111   .     S
O166   C167    1.418   .     S
C167   H168    1.110   .     S
C167   C170    1.534   .     S
C167   H169    1.116   .     S
C170   H172    1.110   .     S
C170   C173    1.526   .     S
C170   H171    1.111   .     S
C173   H174    1.111   .     S
C173   H175    1.110   .     S
C173   H176    1.111   .     S
C177   C188    1.447   .     S
C177   O227    1.290   .     A
C178   C187    1.447   .     S
C178   O228    1.290   .     A
C178   O54     1.288   1_655 S
C179   C208    1.409   .     A
C179   H217    1.082   .     S
C179   C181    1.391   .     A
C180   C182    1.388   .     A
C180   H218    1.079   .     S
C180   C207    1.410   .     A
C181   H211    1.084   .     S
C181   C997    1.399   1_554 S
C182   H212    1.084   .     S
C182   C998    1.395   .     S
C183   H219    1.083   .     S
C183   C713    1.383   1_545 S
C183   C12     1.401   1_655 S
C184   H220    1.083   .     S
C184   C450    1.383   .     S
C185   H221    1.083   .     S
C185   C187    1.400   .     A
C185   C447    1.383   .     S
C186   H222    1.083   .     S
C186   C188    1.400   .     A
C186   C712    1.383   1_545 S
C187   C8      1.401   1_655 S
C189   C191    1.438   .     A
C189   H223    1.078   .     S
C189   N226    1.363   .     A
C190   N225    1.361   .     A
C190   H224    1.079   .     S
C190   C192    1.428   .     A
C191   O243    1.399   .     S
C191   N225    1.373   .     A
C192   N226    1.372   .     A
C192   O254    1.391   .     S
C193   C195    1.486   .     S
C193   O233    1.293   .     A
C193   O55     1.303   1_655 S
C194   O234    1.292   .     A
C194   C196    1.465   .     S
C195   C199    1.402   .     A
C195   C201    1.427   .     A
C196   C202    1.412   .     A
C196   C200    1.401   .     A
C197   C199    1.389   .     A
C197   C205    1.398   .     A
C197   H39     1.084   1_655 S
C198   C200    1.388   .     A
C198   H216    1.084   .     S
C198   C206    1.398   .     A
C199   H38     1.083   1_655 S
C201   C239    1.485   .     S
C201   C203    1.428   .     A
C202   C235    1.501   .     S
C202   C204    1.423   .     A
C203   C205    1.420   .     A
C203   C207    1.428   .     A
C204   C208    1.423   .     A
C204   C206    1.420   .     A
C205   C973    1.399   .     S
C206   C974    1.395   1_554 S
C207   C1000   1.415   .     S
C208   C999    1.415   1_554 S
Cu209  O231    1.940   .     S
Cu209  O234    1.926   .     S
Cu209  N225    2.009   .     S
Cu209  O227    1.962   .     S
Cu209  O230    1.960   .     S
Cu210  O232    1.940   .     S
Cu210  O233    1.926   .     S
Cu210  N226    2.009   .     S
Cu210  O228    1.962   .     S
Cu210  O229    1.960   .     S
Cu210  Cu33    2.673   1_655 S
H213   C24     1.082   1_655 S
O229   C1      1.288   1_655 S
O232   C18     1.295   1_655 S
C235   O236    1.224   .     D
C235   O237    1.398   .     S
O237   H238    1.014   .     S
C239   O241    1.399   .     S
C239   O240    1.223   .     D
O241   H242    1.014   .     S
O243   C244    1.414   .     S
C244   C247    1.536   .     S
C244   H245    1.111   .     S
C244   H246    1.111   .     S
C247   H249    1.110   .     S
C247   C250    1.525   .     S
C247   H248    1.111   .     S
C250   H253    1.111   .     S
C250   H251    1.111   .     S
C250   H780    1.111   1_545 S
H252   C514    1.111   .     S
O254   C255    1.418   .     S
C255   H256    1.110   .     S
C255   C258    1.534   .     S
C255   H257    1.116   .     S
C258   H260    1.110   .     S
C258   C261    1.526   .     S
C258   H259    1.111   .     S
C261   H262    1.111   .     S
C261   H263    1.110   .     S
C261   H264    1.111   .     S
C265   C276    1.447   .     S
C265   O315    1.290   .     A
C265   O493    1.288   1_455 S
C266   C275    1.447   .     S
C266   O316    1.290   .     A
C266   O406    1.288   .     S
C267   C296    1.409   .     A
C267   H305    1.082   .     S
C267   C269    1.391   .     A
C268   C270    1.388   .     A
C268   H306    1.079   .     S
C268   C295    1.410   .     A
C269   H299    1.084   .     S
C269   C1085   1.399   1_554 S
C270   H300    1.084   .     S
C270   C1086   1.395   .     S
C271   H307    1.083   .     S
C271   C364    1.401   .     S
C272   H308    1.083   .     S
C272   C538    1.383   .     S
C272   C451    1.401   1_455 S
C273   H309    1.083   .     S
C273   C275    1.400   .     A
C273   C535    1.383   .     S
C274   H310    1.083   .     S
C274   C276    1.400   .     A
C275   C360    1.401   .     S
C276   C447    1.401   1_455 S
C277   C279    1.438   .     A
C277   H311    1.078   .     S
C277   N314    1.363   .     A
C278   N313    1.361   .     A
C278   H312    1.079   .     S
C278   C280    1.428   .     A
C279   O331    1.399   .     S
C279   N313    1.373   .     A
C280   N314    1.372   .     A
C280   O342    1.391   .     S
C281   C283    1.486   .     S
C281   O321    1.293   .     A
C281   O407    1.303   .     S
C282   O322    1.292   .     A
C282   C284    1.465   .     S
C282   O496    1.295   1_455 S
C283   C287    1.402   .     A
C283   C289    1.427   .     A
C284   C290    1.412   .     A
C284   C288    1.401   .     A
C285   C287    1.389   .     A
C285   C293    1.398   .     A
C285   H391    1.084   .     S
C286   C288    1.388   .     A
C286   H304    1.084   .     S
C286   C294    1.398   .     A
C287   H390    1.083   .     S
C288   H477    1.082   1_455 S
C289   C327    1.485   .     S
C289   C291    1.428   .     A
C290   C323    1.501   .     S
C290   C292    1.423   .     A
C291   C293    1.420   .     A
C291   C295    1.428   .     A
C292   C296    1.423   .     A
C292   C294    1.420   .     A
C293   C1061   1.399   .     S
C294   C1062   1.395   1_554 S
C295   C1088   1.415   .     S
C296   C1087   1.415   1_554 S
Cu297  O319    1.940   .     S
Cu297  O322    1.926   .     S
Cu297  N313    2.009   .     S
Cu297  O315    1.962   .     S
Cu297  O318    1.960   .     S
Cu297  Cu474   2.673   1_455 S
Cu298  O320    1.940   .     S
Cu298  O321    1.926   .     S
Cu298  N314    2.009   .     S
Cu298  O316    1.962   .     S
Cu298  O317    1.960   .     S
Cu298  Cu385   2.673   .     S
H301   C376    1.082   .     S
H302   C463    1.083   1_455 S
H303   C461    1.084   1_455 S
O317   C353    1.288   .     S
O318   C442    1.288   1_455 S
O319   C457    1.303   1_455 S
O320   C370    1.295   .     S
C323   O324    1.224   .     D
C323   O325    1.398   .     S
O325   H326    1.014   .     S
C327   O329    1.399   .     S
C327   O328    1.223   .     D
O329   H330    1.014   .     S
O331   C332    1.414   .     S
C332   C335    1.536   .     S
C332   H333    1.111   .     S
C332   H334    1.111   .     S
C335   H337    1.110   .     S
C335   C338    1.525   .     S
C335   H336    1.111   .     S
C338   H341    1.111   .     S
C338   H339    1.111   .     S
H340   C602    1.111   .     S
O342   C343    1.418   .     S
C343   H344    1.110   .     S
C343   C346    1.534   .     S
C343   H345    1.116   .     S
C346   H348    1.110   .     S
C346   C349    1.526   .     S
C346   H347    1.111   .     S
C349   H350    1.111   .     S
C349   H351    1.110   .     S
C349   H352    1.111   .     S
C353   C364    1.447   .     S
C353   O403    1.290   .     A
C354   C363    1.447   .     S
C354   O404    1.290   .     A
C354   O494    1.288   .     S
C355   C384    1.409   .     A
C355   H393    1.082   .     S
C355   C357    1.391   .     A
C356   C358    1.388   .     A
C356   H394    1.079   .     S
C356   C383    1.410   .     A
C357   H387    1.084   .     S
C357   C1173   1.399   1_554 S
C358   H388    1.084   .     S
C358   C1174   1.395   .     S
C359   H395    1.083   .     S
C359   C452    1.401   .     S
C360   H396    1.083   .     S
C360   C626    1.383   .     S
C361   H397    1.083   .     S
C361   C363    1.400   .     A
C361   C623    1.383   .     S
C362   H398    1.083   .     S
C362   C364    1.400   .     A
C363   C448    1.401   .     S
C365   C367    1.438   .     A
C365   H399    1.078   .     S
C365   N402    1.363   .     A
C366   N401    1.361   .     A
C366   H400    1.079   .     S
C366   C368    1.428   .     A
C367   O419    1.399   .     S
C367   N401    1.373   .     A
C368   N402    1.372   .     A
C368   O430    1.391   .     S
C369   C371    1.486   .     S
C369   O409    1.293   .     A
C369   O495    1.303   .     S
C370   O410    1.292   .     A
C370   C372    1.465   .     S
C371   C375    1.402   .     A
C371   C377    1.427   .     A
C372   C378    1.412   .     A
C372   C376    1.401   .     A
C373   C375    1.389   .     A
C373   C381    1.398   .     A
C373   H479    1.084   .     S
C374   C376    1.388   .     A
C374   H392    1.084   .     S
C374   C382    1.398   .     A
C375   H478    1.083   .     S
C377   C415    1.485   .     S
C377   C379    1.428   .     A
C378   C411    1.501   .     S
C378   C380    1.423   .     A
C379   C381    1.420   .     A
C379   C383    1.428   .     A
C380   C384    1.423   .     A
C380   C382    1.420   .     A
C381   C1149   1.399   .     S
C382   C1150   1.395   1_554 S
C383   C1176   1.415   .     S
C384   C1175   1.415   1_554 S
Cu385  O407    1.940   .     S
Cu385  O410    1.926   .     S
Cu385  N401    2.009   .     S
Cu385  O403    1.962   .     S
Cu385  O406    1.960   .     S
Cu386  O408    1.940   .     S
Cu386  O409    1.926   .     S
Cu386  N402    2.009   .     S
Cu386  O404    1.962   .     S
Cu386  O405    1.960   .     S
Cu386  Cu473   2.673   .     S
H389   C464    1.082   .     S
O405   C441    1.288   .     S
O408   C458    1.295   .     S
C411   O412    1.224   .     D
C411   O413    1.398   .     S
O413   H414    1.014   .     S
C415   O417    1.399   .     S
C415   O416    1.223   .     D
O417   H418    1.014   .     S
O419   C420    1.414   .     S
C420   C423    1.536   .     S
C420   H421    1.111   .     S
C420   H422    1.111   .     S
C423   H425    1.110   .     S
C423   C426    1.525   .     S
C423   H424    1.111   .     S
C426   H429    1.111   .     S
C426   H427    1.111   .     S
H428   C690    1.111   .     S
O430   C431    1.418   .     S
C431   H432    1.110   .     S
C431   C434    1.534   .     S
C431   H433    1.116   .     S
C434   H436    1.110   .     S
C434   C437    1.526   .     S
C434   H435    1.111   .     S
C437   H438    1.111   .     S
C437   H439    1.110   .     S
C437   H440    1.111   .     S
C441   C452    1.447   .     S
C441   O491    1.290   .     A
C442   C451    1.447   .     S
C442   O492    1.290   .     A
C442   O318    1.288   1_655 S
C443   C472    1.409   .     A
C443   H481    1.082   .     S
C443   C445    1.391   .     A
C444   C446    1.388   .     A
C444   H482    1.079   .     S
C444   C471    1.410   .     A
C445   H475    1.084   .     S
C445   C1261   1.399   1_554 S
C446   H476    1.084   .     S
C446   C1262   1.395   .     S
C447   H483    1.083   .     S
C447   C276    1.401   1_655 S
C448   H484    1.083   .     S
C448   C714    1.383   .     S
C449   H485    1.083   .     S
C449   C451    1.400   .     A
C449   C711    1.383   .     S
C450   H486    1.083   .     S
C450   C452    1.400   .     A
C451   C272    1.401   1_655 S
C453   C455    1.438   .     A
C453   H487    1.078   .     S
C453   N490    1.363   .     A
C454   N489    1.361   .     A
C454   H488    1.079   .     S
C454   C456    1.428   .     A
C455   O507    1.399   .     S
C455   N489    1.373   .     A
C456   N490    1.372   .     A
C456   O518    1.391   .     S
C457   C459    1.486   .     S
C457   O497    1.293   .     A
C457   O319    1.303   1_655 S
C458   O498    1.292   .     A
C458   C460    1.465   .     S
C459   C463    1.402   .     A
C459   C465    1.427   .     A
C460   C466    1.412   .     A
C460   C464    1.401   .     A
C461   C463    1.389   .     A
C461   C469    1.398   .     A
C461   H303    1.084   1_655 S
C462   C464    1.388   .     A
C462   H480    1.084   .     S
C462   C470    1.398   .     A
C463   H302    1.083   1_655 S
C465   C503    1.485   .     S
C465   C467    1.428   .     A
C466   C499    1.501   .     S
C466   C468    1.423   .     A
C467   C469    1.420   .     A
C467   C471    1.428   .     A
C468   C472    1.423   .     A
C468   C470    1.420   .     A
C469   C1237   1.399   .     S
C470   C1238   1.395   1_554 S
C471   C1264   1.415   .     S
C472   C1263   1.415   1_554 S
Cu473  O495    1.940   .     S
Cu473  O498    1.926   .     S
Cu473  N489    2.009   .     S
Cu473  O491    1.962   .     S
Cu473  O494    1.960   .     S
Cu474  O496    1.940   .     S
Cu474  O497    1.926   .     S
Cu474  N490    2.009   .     S
Cu474  O492    1.962   .     S
Cu474  O493    1.960   .     S
Cu474  Cu297   2.673   1_655 S
H477   C288    1.082   1_655 S
O493   C265    1.288   1_655 S
O496   C282    1.295   1_655 S
C499   O500    1.224   .     D
C499   O501    1.398   .     S
O501   H502    1.014   .     S
C503   O505    1.399   .     S
C503   O504    1.223   .     D
O505   H506    1.014   .     S
O507   C508    1.414   .     S
C508   C511    1.536   .     S
C508   H509    1.111   .     S
C508   H510    1.111   .     S
C511   H513    1.110   .     S
C511   C514    1.525   .     S
C511   H512    1.111   .     S
C514   H517    1.111   .     S
C514   H515    1.111   .     S
H516   C778    1.111   .     S
O518   C519    1.418   .     S
C519   H520    1.110   .     S
C519   C522    1.534   .     S
C519   H521    1.116   .     S
C522   H524    1.110   .     S
C522   C525    1.526   .     S
C522   H523    1.111   .     S
C525   H526    1.111   .     S
C525   H527    1.110   .     S
C525   H528    1.111   .     S
C529   C540    1.447   .     S
C529   O579    1.290   .     A
C529   O757    1.288   1_455 S
C530   C539    1.447   .     S
C530   O580    1.290   .     A
C530   O670    1.288   .     S
C531   C560    1.409   .     A
C531   H569    1.082   .     S
C531   C533    1.391   .     A
C532   C534    1.388   .     A
C532   H570    1.079   .     S
C532   C559    1.410   .     A
C533   H563    1.084   .     S
C533   C1349   1.399   1_554 S
C534   H564    1.084   .     S
C534   C1350   1.395   .     S
C535   H571    1.083   .     S
C535   C628    1.401   .     S
C536   H572    1.083   .     S
C536   C10     1.383   1_565 S
C536   C715    1.401   1_455 S
C537   H573    1.083   .     S
C537   C539    1.400   .     A
C537   C7      1.383   1_565 S
C538   H574    1.083   .     S
C538   C540    1.400   .     A
C539   C624    1.401   .     S
C540   C711    1.401   1_455 S
C541   C543    1.438   .     A
C541   H575    1.078   .     S
C541   N578    1.363   .     A
C542   N577    1.361   .     A
C542   H576    1.079   .     S
C542   C544    1.428   .     A
C543   O595    1.399   .     S
C543   N577    1.373   .     A
C544   N578    1.372   .     A
C544   O606    1.391   .     S
C545   C547    1.486   .     S
C545   O585    1.293   .     A
C545   O671    1.303   .     S
C546   O586    1.292   .     A
C546   C548    1.465   .     S
C546   O760    1.295   1_455 S
C547   C551    1.402   .     A
C547   C553    1.427   .     A
C548   C554    1.412   .     A
C548   C552    1.401   .     A
C549   C551    1.389   .     A
C549   C557    1.398   .     A
C549   H655    1.084   .     S
C550   C552    1.388   .     A
C550   H568    1.084   .     S
C550   C558    1.398   .     A
C551   H654    1.083   .     S
C552   H741    1.082   1_455 S
C553   C591    1.485   .     S
C553   C555    1.428   .     A
C554   C587    1.501   .     S
C554   C556    1.423   .     A
C555   C557    1.420   .     A
C555   C559    1.428   .     A
C556   C560    1.423   .     A
C556   C558    1.420   .     A
C557   C1325   1.399   .     S
C558   C1326   1.395   1_554 S
C559   C1352   1.415   .     S
C560   C1351   1.415   1_554 S
Cu561  O583    1.940   .     S
Cu561  O586    1.926   .     S
Cu561  N577    2.009   .     S
Cu561  O579    1.962   .     S
Cu561  O582    1.960   .     S
Cu561  Cu738   2.673   1_455 S
Cu562  O584    1.940   .     S
Cu562  O585    1.926   .     S
Cu562  N578    2.009   .     S
Cu562  O580    1.962   .     S
Cu562  O581    1.960   .     S
Cu562  Cu649   2.673   .     S
H565   C640    1.082   .     S
H566   C727    1.083   1_455 S
H567   C725    1.084   1_455 S
O581   C617    1.288   .     S
O582   C706    1.288   1_455 S
O583   C721    1.303   1_455 S
O584   C634    1.295   .     S
C587   O588    1.224   .     D
C587   O589    1.398   .     S
O589   H590    1.014   .     S
C591   O593    1.399   .     S
C591   O592    1.223   .     D
O593   H594    1.014   .     S
O595   C596    1.414   .     S
C596   C599    1.536   .     S
C596   H597    1.111   .     S
C596   H598    1.111   .     S
C599   H601    1.110   .     S
C599   C602    1.525   .     S
C599   H600    1.111   .     S
C602   H605    1.111   .     S
C602   H603    1.111   .     S
H604   C74     1.111   1_565 S
O606   C607    1.418   .     S
C607   H608    1.110   .     S
C607   C610    1.534   .     S
C607   H609    1.116   .     S
C610   H612    1.110   .     S
C610   C613    1.526   .     S
C610   H611    1.111   .     S
C613   H614    1.111   .     S
C613   H615    1.110   .     S
C613   H616    1.111   .     S
C617   C628    1.447   .     S
C617   O667    1.290   .     A
C618   C627    1.447   .     S
C618   O668    1.290   .     A
C618   O758    1.288   .     S
C619   C648    1.409   .     A
C619   H657    1.082   .     S
C619   C621    1.391   .     A
C620   C622    1.388   .     A
C620   H658    1.079   .     S
C620   C647    1.410   .     A
C621   H651    1.084   .     S
C621   C1437   1.399   1_554 S
C622   H652    1.084   .     S
C622   C1438   1.395   .     S
C623   H659    1.083   .     S
C623   C716    1.401   .     S
C624   H660    1.083   .     S
C624   C98     1.383   1_565 S
C625   H661    1.083   .     S
C625   C627    1.400   .     A
C625   C95     1.383   1_565 S
C626   H662    1.083   .     S
C626   C628    1.400   .     A
C627   C712    1.401   .     S
C629   C631    1.438   .     A
C629   H663    1.078   .     S
C629   N666    1.363   .     A
C630   N665    1.361   .     A
C630   H664    1.079   .     S
C630   C632    1.428   .     A
C631   O683    1.399   .     S
C631   N665    1.373   .     A
C632   N666    1.372   .     A
C632   O694    1.391   .     S
C633   C635    1.486   .     S
C633   O673    1.293   .     A
C633   O759    1.303   .     S
C634   O674    1.292   .     A
C634   C636    1.465   .     S
C635   C639    1.402   .     A
C635   C641    1.427   .     A
C636   C642    1.412   .     A
C636   C640    1.401   .     A
C637   C639    1.389   .     A
C637   C645    1.398   .     A
C637   H743    1.084   .     S
C638   C640    1.388   .     A
C638   H656    1.084   .     S
C638   C646    1.398   .     A
C639   H742    1.083   .     S
C641   C679    1.485   .     S
C641   C643    1.428   .     A
C642   C675    1.501   .     S
C642   C644    1.423   .     A
C643   C645    1.420   .     A
C643   C647    1.428   .     A
C644   C648    1.423   .     A
C644   C646    1.420   .     A
C645   C1413   1.399   .     S
C646   C1414   1.395   1_554 S
C647   C1440   1.415   .     S
C648   C1439   1.415   1_554 S
Cu649  O671    1.940   .     S
Cu649  O674    1.926   .     S
Cu649  N665    2.009   .     S
Cu649  O667    1.962   .     S
Cu649  O670    1.960   .     S
Cu650  O672    1.940   .     S
Cu650  O673    1.926   .     S
Cu650  N666    2.009   .     S
Cu650  O668    1.962   .     S
Cu650  O669    1.960   .     S
Cu650  Cu737   2.673   .     S
H653   C728    1.082   .     S
O669   C705    1.288   .     S
O672   C722    1.295   .     S
C675   O676    1.224   .     D
C675   O677    1.398   .     S
O677   H678    1.014   .     S
C679   O681    1.399   .     S
C679   O680    1.223   .     D
O681   H682    1.014   .     S
O683   C684    1.414   .     S
C684   C687    1.536   .     S
C684   H685    1.111   .     S
C684   H686    1.111   .     S
C687   H689    1.110   .     S
C687   C690    1.525   .     S
C687   H688    1.111   .     S
C690   H693    1.111   .     S
C690   H691    1.111   .     S
H692   C162    1.111   1_565 S
O694   C695    1.418   .     S
C695   H696    1.110   .     S
C695   C698    1.534   .     S
C695   H697    1.116   .     S
C698   H700    1.110   .     S
C698   C701    1.526   .     S
C698   H699    1.111   .     S
C701   H702    1.111   .     S
C701   H703    1.110   .     S
C701   H704    1.111   .     S
C705   C716    1.447   .     S
C705   O755    1.290   .     A
C706   C715    1.447   .     S
C706   O756    1.290   .     A
C706   O582    1.288   1_655 S
C707   C736    1.409   .     A
C707   H745    1.082   .     S
C707   C709    1.391   .     A
C708   C710    1.388   .     A
C708   H746    1.079   .     S
C708   C735    1.410   .     A
C709   H739    1.084   .     S
C709   C1525   1.399   1_554 S
C710   H740    1.084   .     S
C710   C1526   1.395   .     S
C711   H747    1.083   .     S
C711   C540    1.401   1_655 S
C712   H748    1.083   .     S
C712   C186    1.383   1_565 S
C713   H749    1.083   .     S
C713   C715    1.400   .     A
C713   C183    1.383   1_565 S
C714   H750    1.083   .     S
C714   C716    1.400   .     A
C715   C536    1.401   1_655 S
C717   C719    1.438   .     A
C717   H751    1.078   .     S
C717   N754    1.363   .     A
C718   N753    1.361   .     A
C718   H752    1.079   .     S
C718   C720    1.428   .     A
C719   O771    1.399   .     S
C719   N753    1.373   .     A
C720   N754    1.372   .     A
C720   O782    1.391   .     S
C721   C723    1.486   .     S
C721   O761    1.293   .     A
C721   O583    1.303   1_655 S
C722   O762    1.292   .     A
C722   C724    1.465   .     S
C723   C727    1.402   .     A
C723   C729    1.427   .     A
C724   C730    1.412   .     A
C724   C728    1.401   .     A
C725   C727    1.389   .     A
C725   C733    1.398   .     A
C725   H567    1.084   1_655 S
C726   C728    1.388   .     A
C726   H744    1.084   .     S
C726   C734    1.398   .     A
C727   H566    1.083   1_655 S
C729   C767    1.485   .     S
C729   C731    1.428   .     A
C730   C763    1.501   .     S
C730   C732    1.423   .     A
C731   C733    1.420   .     A
C731   C735    1.428   .     A
C732   C736    1.423   .     A
C732   C734    1.420   .     A
C733   C1501   1.399   .     S
C734   C1502   1.395   1_554 S
C735   C1528   1.415   .     S
C736   C1527   1.415   1_554 S
Cu737  O759    1.940   .     S
Cu737  O762    1.926   .     S
Cu737  N753    2.009   .     S
Cu737  O755    1.962   .     S
Cu737  O758    1.960   .     S
Cu738  O760    1.940   .     S
Cu738  O761    1.926   .     S
Cu738  N754    2.009   .     S
Cu738  O756    1.962   .     S
Cu738  O757    1.960   .     S
Cu738  Cu561   2.673   1_655 S
H741   C552    1.082   1_655 S
O757   C529    1.288   1_655 S
O760   C546    1.295   1_655 S
C763   O764    1.224   .     D
C763   O765    1.398   .     S
O765   H766    1.014   .     S
C767   O769    1.399   .     S
C767   O768    1.223   .     D
O769   H770    1.014   .     S
O771   C772    1.414   .     S
C772   C775    1.536   .     S
C772   H773    1.111   .     S
C772   H774    1.111   .     S
C775   H777    1.110   .     S
C775   C778    1.525   .     S
C775   H776    1.111   .     S
C778   H781    1.111   .     S
C778   H779    1.111   .     S
H780   C250    1.111   1_565 S
O782   C783    1.418   .     S
C783   H784    1.110   .     S
C783   C786    1.534   .     S
C783   H785    1.116   .     S
C786   H788    1.110   .     S
C786   C789    1.526   .     S
C786   H787    1.111   .     S
C789   H790    1.111   .     S
C789   H791    1.110   .     S
C789   H792    1.111   .     S
C793   C804    1.447   .     S
C793   O843    1.290   .     A
C793   O1021   1.288   1_455 S
C794   C803    1.447   .     S
C794   O844    1.290   .     A
C794   O934    1.288   .     S
C795   C824    1.409   .     A
C795   H833    1.082   .     S
C795   C797    1.391   .     A
C796   C798    1.388   .     A
C796   H834    1.079   .     S
C796   C823    1.410   .     A
C797   H827    1.084   .     S
C798   H828    1.084   .     S
C798   C30     1.395   1_556 S
C799   H835    1.083   .     S
C799   C1329   1.383   1_545 S
C799   C892    1.401   .     S
C800   H836    1.083   .     S
C800   C1066   1.383   .     S
C800   C979    1.401   1_455 S
C801   H837    1.083   .     S
C801   C803    1.400   .     A
C801   C1063   1.383   .     S
C802   H838    1.083   .     S
C802   C804    1.400   .     A
C802   C1328   1.383   1_545 S
C803   C888    1.401   .     S
C804   C975    1.401   1_455 S
C805   C807    1.438   .     A
C805   H839    1.078   .     S
C805   N842    1.363   .     A
C806   N841    1.361   .     A
C806   H840    1.079   .     S
C806   C808    1.428   .     A
C807   O859    1.399   .     S
C807   N841    1.373   .     A
C808   N842    1.372   .     A
C808   O870    1.391   .     S
C809   C811    1.486   .     S
C809   O849    1.293   .     A
C809   O935    1.303   .     S
C810   O850    1.292   .     A
C810   C812    1.465   .     S
C810   O1024   1.295   1_455 S
C811   C815    1.402   .     A
C811   C817    1.427   .     A
C812   C818    1.412   .     A
C812   C816    1.401   .     A
C813   C815    1.389   .     A
C813   C821    1.398   .     A
C813   H919    1.084   .     S
C814   C816    1.388   .     A
C814   H832    1.084   .     S
C814   C822    1.398   .     A
C815   H918    1.083   .     S
C816   H1005   1.082   1_455 S
C817   C855    1.485   .     S
C817   C819    1.428   .     A
C818   C851    1.501   .     S
C818   C820    1.423   .     A
C819   C821    1.420   .     A
C819   C823    1.428   .     A
C820   C824    1.423   .     A
C820   C822    1.420   .     A
C821   C5      1.399   1_556 S
C823   C32     1.415   1_556 S
Cu825  O847    1.940   .     S
Cu825  O850    1.926   .     S
Cu825  N841    2.009   .     S
Cu825  O843    1.962   .     S
Cu825  O846    1.960   .     S
Cu825  Cu1002  2.673   1_455 S
Cu826  O848    1.940   .     S
Cu826  O849    1.926   .     S
Cu826  N842    2.009   .     S
Cu826  O844    1.962   .     S
Cu826  O845    1.960   .     S
Cu826  Cu913   2.673   .     S
H829   C904    1.082   .     S
H830   C991    1.083   1_455 S
H831   C989    1.084   1_455 S
O845   C881    1.288   .     S
O846   C970    1.288   1_455 S
O847   C985    1.303   1_455 S
O848   C898    1.295   .     S
C851   O852    1.224   .     D
C851   O853    1.398   .     S
O853   H854    1.014   .     S
C855   O857    1.399   .     S
C855   O856    1.223   .     D
O857   H858    1.014   .     S
O859   C860    1.414   .     S
C860   C863    1.536   .     S
C860   H861    1.111   .     S
C860   H862    1.111   .     S
C863   H865    1.110   .     S
C863   C866    1.525   .     S
C863   H864    1.111   .     S
C866   H869    1.111   .     S
C866   H867    1.111   .     S
C866   H1396   1.111   1_545 S
H868   C1130   1.111   .     S
O870   C871    1.418   .     S
C871   H872    1.110   .     S
C871   C874    1.534   .     S
C871   H873    1.116   .     S
C874   H876    1.110   .     S
C874   C877    1.526   .     S
C874   H875    1.111   .     S
C877   H878    1.111   .     S
C877   H879    1.110   .     S
C877   H880    1.111   .     S
C881   C892    1.447   .     S
C881   O931    1.290   .     A
C882   C891    1.447   .     S
C882   O932    1.290   .     A
C882   O1022   1.288   .     S
C883   C912    1.409   .     A
C883   H921    1.082   .     S
C883   C885    1.391   .     A
C884   C886    1.388   .     A
C884   H922    1.079   .     S
C884   C911    1.410   .     A
C885   H915    1.084   .     S
C886   H916    1.084   .     S
C886   C118    1.395   1_556 S
C887   H923    1.083   .     S
C887   C1417   1.383   1_545 S
C887   C980    1.401   .     S
C888   H924    1.083   .     S
C888   C1154   1.383   .     S
C889   H925    1.083   .     S
C889   C891    1.400   .     A
C889   C1151   1.383   .     S
C890   H926    1.083   .     S
C890   C892    1.400   .     A
C890   C1416   1.383   1_545 S
C891   C976    1.401   .     S
C893   C895    1.438   .     A
C893   H927    1.078   .     S
C893   N930    1.363   .     A
C894   N929    1.361   .     A
C894   H928    1.079   .     S
C894   C896    1.428   .     A
C895   O947    1.399   .     S
C895   N929    1.373   .     A
C896   N930    1.372   .     A
C896   O958    1.391   .     S
C897   C899    1.486   .     S
C897   O937    1.293   .     A
C897   O1023   1.303   .     S
C898   O938    1.292   .     A
C898   C900    1.465   .     S
C899   C903    1.402   .     A
C899   C905    1.427   .     A
C900   C906    1.412   .     A
C900   C904    1.401   .     A
C901   C903    1.389   .     A
C901   C909    1.398   .     A
C901   H1007   1.084   .     S
C902   C904    1.388   .     A
C902   H920    1.084   .     S
C902   C910    1.398   .     A
C903   H1006   1.083   .     S
C905   C943    1.485   .     S
C905   C907    1.428   .     A
C906   C939    1.501   .     S
C906   C908    1.423   .     A
C907   C909    1.420   .     A
C907   C911    1.428   .     A
C908   C912    1.423   .     A
C908   C910    1.420   .     A
C909   C93     1.399   1_556 S
C911   C120    1.415   1_556 S
Cu913  O935    1.940   .     S
Cu913  O938    1.926   .     S
Cu913  N929    2.009   .     S
Cu913  O931    1.962   .     S
Cu913  O934    1.960   .     S
Cu914  O936    1.940   .     S
Cu914  O937    1.926   .     S
Cu914  N930    2.009   .     S
Cu914  O932    1.962   .     S
Cu914  O933    1.960   .     S
Cu914  Cu1001  2.673   .     S
H917   C992    1.082   .     S
O933   C969    1.288   .     S
O936   C986    1.295   .     S
C939   O940    1.224   .     D
C939   O941    1.398   .     S
O941   H942    1.014   .     S
C943   O945    1.399   .     S
C943   O944    1.223   .     D
O945   H946    1.014   .     S
O947   C948    1.414   .     S
C948   C951    1.536   .     S
C948   H949    1.111   .     S
C948   H950    1.111   .     S
C951   H953    1.110   .     S
C951   C954    1.525   .     S
C951   H952    1.111   .     S
C954   H957    1.111   .     S
C954   H955    1.111   .     S
C954   H1484   1.111   1_545 S
H956   C1218   1.111   .     S
O958   C959    1.418   .     S
C959   H960    1.110   .     S
C959   C962    1.534   .     S
C959   H961    1.116   .     S
C962   H964    1.110   .     S
C962   C965    1.526   .     S
C962   H963    1.111   .     S
C965   H966    1.111   .     S
C965   H967    1.110   .     S
C965   H968    1.111   .     S
C969   C980    1.447   .     S
C969   O1019   1.290   .     A
C970   C979    1.447   .     S
C970   O1020   1.290   .     A
C970   O846    1.288   1_655 S
C971   C1000   1.409   .     A
C971   H1009   1.082   .     S
C971   C973    1.391   .     A
C972   C974    1.388   .     A
C972   H1010   1.079   .     S
C972   C999    1.410   .     A
C973   H1003   1.084   .     S
C974   H1004   1.084   .     S
C974   C206    1.395   1_556 S
C975   H1011   1.083   .     S
C975   C1505   1.383   1_545 S
C975   C804    1.401   1_655 S
C976   H1012   1.083   .     S
C976   C1242   1.383   .     S
C977   H1013   1.083   .     S
C977   C979    1.400   .     A
C977   C1239   1.383   .     S
C978   H1014   1.083   .     S
C978   C980    1.400   .     A
C978   C1504   1.383   1_545 S
C979   C800    1.401   1_655 S
C981   C983    1.438   .     A
C981   H1015   1.078   .     S
C981   N1018   1.363   .     A
C982   N1017   1.361   .     A
C982   H1016   1.079   .     S
C982   C984    1.428   .     A
C983   O1035   1.399   .     S
C983   N1017   1.373   .     A
C984   N1018   1.372   .     A
C984   O1046   1.391   .     S
C985   C987    1.486   .     S
C985   O1025   1.293   .     A
C985   O847    1.303   1_655 S
C986   O1026   1.292   .     A
C986   C988    1.465   .     S
C987   C991    1.402   .     A
C987   C993    1.427   .     A
C988   C994    1.412   .     A
C988   C992    1.401   .     A
C989   C991    1.389   .     A
C989   C997    1.398   .     A
C989   H831    1.084   1_655 S
C990   C992    1.388   .     A
C990   H1008   1.084   .     S
C990   C998    1.398   .     A
C991   H830    1.083   1_655 S
C993   C1031   1.485   .     S
C993   C995    1.428   .     A
C994   C1027   1.501   .     S
C994   C996    1.423   .     A
C995   C997    1.420   .     A
C995   C999    1.428   .     A
C996   C1000   1.423   .     A
C996   C998    1.420   .     A
C997   C181    1.399   1_556 S
C999   C208    1.415   1_556 S
Cu1001 O1023   1.940   .     S
Cu1001 O1026   1.926   .     S
Cu1001 N1017   2.009   .     S
Cu1001 O1019   1.962   .     S
Cu1001 O1022   1.960   .     S
Cu1002 O1024   1.940   .     S
Cu1002 O1025   1.926   .     S
Cu1002 N1018   2.009   .     S
Cu1002 O1020   1.962   .     S
Cu1002 O1021   1.960   .     S
Cu1002 Cu825   2.673   1_655 S
H1005  C816    1.082   1_655 S
O1021  C793    1.288   1_655 S
O1024  C810    1.295   1_655 S
C1027  O1028   1.224   .     D
C1027  O1029   1.398   .     S
O1029  H1030   1.014   .     S
C1031  O1033   1.399   .     S
C1031  O1032   1.223   .     D
O1033  H1034   1.014   .     S
O1035  C1036   1.414   .     S
C1036  C1039   1.536   .     S
C1036  H1037   1.111   .     S
C1036  H1038   1.111   .     S
C1039  H1041   1.110   .     S
C1039  C1042   1.525   .     S
C1039  H1040   1.111   .     S
C1042  H1045   1.111   .     S
C1042  H1043   1.111   .     S
C1042  H1572   1.111   1_545 S
H1044  C1306   1.111   .     S
O1046  C1047   1.418   .     S
C1047  H1048   1.110   .     S
C1047  C1050   1.534   .     S
C1047  H1049   1.116   .     S
C1050  H1052   1.110   .     S
C1050  C1053   1.526   .     S
C1050  H1051   1.111   .     S
C1053  H1054   1.111   .     S
C1053  H1055   1.110   .     S
C1053  H1056   1.111   .     S
C1057  C1068   1.447   .     S
C1057  O1107   1.290   .     A
C1057  O1285   1.288   1_455 S
C1058  C1067   1.447   .     S
C1058  O1108   1.290   .     A
C1058  O1198   1.288   .     S
C1059  C1088   1.409   .     A
C1059  H1097   1.082   .     S
C1059  C1061   1.391   .     A
C1060  C1062   1.388   .     A
C1060  H1098   1.079   .     S
C1060  C1087   1.410   .     A
C1061  H1091   1.084   .     S
C1062  H1092   1.084   .     S
C1062  C294    1.395   1_556 S
C1063  H1099   1.083   .     S
C1063  C1156   1.401   .     S
C1064  H1100   1.083   .     S
C1064  C1330   1.383   .     S
C1064  C1243   1.401   1_455 S
C1065  H1101   1.083   .     S
C1065  C1067   1.400   .     A
C1065  C1327   1.383   .     S
C1066  H1102   1.083   .     S
C1066  C1068   1.400   .     A
C1067  C1152   1.401   .     S
C1068  C1239   1.401   1_455 S
C1069  C1071   1.438   .     A
C1069  H1103   1.078   .     S
C1069  N1106   1.363   .     A
C1070  N1105   1.361   .     A
C1070  H1104   1.079   .     S
C1070  C1072   1.428   .     A
C1071  O1123   1.399   .     S
C1071  N1105   1.373   .     A
C1072  N1106   1.372   .     A
C1072  O1134   1.391   .     S
C1073  C1075   1.486   .     S
C1073  O1113   1.293   .     A
C1073  O1199   1.303   .     S
C1074  O1114   1.292   .     A
C1074  C1076   1.465   .     S
C1074  O1288   1.295   1_455 S
C1075  C1079   1.402   .     A
C1075  C1081   1.427   .     A
C1076  C1082   1.412   .     A
C1076  C1080   1.401   .     A
C1077  C1079   1.389   .     A
C1077  C1085   1.398   .     A
C1077  H1183   1.084   .     S
C1078  C1080   1.388   .     A
C1078  H1096   1.084   .     S
C1078  C1086   1.398   .     A
C1079  H1182   1.083   .     S
C1080  H1269   1.082   1_455 S
C1081  C1119   1.485   .     S
C1081  C1083   1.428   .     A
C1082  C1115   1.501   .     S
C1082  C1084   1.423   .     A
C1083  C1085   1.420   .     A
C1083  C1087   1.428   .     A
C1084  C1088   1.423   .     A
C1084  C1086   1.420   .     A
C1085  C269    1.399   1_556 S
C1087  C296    1.415   1_556 S
Cu1089 O1111   1.940   .     S
Cu1089 O1114   1.926   .     S
Cu1089 N1105   2.009   .     S
Cu1089 O1107   1.962   .     S
Cu1089 O1110   1.960   .     S
Cu1089 Cu1266  2.673   1_455 S
Cu1090 O1112   1.940   .     S
Cu1090 O1113   1.926   .     S
Cu1090 N1106   2.009   .     S
Cu1090 O1108   1.962   .     S
Cu1090 O1109   1.960   .     S
Cu1090 Cu1177  2.673   .     S
H1093  C1168   1.082   .     S
H1094  C1255   1.083   1_455 S
H1095  C1253   1.084   1_455 S
O1109  C1145   1.288   .     S
O1110  C1234   1.288   1_455 S
O1111  C1249   1.303   1_455 S
O1112  C1162   1.295   .     S
C1115  O1116   1.224   .     D
C1115  O1117   1.398   .     S
O1117  H1118   1.014   .     S
C1119  O1121   1.399   .     S
C1119  O1120   1.223   .     D
O1121  H1122   1.014   .     S
O1123  C1124   1.414   .     S
C1124  C1127   1.536   .     S
C1124  H1125   1.111   .     S
C1124  H1126   1.111   .     S
C1127  H1129   1.110   .     S
C1127  C1130   1.525   .     S
C1127  H1128   1.111   .     S
C1130  H1133   1.111   .     S
C1130  H1131   1.111   .     S
H1132  C1394   1.111   .     S
O1134  C1135   1.418   .     S
C1135  H1136   1.110   .     S
C1135  C1138   1.534   .     S
C1135  H1137   1.116   .     S
C1138  H1140   1.110   .     S
C1138  C1141   1.526   .     S
C1138  H1139   1.111   .     S
C1141  H1142   1.111   .     S
C1141  H1143   1.110   .     S
C1141  H1144   1.111   .     S
C1145  C1156   1.447   .     S
C1145  O1195   1.290   .     A
C1146  C1155   1.447   .     S
C1146  O1196   1.290   .     A
C1146  O1286   1.288   .     S
C1147  C1176   1.409   .     A
C1147  H1185   1.082   .     S
C1147  C1149   1.391   .     A
C1148  C1150   1.388   .     A
C1148  H1186   1.079   .     S
C1148  C1175   1.410   .     A
C1149  H1179   1.084   .     S
C1150  H1180   1.084   .     S
C1150  C382    1.395   1_556 S
C1151  H1187   1.083   .     S
C1151  C1244   1.401   .     S
C1152  H1188   1.083   .     S
C1152  C1418   1.383   .     S
C1153  H1189   1.083   .     S
C1153  C1155   1.400   .     A
C1153  C1415   1.383   .     S
C1154  H1190   1.083   .     S
C1154  C1156   1.400   .     A
C1155  C1240   1.401   .     S
C1157  C1159   1.438   .     A
C1157  H1191   1.078   .     S
C1157  N1194   1.363   .     A
C1158  N1193   1.361   .     A
C1158  H1192   1.079   .     S
C1158  C1160   1.428   .     A
C1159  O1211   1.399   .     S
C1159  N1193   1.373   .     A
C1160  N1194   1.372   .     A
C1160  O1222   1.391   .     S
C1161  C1163   1.486   .     S
C1161  O1201   1.293   .     A
C1161  O1287   1.303   .     S
C1162  O1202   1.292   .     A
C1162  C1164   1.465   .     S
C1163  C1167   1.402   .     A
C1163  C1169   1.427   .     A
C1164  C1170   1.412   .     A
C1164  C1168   1.401   .     A
C1165  C1167   1.389   .     A
C1165  C1173   1.398   .     A
C1165  H1271   1.084   .     S
C1166  C1168   1.388   .     A
C1166  H1184   1.084   .     S
C1166  C1174   1.398   .     A
C1167  H1270   1.083   .     S
C1169  C1207   1.485   .     S
C1169  C1171   1.428   .     A
C1170  C1203   1.501   .     S
C1170  C1172   1.423   .     A
C1171  C1173   1.420   .     A
C1171  C1175   1.428   .     A
C1172  C1176   1.423   .     A
C1172  C1174   1.420   .     A
C1173  C357    1.399   1_556 S
C1175  C384    1.415   1_556 S
Cu1177 O1199   1.940   .     S
Cu1177 O1202   1.926   .     S
Cu1177 N1193   2.009   .     S
Cu1177 O1195   1.962   .     S
Cu1177 O1198   1.960   .     S
Cu1178 O1200   1.940   .     S
Cu1178 O1201   1.926   .     S
Cu1178 N1194   2.009   .     S
Cu1178 O1196   1.962   .     S
Cu1178 O1197   1.960   .     S
Cu1178 Cu1265  2.673   .     S
H1181  C1256   1.082   .     S
O1197  C1233   1.288   .     S
O1200  C1250   1.295   .     S
C1203  O1204   1.224   .     D
C1203  O1205   1.398   .     S
O1205  H1206   1.014   .     S
C1207  O1209   1.399   .     S
C1207  O1208   1.223   .     D
O1209  H1210   1.014   .     S
O1211  C1212   1.414   .     S
C1212  C1215   1.536   .     S
C1212  H1213   1.111   .     S
C1212  H1214   1.111   .     S
C1215  H1217   1.110   .     S
C1215  C1218   1.525   .     S
C1215  H1216   1.111   .     S
C1218  H1221   1.111   .     S
C1218  H1219   1.111   .     S
H1220  C1482   1.111   .     S
O1222  C1223   1.418   .     S
C1223  H1224   1.110   .     S
C1223  C1226   1.534   .     S
C1223  H1225   1.116   .     S
C1226  H1228   1.110   .     S
C1226  C1229   1.526   .     S
C1226  H1227   1.111   .     S
C1229  H1230   1.111   .     S
C1229  H1231   1.110   .     S
C1229  H1232   1.111   .     S
C1233  C1244   1.447   .     S
C1233  O1283   1.290   .     A
C1234  C1243   1.447   .     S
C1234  O1284   1.290   .     A
C1234  O1110   1.288   1_655 S
C1235  C1264   1.409   .     A
C1235  H1273   1.082   .     S
C1235  C1237   1.391   .     A
C1236  C1238   1.388   .     A
C1236  H1274   1.079   .     S
C1236  C1263   1.410   .     A
C1237  H1267   1.084   .     S
C1238  H1268   1.084   .     S
C1238  C470    1.395   1_556 S
C1239  H1275   1.083   .     S
C1239  C1068   1.401   1_655 S
C1240  H1276   1.083   .     S
C1240  C1506   1.383   .     S
C1241  H1277   1.083   .     S
C1241  C1243   1.400   .     A
C1241  C1503   1.383   .     S
C1242  H1278   1.083   .     S
C1242  C1244   1.400   .     A
C1243  C1064   1.401   1_655 S
C1245  C1247   1.438   .     A
C1245  H1279   1.078   .     S
C1245  N1282   1.363   .     A
C1246  N1281   1.361   .     A
C1246  H1280   1.079   .     S
C1246  C1248   1.428   .     A
C1247  O1299   1.399   .     S
C1247  N1281   1.373   .     A
C1248  N1282   1.372   .     A
C1248  O1310   1.391   .     S
C1249  C1251   1.486   .     S
C1249  O1289   1.293   .     A
C1249  O1111   1.303   1_655 S
C1250  O1290   1.292   .     A
C1250  C1252   1.465   .     S
C1251  C1255   1.402   .     A
C1251  C1257   1.427   .     A
C1252  C1258   1.412   .     A
C1252  C1256   1.401   .     A
C1253  C1255   1.389   .     A
C1253  C1261   1.398   .     A
C1253  H1095   1.084   1_655 S
C1254  C1256   1.388   .     A
C1254  H1272   1.084   .     S
C1254  C1262   1.398   .     A
C1255  H1094   1.083   1_655 S
C1257  C1295   1.485   .     S
C1257  C1259   1.428   .     A
C1258  C1291   1.501   .     S
C1258  C1260   1.423   .     A
C1259  C1261   1.420   .     A
C1259  C1263   1.428   .     A
C1260  C1264   1.423   .     A
C1260  C1262   1.420   .     A
C1261  C445    1.399   1_556 S
C1263  C472    1.415   1_556 S
Cu1265 O1287   1.940   .     S
Cu1265 O1290   1.926   .     S
Cu1265 N1281   2.009   .     S
Cu1265 O1283   1.962   .     S
Cu1265 O1286   1.960   .     S
Cu1266 O1288   1.940   .     S
Cu1266 O1289   1.926   .     S
Cu1266 N1282   2.009   .     S
Cu1266 O1284   1.962   .     S
Cu1266 O1285   1.960   .     S
Cu1266 Cu1089  2.673   1_655 S
H1269  C1080   1.082   1_655 S
O1285  C1057   1.288   1_655 S
O1288  C1074   1.295   1_655 S
C1291  O1292   1.224   .     D
C1291  O1293   1.398   .     S
O1293  H1294   1.014   .     S
C1295  O1297   1.399   .     S
C1295  O1296   1.223   .     D
O1297  H1298   1.014   .     S
O1299  C1300   1.414   .     S
C1300  C1303   1.536   .     S
C1300  H1301   1.111   .     S
C1300  H1302   1.111   .     S
C1303  H1305   1.110   .     S
C1303  C1306   1.525   .     S
C1303  H1304   1.111   .     S
C1306  H1309   1.111   .     S
C1306  H1307   1.111   .     S
H1308  C1570   1.111   .     S
O1310  C1311   1.418   .     S
C1311  H1312   1.110   .     S
C1311  C1314   1.534   .     S
C1311  H1313   1.116   .     S
C1314  H1316   1.110   .     S
C1314  C1317   1.526   .     S
C1314  H1315   1.111   .     S
C1317  H1318   1.111   .     S
C1317  H1319   1.110   .     S
C1317  H1320   1.111   .     S
C1321  C1332   1.447   .     S
C1321  O1371   1.290   .     A
C1321  O1549   1.288   1_455 S
C1322  C1331   1.447   .     S
C1322  O1372   1.290   .     A
C1322  O1462   1.288   .     S
C1323  C1352   1.409   .     A
C1323  H1361   1.082   .     S
C1323  C1325   1.391   .     A
C1324  C1326   1.388   .     A
C1324  H1362   1.079   .     S
C1324  C1351   1.410   .     A
C1325  H1355   1.084   .     S
C1326  H1356   1.084   .     S
C1326  C558    1.395   1_556 S
C1327  H1363   1.083   .     S
C1327  C1420   1.401   .     S
C1328  H1364   1.083   .     S
C1328  C802    1.383   1_565 S
C1328  C1507   1.401   1_455 S
C1329  H1365   1.083   .     S
C1329  C1331   1.400   .     A
C1329  C799    1.383   1_565 S
C1330  H1366   1.083   .     S
C1330  C1332   1.400   .     A
C1331  C1416   1.401   .     S
C1332  C1503   1.401   1_455 S
C1333  C1335   1.438   .     A
C1333  H1367   1.078   .     S
C1333  N1370   1.363   .     A
C1334  N1369   1.361   .     A
C1334  H1368   1.079   .     S
C1334  C1336   1.428   .     A
C1335  O1387   1.399   .     S
C1335  N1369   1.373   .     A
C1336  N1370   1.372   .     A
C1336  O1398   1.391   .     S
C1337  C1339   1.486   .     S
C1337  O1377   1.293   .     A
C1337  O1463   1.303   .     S
C1338  O1378   1.292   .     A
C1338  C1340   1.465   .     S
C1338  O1552   1.295   1_455 S
C1339  C1343   1.402   .     A
C1339  C1345   1.427   .     A
C1340  C1346   1.412   .     A
C1340  C1344   1.401   .     A
C1341  C1343   1.389   .     A
C1341  C1349   1.398   .     A
C1341  H1447   1.084   .     S
C1342  C1344   1.388   .     A
C1342  H1360   1.084   .     S
C1342  C1350   1.398   .     A
C1343  H1446   1.083   .     S
C1344  H1533   1.082   1_455 S
C1345  C1383   1.485   .     S
C1345  C1347   1.428   .     A
C1346  C1379   1.501   .     S
C1346  C1348   1.423   .     A
C1347  C1349   1.420   .     A
C1347  C1351   1.428   .     A
C1348  C1352   1.423   .     A
C1348  C1350   1.420   .     A
C1349  C533    1.399   1_556 S
C1351  C560    1.415   1_556 S
Cu1353 O1375   1.940   .     S
Cu1353 O1378   1.926   .     S
Cu1353 N1369   2.009   .     S
Cu1353 O1371   1.962   .     S
Cu1353 O1374   1.960   .     S
Cu1353 Cu1530  2.673   1_455 S
Cu1354 O1376   1.940   .     S
Cu1354 O1377   1.926   .     S
Cu1354 N1370   2.009   .     S
Cu1354 O1372   1.962   .     S
Cu1354 O1373   1.960   .     S
Cu1354 Cu1441  2.673   .     S
H1357  C1432   1.082   .     S
H1358  C1519   1.083   1_455 S
H1359  C1517   1.084   1_455 S
O1373  C1409   1.288   .     S
O1374  C1498   1.288   1_455 S
O1375  C1513   1.303   1_455 S
O1376  C1426   1.295   .     S
C1379  O1380   1.224   .     D
C1379  O1381   1.398   .     S
O1381  H1382   1.014   .     S
C1383  O1385   1.399   .     S
C1383  O1384   1.223   .     D
O1385  H1386   1.014   .     S
O1387  C1388   1.414   .     S
C1388  C1391   1.536   .     S
C1388  H1389   1.111   .     S
C1388  H1390   1.111   .     S
C1391  H1393   1.110   .     S
C1391  C1394   1.525   .     S
C1391  H1392   1.111   .     S
C1394  H1397   1.111   .     S
C1394  H1395   1.111   .     S
H1396  C866    1.111   1_565 S
O1398  C1399   1.418   .     S
C1399  H1400   1.110   .     S
C1399  C1402   1.534   .     S
C1399  H1401   1.116   .     S
C1402  H1404   1.110   .     S
C1402  C1405   1.526   .     S
C1402  H1403   1.111   .     S
C1405  H1406   1.111   .     S
C1405  H1407   1.110   .     S
C1405  H1408   1.111   .     S
C1409  C1420   1.447   .     S
C1409  O1459   1.290   .     A
C1410  C1419   1.447   .     S
C1410  O1460   1.290   .     A
C1410  O1550   1.288   .     S
C1411  C1440   1.409   .     A
C1411  H1449   1.082   .     S
C1411  C1413   1.391   .     A
C1412  C1414   1.388   .     A
C1412  H1450   1.079   .     S
C1412  C1439   1.410   .     A
C1413  H1443   1.084   .     S
C1414  H1444   1.084   .     S
C1414  C646    1.395   1_556 S
C1415  H1451   1.083   .     S
C1415  C1508   1.401   .     S
C1416  H1452   1.083   .     S
C1416  C890    1.383   1_565 S
C1417  H1453   1.083   .     S
C1417  C1419   1.400   .     A
C1417  C887    1.383   1_565 S
C1418  H1454   1.083   .     S
C1418  C1420   1.400   .     A
C1419  C1504   1.401   .     S
C1421  C1423   1.438   .     A
C1421  H1455   1.078   .     S
C1421  N1458   1.363   .     A
C1422  N1457   1.361   .     A
C1422  H1456   1.079   .     S
C1422  C1424   1.428   .     A
C1423  O1475   1.399   .     S
C1423  N1457   1.373   .     A
C1424  N1458   1.372   .     A
C1424  O1486   1.391   .     S
C1425  C1427   1.486   .     S
C1425  O1465   1.293   .     A
C1425  O1551   1.303   .     S
C1426  O1466   1.292   .     A
C1426  C1428   1.465   .     S
C1427  C1431   1.402   .     A
C1427  C1433   1.427   .     A
C1428  C1434   1.412   .     A
C1428  C1432   1.401   .     A
C1429  C1431   1.389   .     A
C1429  C1437   1.398   .     A
C1429  H1535   1.084   .     S
C1430  C1432   1.388   .     A
C1430  H1448   1.084   .     S
C1430  C1438   1.398   .     A
C1431  H1534   1.083   .     S
C1433  C1471   1.485   .     S
C1433  C1435   1.428   .     A
C1434  C1467   1.501   .     S
C1434  C1436   1.423   .     A
C1435  C1437   1.420   .     A
C1435  C1439   1.428   .     A
C1436  C1440   1.423   .     A
C1436  C1438   1.420   .     A
C1437  C621    1.399   1_556 S
C1439  C648    1.415   1_556 S
Cu1441 O1463   1.940   .     S
Cu1441 O1466   1.926   .     S
Cu1441 N1457   2.009   .     S
Cu1441 O1459   1.962   .     S
Cu1441 O1462   1.960   .     S
Cu1442 O1464   1.940   .     S
Cu1442 O1465   1.926   .     S
Cu1442 N1458   2.009   .     S
Cu1442 O1460   1.962   .     S
Cu1442 O1461   1.960   .     S
Cu1442 Cu1529  2.673   .     S
H1445  C1520   1.082   .     S
O1461  C1497   1.288   .     S
O1464  C1514   1.295   .     S
C1467  O1468   1.224   .     D
C1467  O1469   1.398   .     S
O1469  H1470   1.014   .     S
C1471  O1473   1.399   .     S
C1471  O1472   1.223   .     D
O1473  H1474   1.014   .     S
O1475  C1476   1.414   .     S
C1476  C1479   1.536   .     S
C1476  H1477   1.111   .     S
C1476  H1478   1.111   .     S
C1479  H1481   1.110   .     S
C1479  C1482   1.525   .     S
C1479  H1480   1.111   .     S
C1482  H1485   1.111   .     S
C1482  H1483   1.111   .     S
H1484  C954    1.111   1_565 S
O1486  C1487   1.418   .     S
C1487  H1488   1.110   .     S
C1487  C1490   1.534   .     S
C1487  H1489   1.116   .     S
C1490  H1492   1.110   .     S
C1490  C1493   1.526   .     S
C1490  H1491   1.111   .     S
C1493  H1494   1.111   .     S
C1493  H1495   1.110   .     S
C1493  H1496   1.111   .     S
C1497  C1508   1.447   .     S
C1497  O1547   1.290   .     A
C1498  C1507   1.447   .     S
C1498  O1548   1.290   .     A
C1498  O1374   1.288   1_655 S
C1499  C1528   1.409   .     A
C1499  H1537   1.082   .     S
C1499  C1501   1.391   .     A
C1500  C1502   1.388   .     A
C1500  H1538   1.079   .     S
C1500  C1527   1.410   .     A
C1501  H1531   1.084   .     S
C1502  H1532   1.084   .     S
C1502  C734    1.395   1_556 S
C1503  H1539   1.083   .     S
C1503  C1332   1.401   1_655 S
C1504  H1540   1.083   .     S
C1504  C978    1.383   1_565 S
C1505  H1541   1.083   .     S
C1505  C1507   1.400   .     A
C1505  C975    1.383   1_565 S
C1506  H1542   1.083   .     S
C1506  C1508   1.400   .     A
C1507  C1328   1.401   1_655 S
C1509  C1511   1.438   .     A
C1509  H1543   1.078   .     S
C1509  N1546   1.363   .     A
C1510  N1545   1.361   .     A
C1510  H1544   1.079   .     S
C1510  C1512   1.428   .     A
C1511  O1563   1.399   .     S
C1511  N1545   1.373   .     A
C1512  N1546   1.372   .     A
C1512  O1574   1.391   .     S
C1513  C1515   1.486   .     S
C1513  O1553   1.293   .     A
C1513  O1375   1.303   1_655 S
C1514  O1554   1.292   .     A
C1514  C1516   1.465   .     S
C1515  C1519   1.402   .     A
C1515  C1521   1.427   .     A
C1516  C1522   1.412   .     A
C1516  C1520   1.401   .     A
C1517  C1519   1.389   .     A
C1517  C1525   1.398   .     A
C1517  H1359   1.084   1_655 S
C1518  C1520   1.388   .     A
C1518  H1536   1.084   .     S
C1518  C1526   1.398   .     A
C1519  H1358   1.083   1_655 S
C1521  C1559   1.485   .     S
C1521  C1523   1.428   .     A
C1522  C1555   1.501   .     S
C1522  C1524   1.423   .     A
C1523  C1525   1.420   .     A
C1523  C1527   1.428   .     A
C1524  C1528   1.423   .     A
C1524  C1526   1.420   .     A
C1525  C709    1.399   1_556 S
C1527  C736    1.415   1_556 S
Cu1529 O1551   1.940   .     S
Cu1529 O1554   1.926   .     S
Cu1529 N1545   2.009   .     S
Cu1529 O1547   1.962   .     S
Cu1529 O1550   1.960   .     S
Cu1530 O1552   1.940   .     S
Cu1530 O1553   1.926   .     S
Cu1530 N1546   2.009   .     S
Cu1530 O1548   1.962   .     S
Cu1530 O1549   1.960   .     S
Cu1530 Cu1353  2.673   1_655 S
H1533  C1344   1.082   1_655 S
O1549  C1321   1.288   1_655 S
O1552  C1338   1.295   1_655 S
C1555  O1556   1.224   .     D
C1555  O1557   1.398   .     S
O1557  H1558   1.014   .     S
C1559  O1561   1.399   .     S
C1559  O1560   1.223   .     D
O1561  H1562   1.014   .     S
O1563  C1564   1.414   .     S
C1564  C1567   1.536   .     S
C1564  H1565   1.111   .     S
C1564  H1566   1.111   .     S
C1567  H1569   1.110   .     S
C1567  C1570   1.525   .     S
C1567  H1568   1.111   .     S
C1570  H1573   1.111   .     S
C1570  H1571   1.111   .     S
H1572  C1042   1.111   1_565 S
O1574  C1575   1.418   .     S
C1575  H1576   1.110   .     S
C1575  C1578   1.534   .     S
C1575  H1577   1.116   .     S
C1578  H1580   1.110   .     S
C1578  C1581   1.526   .     S
C1578  H1579   1.111   .     S
C1581  H1582   1.111   .     S
C1581  H1583   1.110   .     S
C1581  H1584   1.111   .     S
