data_str_m1_o10_o16_pcu_sym.129
_audit_creation_date              2020-01-03
_audit_creation_method            'Materials Studio'
_symmetry_space_group_name_H-M    'P1'
_symmetry_Int_Tables_number       1
_symmetry_cell_setting            triclinic
loop_
_symmetry_equiv_pos_as_xyz
  x,y,z
_cell_length_a                    32.4552
_cell_length_b                    32.6434
_cell_length_c                    31.1943
_cell_angle_alpha                 96.6590
_cell_angle_beta                  74.2710
_cell_angle_gamma                 98.1933
loop_
_atom_site_label
_atom_site_type_symbol
_atom_site_fract_x
_atom_site_fract_y
_atom_site_fract_z
_atom_site_U_iso_or_equiv
_atom_site_adp_type
_atom_site_occupancy
C1     C     0.05266   0.15953   0.26070   0.00000  Uiso   1.00
C2     C     0.17815   0.17135   0.05834   0.00000  Uiso   1.00
C3     C     0.21365   0.11048   0.05788   0.00000  Uiso   1.00
C4     C     0.28091   0.17361   0.23948   0.00000  Uiso   1.00
C5     C     0.14144   0.19301   0.42029   0.00000  Uiso   1.00
C6     C     0.32732   0.17518   0.23331   0.00000  Uiso   1.00
C7     C     0.00765   0.15895   0.26382   0.00000  Uiso   1.00
C8     C     0.17869   0.32231   0.23828   0.00000  Uiso   1.00
C9     C     0.15003   0.01290   0.26551   0.00000  Uiso   1.00
C10    C     0.15684   0.05616   0.25951   0.00000  Uiso   1.00
C11    C     0.17609   0.27787   0.24051   0.00000  Uiso   1.00
C12    C     0.08933   0.20761   0.49158   0.00000  Uiso   1.00
C13    C     0.18471   0.14903   0.12946   0.00000  Uiso   1.00
C14    C     0.14959   0.18575   0.37091   0.00000  Uiso   1.00
C15    C     0.22507   0.10711   0.01142   0.00000  Uiso   1.00
C16    C     0.19161   0.14333   0.08131   0.00000  Uiso   1.00
C17    C     0.10259   0.20879   0.44508   0.00000  Uiso   1.00
C18    C     0.04278   0.19557   0.41845   0.00000  Uiso   1.00
C19    C     0.07044   0.13656   0.05362   0.00000  Uiso   1.00
C20    C     0.05921   0.26175   0.03457   0.00000  Uiso   1.00
C21    C     0.25295   0.22056   0.39248   0.00000  Uiso   1.00
C22    C     0.11221   0.18746   0.01317   0.00000  Uiso   1.00
C23    C     0.15388   0.17695   0.49045   0.00000  Uiso   1.00
C24    C     0.16851   0.17894   0.44358   0.00000  Uiso   1.00
C25    C     0.17994   0.16086   0.01274   0.00000  Uiso   1.00
C26    C     0.20930   0.13310   0.48808   0.00000  Uiso   1.00
C27    C     0.22366   0.13457   0.44134   0.00000  Uiso   1.00
C28    C     0.20906   0.16442   0.42180   0.00000  Uiso   1.00
H29    H     0.22508   0.08956   0.07547   0.00000  Uiso   1.00
H30    H     0.02570   0.20750   0.39697   0.00000  Uiso   1.00
H31    H     0.09307   0.11320   0.03783   0.00000  Uiso   1.00
H32    H     0.04522   0.13532   0.03525   0.00000  Uiso   1.00
H33    H     0.05391   0.12782   0.08786   0.00000  Uiso   1.00
H34    H     0.07575   0.28351   0.00855   0.00000  Uiso   1.00
H35    H     0.07859   0.26197   0.05908   0.00000  Uiso   1.00
H36    H     0.02813   0.27323   0.05294   0.00000  Uiso   1.00
H37    H     0.27086   0.22197   0.41854   0.00000  Uiso   1.00
H38    H     0.22758   0.24195   0.40288   0.00000  Uiso   1.00
H39    H     0.27625   0.23154   0.36171   0.00000  Uiso   1.00
H40    H     0.31870   0.14682   0.29339   0.00000  Uiso   1.00
H41    H     0.02868   0.22189   0.12536   0.00000  Uiso   1.00
H42    H     0.20553   0.00318   0.21321   0.00000  Uiso   1.00
H43    H     0.24646   0.08445   0.49458   0.00000  Uiso   1.00
H44    H     0.05152   0.02680   0.35376   0.00000  Uiso   1.00
H45    H     0.28348   0.08366   0.33669   0.00000  Uiso   1.00
H46    H     0.20964   0.26984   0.11570   0.00000  Uiso   1.00
H47    H     0.01905   0.18990   0.45094   0.00000  Uiso   1.00
H48    H     0.05426   0.16579   0.40150   0.00000  Uiso   1.00
O49    O     0.16667   0.16667   0.25000   0.00000  Uiso   1.00
O50    O     0.15451   0.12637   0.15459   0.00000  Uiso   1.00
O51    O     0.12940   0.20391   0.34968   0.00000  Uiso   1.00
O52    O     0.20824   0.17759   0.14606   0.00000  Uiso   1.00
O53    O     0.17451   0.15880   0.34968   0.00000  Uiso   1.00
O54    O     0.07375   0.29857   0.28793   0.00000  Uiso   1.00
O55    O     0.11618   0.31158   0.34358   0.00000  Uiso   1.00
O56    O     0.07709   0.03807   0.33101   0.00000  Uiso   1.00
O57    O     0.30457   0.11477   0.41605   0.00000  Uiso   1.00
O58    O     0.24643   0.05760   0.41774   0.00000  Uiso   1.00
O59    O     0.26488   0.10510   0.35280   0.00000  Uiso   1.00
O60    O     0.17930   0.08019   0.28214   0.00000  Uiso   1.00
O61    O     0.16533   0.25079   0.04995   0.00000  Uiso   1.00
O62    O     0.13439   0.22300   0.12312   0.00000  Uiso   1.00
O63    O     0.21693   0.24356   0.09770   0.00000  Uiso   1.00
O64    O     0.07724   0.22563   0.42396   0.00000  Uiso   1.00
O65    O     0.09265   0.17684   0.05625   0.00000  Uiso   1.00
O66    O     0.05057   0.22132   0.01526   0.00000  Uiso   1.00
O67    O     0.23536   0.17963   0.38272   0.00000  Uiso   1.00
O68    O     0.05576   0.23634   0.20310   0.00000  Uiso   1.00
O69    O     0.06153   0.16785   0.16221   0.00000  Uiso   1.00
O70    O     0.00532   0.21172   0.15087   0.00000  Uiso   1.00
O71    O     0.14632   0.26085   0.27014   0.00000  Uiso   1.00
O72    O     0.07412   0.13291   0.23413   0.00000  Uiso   1.00
O73    O     0.26693   0.19272   0.21361   0.00000  Uiso   1.00
O74    O     0.07071   0.18878   0.28213   0.00000  Uiso   1.00
O75    O     0.25491   0.15226   0.27014   0.00000  Uiso   1.00
O76    O     0.13760   0.06944   0.23413   0.00000  Uiso   1.00
O77    O     0.20345   0.25620   0.21361   0.00000  Uiso   1.00
S78    S     0.10333   0.33011   0.30787   0.00000  Uiso   1.00
S79    S     0.26114   0.10194   0.40714   0.00000  Uiso   1.00
S80    S     0.17190   0.22333   0.08244   0.00000  Uiso   1.00
S81    S     0.03078   0.19827   0.18655   0.00000  Uiso   1.00
Zn82   Zn    0.19338   0.13994   0.28734   0.00000  Uiso   1.00
Zn83   Zn    0.13379   0.12458   0.21876   0.00000  Uiso   1.00
Zn84   Zn    0.21056   0.19775   0.20657   0.00000  Uiso   1.00
Zn85   Zn    0.12893   0.20439   0.28734   0.00000  Uiso   1.00
C86    C     0.38600   0.15953   0.26070   0.00000  Uiso   1.00
C87    C     0.51149   0.17135   0.05834   0.00000  Uiso   1.00
C88    C     0.54699   0.11048   0.05788   0.00000  Uiso   1.00
C89    C     0.61424   0.17361   0.23948   0.00000  Uiso   1.00
C90    C     0.47477   0.19301   0.42029   0.00000  Uiso   1.00
C91    C     0.66065   0.17518   0.23331   0.00000  Uiso   1.00
C92    C     0.34098   0.15895   0.26382   0.00000  Uiso   1.00
C93    C     0.51202   0.32231   0.23828   0.00000  Uiso   1.00
C94    C     0.48337   0.01290   0.26551   0.00000  Uiso   1.00
C95    C     0.49017   0.05616   0.25951   0.00000  Uiso   1.00
C96    C     0.50943   0.27787   0.24051   0.00000  Uiso   1.00
C97    C     0.42267   0.20761   0.49158   0.00000  Uiso   1.00
C98    C     0.51804   0.14903   0.12946   0.00000  Uiso   1.00
C99    C     0.48293   0.18575   0.37091   0.00000  Uiso   1.00
C100   C     0.55840   0.10711   0.01142   0.00000  Uiso   1.00
C101   C     0.52494   0.14333   0.08131   0.00000  Uiso   1.00
C102   C     0.43592   0.20879   0.44508   0.00000  Uiso   1.00
C103   C     0.37611   0.19557   0.41845   0.00000  Uiso   1.00
C104   C     0.40378   0.13656   0.05362   0.00000  Uiso   1.00
C105   C     0.39254   0.26175   0.03457   0.00000  Uiso   1.00
C106   C     0.58628   0.22056   0.39248   0.00000  Uiso   1.00
C107   C     0.44554   0.18746   0.01317   0.00000  Uiso   1.00
C108   C     0.48721   0.17695   0.49045   0.00000  Uiso   1.00
C109   C     0.50184   0.17894   0.44358   0.00000  Uiso   1.00
C110   C     0.51328   0.16086   0.01274   0.00000  Uiso   1.00
C111   C     0.54263   0.13310   0.48808   0.00000  Uiso   1.00
C112   C     0.55699   0.13457   0.44134   0.00000  Uiso   1.00
C113   C     0.54239   0.16442   0.42180   0.00000  Uiso   1.00
H114   H     0.55842   0.08956   0.07547   0.00000  Uiso   1.00
H115   H     0.35904   0.20750   0.39697   0.00000  Uiso   1.00
H116   H     0.42640   0.11320   0.03783   0.00000  Uiso   1.00
H117   H     0.37855   0.13532   0.03525   0.00000  Uiso   1.00
H118   H     0.38724   0.12782   0.08786   0.00000  Uiso   1.00
H119   H     0.40908   0.28351   0.00855   0.00000  Uiso   1.00
H120   H     0.41192   0.26197   0.05908   0.00000  Uiso   1.00
H121   H     0.36146   0.27323   0.05294   0.00000  Uiso   1.00
H122   H     0.60420   0.22197   0.41854   0.00000  Uiso   1.00
H123   H     0.56091   0.24195   0.40288   0.00000  Uiso   1.00
H124   H     0.60958   0.23154   0.36171   0.00000  Uiso   1.00
H125   H     0.65203   0.14682   0.29339   0.00000  Uiso   1.00
H126   H     0.36201   0.22189   0.12536   0.00000  Uiso   1.00
H127   H     0.53886   0.00318   0.21321   0.00000  Uiso   1.00
H128   H     0.57979   0.08445   0.49458   0.00000  Uiso   1.00
H129   H     0.38485   0.02680   0.35376   0.00000  Uiso   1.00
H130   H     0.61681   0.08366   0.33669   0.00000  Uiso   1.00
H131   H     0.54297   0.26984   0.11570   0.00000  Uiso   1.00
H132   H     0.35239   0.18990   0.45094   0.00000  Uiso   1.00
H133   H     0.38760   0.16579   0.40150   0.00000  Uiso   1.00
O134   O     0.50000   0.16667   0.25000   0.00000  Uiso   1.00
O135   O     0.48784   0.12637   0.15459   0.00000  Uiso   1.00
O136   O     0.46274   0.20391   0.34968   0.00000  Uiso   1.00
O137   O     0.54157   0.17759   0.14606   0.00000  Uiso   1.00
O138   O     0.50785   0.15880   0.34968   0.00000  Uiso   1.00
O139   O     0.40708   0.29857   0.28793   0.00000  Uiso   1.00
O140   O     0.44952   0.31158   0.34358   0.00000  Uiso   1.00
O141   O     0.41042   0.03807   0.33101   0.00000  Uiso   1.00
O142   O     0.63791   0.11477   0.41605   0.00000  Uiso   1.00
O143   O     0.57976   0.05760   0.41774   0.00000  Uiso   1.00
O144   O     0.59821   0.10510   0.35280   0.00000  Uiso   1.00
O145   O     0.51264   0.08019   0.28214   0.00000  Uiso   1.00
O146   O     0.49866   0.25079   0.04995   0.00000  Uiso   1.00
O147   O     0.46772   0.22300   0.12312   0.00000  Uiso   1.00
O148   O     0.55027   0.24356   0.09770   0.00000  Uiso   1.00
O149   O     0.41058   0.22563   0.42396   0.00000  Uiso   1.00
O150   O     0.42598   0.17684   0.05625   0.00000  Uiso   1.00
O151   O     0.38390   0.22132   0.01526   0.00000  Uiso   1.00
O152   O     0.56869   0.17963   0.38272   0.00000  Uiso   1.00
O153   O     0.38909   0.23634   0.20310   0.00000  Uiso   1.00
O154   O     0.39486   0.16785   0.16221   0.00000  Uiso   1.00
O155   O     0.33866   0.21172   0.15087   0.00000  Uiso   1.00
O156   O     0.47965   0.26085   0.27014   0.00000  Uiso   1.00
O157   O     0.40745   0.13291   0.23413   0.00000  Uiso   1.00
O158   O     0.60026   0.19272   0.21361   0.00000  Uiso   1.00
O159   O     0.40405   0.18878   0.28213   0.00000  Uiso   1.00
O160   O     0.58824   0.15226   0.27014   0.00000  Uiso   1.00
O161   O     0.47093   0.06944   0.23413   0.00000  Uiso   1.00
O162   O     0.53678   0.25620   0.21361   0.00000  Uiso   1.00
S163   S     0.43666   0.33011   0.30787   0.00000  Uiso   1.00
S164   S     0.59448   0.10194   0.40714   0.00000  Uiso   1.00
S165   S     0.50523   0.22333   0.08244   0.00000  Uiso   1.00
S166   S     0.36411   0.19827   0.18655   0.00000  Uiso   1.00
Zn167  Zn    0.52672   0.13994   0.28734   0.00000  Uiso   1.00
Zn168  Zn    0.46713   0.12458   0.21876   0.00000  Uiso   1.00
Zn169  Zn    0.54389   0.19775   0.20657   0.00000  Uiso   1.00
Zn170  Zn    0.46226   0.20439   0.28734   0.00000  Uiso   1.00
C171   C     0.71933   0.15953   0.26070   0.00000  Uiso   1.00
C172   C     0.84482   0.17135   0.05834   0.00000  Uiso   1.00
C173   C     0.88032   0.11048   0.05788   0.00000  Uiso   1.00
C174   C     0.94758   0.17361   0.23948   0.00000  Uiso   1.00
C175   C     0.80811   0.19301   0.42029   0.00000  Uiso   1.00
C176   C     0.99398   0.17518   0.23331   0.00000  Uiso   1.00
C177   C     0.67432   0.15895   0.26382   0.00000  Uiso   1.00
C178   C     0.84535   0.32231   0.23828   0.00000  Uiso   1.00
C179   C     0.81670   0.01290   0.26551   0.00000  Uiso   1.00
C180   C     0.82351   0.05616   0.25951   0.00000  Uiso   1.00
C181   C     0.84276   0.27787   0.24051   0.00000  Uiso   1.00
C182   C     0.75600   0.20761   0.49158   0.00000  Uiso   1.00
C183   C     0.85138   0.14903   0.12946   0.00000  Uiso   1.00
C184   C     0.81626   0.18575   0.37091   0.00000  Uiso   1.00
C185   C     0.89173   0.10711   0.01142   0.00000  Uiso   1.00
C186   C     0.85828   0.14333   0.08131   0.00000  Uiso   1.00
C187   C     0.76926   0.20879   0.44508   0.00000  Uiso   1.00
C188   C     0.70944   0.19557   0.41845   0.00000  Uiso   1.00
C189   C     0.73711   0.13656   0.05362   0.00000  Uiso   1.00
C190   C     0.72587   0.26175   0.03457   0.00000  Uiso   1.00
C191   C     0.91961   0.22056   0.39248   0.00000  Uiso   1.00
C192   C     0.77888   0.18746   0.01317   0.00000  Uiso   1.00
C193   C     0.82055   0.17695   0.49045   0.00000  Uiso   1.00
C194   C     0.83518   0.17894   0.44358   0.00000  Uiso   1.00
C195   C     0.84661   0.16086   0.01274   0.00000  Uiso   1.00
C196   C     0.87597   0.13310   0.48808   0.00000  Uiso   1.00
C197   C     0.89032   0.13457   0.44134   0.00000  Uiso   1.00
C198   C     0.87572   0.16442   0.42180   0.00000  Uiso   1.00
H199   H     0.89175   0.08956   0.07547   0.00000  Uiso   1.00
H200   H     0.69237   0.20750   0.39697   0.00000  Uiso   1.00
H201   H     0.75974   0.11320   0.03783   0.00000  Uiso   1.00
H202   H     0.71189   0.13532   0.03525   0.00000  Uiso   1.00
H203   H     0.72058   0.12782   0.08786   0.00000  Uiso   1.00
H204   H     0.74241   0.28351   0.00855   0.00000  Uiso   1.00
H205   H     0.74525   0.26197   0.05908   0.00000  Uiso   1.00
H206   H     0.69480   0.27323   0.05294   0.00000  Uiso   1.00
H207   H     0.93753   0.22197   0.41854   0.00000  Uiso   1.00
H208   H     0.89424   0.24195   0.40288   0.00000  Uiso   1.00
H209   H     0.94292   0.23154   0.36171   0.00000  Uiso   1.00
H210   H     0.98537   0.14682   0.29339   0.00000  Uiso   1.00
H211   H     0.69534   0.22189   0.12536   0.00000  Uiso   1.00
H212   H     0.87220   0.00318   0.21321   0.00000  Uiso   1.00
H213   H     0.91313   0.08445   0.49458   0.00000  Uiso   1.00
H214   H     0.71819   0.02680   0.35376   0.00000  Uiso   1.00
H215   H     0.95014   0.08366   0.33669   0.00000  Uiso   1.00
H216   H     0.87630   0.26984   0.11570   0.00000  Uiso   1.00
H217   H     0.68572   0.18990   0.45094   0.00000  Uiso   1.00
H218   H     0.72093   0.16579   0.40150   0.00000  Uiso   1.00
O219   O     0.83333   0.16667   0.25000   0.00000  Uiso   1.00
O220   O     0.82118   0.12637   0.15459   0.00000  Uiso   1.00
O221   O     0.79607   0.20391   0.34968   0.00000  Uiso   1.00
O222   O     0.87491   0.17759   0.14606   0.00000  Uiso   1.00
O223   O     0.84118   0.15880   0.34968   0.00000  Uiso   1.00
O224   O     0.74042   0.29857   0.28793   0.00000  Uiso   1.00
O225   O     0.78285   0.31158   0.34358   0.00000  Uiso   1.00
O226   O     0.74375   0.03807   0.33101   0.00000  Uiso   1.00
O227   O     0.97124   0.11477   0.41605   0.00000  Uiso   1.00
O228   O     0.91309   0.05760   0.41774   0.00000  Uiso   1.00
O229   O     0.93154   0.10510   0.35280   0.00000  Uiso   1.00
O230   O     0.84597   0.08019   0.28214   0.00000  Uiso   1.00
O231   O     0.83200   0.25079   0.04995   0.00000  Uiso   1.00
O232   O     0.80106   0.22300   0.12312   0.00000  Uiso   1.00
O233   O     0.88360   0.24356   0.09770   0.00000  Uiso   1.00
O234   O     0.74391   0.22563   0.42396   0.00000  Uiso   1.00
O235   O     0.75931   0.17684   0.05625   0.00000  Uiso   1.00
O236   O     0.71724   0.22132   0.01526   0.00000  Uiso   1.00
O237   O     0.90203   0.17963   0.38272   0.00000  Uiso   1.00
O238   O     0.72242   0.23634   0.20310   0.00000  Uiso   1.00
O239   O     0.72819   0.16785   0.16221   0.00000  Uiso   1.00
O240   O     0.67199   0.21172   0.15087   0.00000  Uiso   1.00
O241   O     0.81298   0.26085   0.27014   0.00000  Uiso   1.00
O242   O     0.74078   0.13291   0.23413   0.00000  Uiso   1.00
O243   O     0.93360   0.19272   0.21361   0.00000  Uiso   1.00
O244   O     0.73738   0.18878   0.28213   0.00000  Uiso   1.00
O245   O     0.92158   0.15226   0.27014   0.00000  Uiso   1.00
O246   O     0.80426   0.06944   0.23413   0.00000  Uiso   1.00
O247   O     0.87012   0.25620   0.21361   0.00000  Uiso   1.00
S248   S     0.76999   0.33011   0.30787   0.00000  Uiso   1.00
S249   S     0.92781   0.10194   0.40714   0.00000  Uiso   1.00
S250   S     0.83856   0.22333   0.08244   0.00000  Uiso   1.00
S251   S     0.69745   0.19827   0.18655   0.00000  Uiso   1.00
Zn252  Zn    0.86005   0.13994   0.28734   0.00000  Uiso   1.00
Zn253  Zn    0.80046   0.12458   0.21876   0.00000  Uiso   1.00
Zn254  Zn    0.87723   0.19775   0.20657   0.00000  Uiso   1.00
Zn255  Zn    0.79560   0.20439   0.28734   0.00000  Uiso   1.00
C256   C     0.05266   0.49287   0.26070   0.00000  Uiso   1.00
C257   C     0.17815   0.50469   0.05834   0.00000  Uiso   1.00
C258   C     0.21365   0.44381   0.05788   0.00000  Uiso   1.00
C259   C     0.28091   0.50694   0.23948   0.00000  Uiso   1.00
C260   C     0.14144   0.52634   0.42029   0.00000  Uiso   1.00
C261   C     0.32732   0.50851   0.23331   0.00000  Uiso   1.00
C262   C     0.00765   0.49228   0.26382   0.00000  Uiso   1.00
C263   C     0.17869   0.65564   0.23828   0.00000  Uiso   1.00
C264   C     0.15003   0.34623   0.26551   0.00000  Uiso   1.00
C265   C     0.15684   0.38949   0.25951   0.00000  Uiso   1.00
C266   C     0.17609   0.61121   0.24051   0.00000  Uiso   1.00
C267   C     0.08933   0.54094   0.49158   0.00000  Uiso   1.00
C268   C     0.18471   0.48236   0.12946   0.00000  Uiso   1.00
C269   C     0.14959   0.51909   0.37091   0.00000  Uiso   1.00
C270   C     0.22507   0.44044   0.01142   0.00000  Uiso   1.00
C271   C     0.19161   0.47666   0.08131   0.00000  Uiso   1.00
C272   C     0.10259   0.54213   0.44508   0.00000  Uiso   1.00
C273   C     0.04278   0.52890   0.41845   0.00000  Uiso   1.00
C274   C     0.07044   0.46989   0.05362   0.00000  Uiso   1.00
C275   C     0.05921   0.59509   0.03457   0.00000  Uiso   1.00
C276   C     0.25295   0.55389   0.39248   0.00000  Uiso   1.00
C277   C     0.11221   0.52079   0.01317   0.00000  Uiso   1.00
C278   C     0.15388   0.51028   0.49045   0.00000  Uiso   1.00
C279   C     0.16851   0.51227   0.44358   0.00000  Uiso   1.00
C280   C     0.17994   0.49420   0.01274   0.00000  Uiso   1.00
C281   C     0.20930   0.46643   0.48808   0.00000  Uiso   1.00
C282   C     0.22366   0.46790   0.44134   0.00000  Uiso   1.00
C283   C     0.20906   0.49775   0.42180   0.00000  Uiso   1.00
H284   H     0.22508   0.42289   0.07547   0.00000  Uiso   1.00
H285   H     0.02570   0.54083   0.39697   0.00000  Uiso   1.00
H286   H     0.09307   0.44654   0.03783   0.00000  Uiso   1.00
H287   H     0.04522   0.46865   0.03525   0.00000  Uiso   1.00
H288   H     0.05391   0.46116   0.08786   0.00000  Uiso   1.00
H289   H     0.07575   0.61684   0.00855   0.00000  Uiso   1.00
H290   H     0.07859   0.59531   0.05908   0.00000  Uiso   1.00
H291   H     0.02813   0.60657   0.05294   0.00000  Uiso   1.00
H292   H     0.27086   0.55530   0.41854   0.00000  Uiso   1.00
H293   H     0.22758   0.57528   0.40288   0.00000  Uiso   1.00
H294   H     0.27625   0.56487   0.36171   0.00000  Uiso   1.00
H295   H     0.31870   0.48015   0.29339   0.00000  Uiso   1.00
H296   H     0.02868   0.55522   0.12536   0.00000  Uiso   1.00
H297   H     0.20553   0.33651   0.21321   0.00000  Uiso   1.00
H298   H     0.24646   0.41778   0.49458   0.00000  Uiso   1.00
H299   H     0.05152   0.36014   0.35376   0.00000  Uiso   1.00
H300   H     0.28348   0.41699   0.33669   0.00000  Uiso   1.00
H301   H     0.20964   0.60318   0.11570   0.00000  Uiso   1.00
H302   H     0.01905   0.52323   0.45094   0.00000  Uiso   1.00
H303   H     0.05426   0.49912   0.40150   0.00000  Uiso   1.00
O304   O     0.16667   0.50000   0.25000   0.00000  Uiso   1.00
O305   O     0.15451   0.45970   0.15459   0.00000  Uiso   1.00
O306   O     0.12940   0.53724   0.34968   0.00000  Uiso   1.00
O307   O     0.20824   0.51092   0.14606   0.00000  Uiso   1.00
O308   O     0.17451   0.49213   0.34968   0.00000  Uiso   1.00
O309   O     0.07375   0.63191   0.28793   0.00000  Uiso   1.00
O310   O     0.11618   0.64491   0.34358   0.00000  Uiso   1.00
O311   O     0.07709   0.37140   0.33101   0.00000  Uiso   1.00
O312   O     0.30457   0.44811   0.41605   0.00000  Uiso   1.00
O313   O     0.24643   0.39093   0.41774   0.00000  Uiso   1.00
O314   O     0.26488   0.43843   0.35280   0.00000  Uiso   1.00
O315   O     0.17930   0.41352   0.28214   0.00000  Uiso   1.00
O316   O     0.16533   0.58413   0.04995   0.00000  Uiso   1.00
O317   O     0.13439   0.55633   0.12312   0.00000  Uiso   1.00
O318   O     0.21693   0.57689   0.09770   0.00000  Uiso   1.00
O319   O     0.07724   0.55896   0.42396   0.00000  Uiso   1.00
O320   O     0.09265   0.51017   0.05625   0.00000  Uiso   1.00
O321   O     0.05057   0.55466   0.01526   0.00000  Uiso   1.00
O322   O     0.23536   0.51296   0.38272   0.00000  Uiso   1.00
O323   O     0.05576   0.56967   0.20310   0.00000  Uiso   1.00
O324   O     0.06153   0.50118   0.16221   0.00000  Uiso   1.00
O325   O     0.00532   0.54506   0.15087   0.00000  Uiso   1.00
O326   O     0.14632   0.59418   0.27014   0.00000  Uiso   1.00
O327   O     0.07412   0.46625   0.23413   0.00000  Uiso   1.00
O328   O     0.26693   0.52605   0.21361   0.00000  Uiso   1.00
O329   O     0.07071   0.52211   0.28213   0.00000  Uiso   1.00
O330   O     0.25491   0.48559   0.27014   0.00000  Uiso   1.00
O331   O     0.13760   0.40277   0.23413   0.00000  Uiso   1.00
O332   O     0.20345   0.58953   0.21361   0.00000  Uiso   1.00
S333   S     0.10333   0.66344   0.30787   0.00000  Uiso   1.00
S334   S     0.26114   0.43527   0.40714   0.00000  Uiso   1.00
S335   S     0.17190   0.55666   0.08244   0.00000  Uiso   1.00
S336   S     0.03078   0.53161   0.18655   0.00000  Uiso   1.00
Zn337  Zn    0.19338   0.47327   0.28734   0.00000  Uiso   1.00
Zn338  Zn    0.13379   0.45791   0.21876   0.00000  Uiso   1.00
Zn339  Zn    0.21056   0.53109   0.20657   0.00000  Uiso   1.00
Zn340  Zn    0.12893   0.53773   0.28734   0.00000  Uiso   1.00
C341   C     0.38600   0.49287   0.26070   0.00000  Uiso   1.00
C342   C     0.51149   0.50469   0.05834   0.00000  Uiso   1.00
C343   C     0.54699   0.44381   0.05788   0.00000  Uiso   1.00
C344   C     0.61424   0.50694   0.23948   0.00000  Uiso   1.00
C345   C     0.47477   0.52634   0.42029   0.00000  Uiso   1.00
C346   C     0.66065   0.50851   0.23331   0.00000  Uiso   1.00
C347   C     0.34098   0.49228   0.26382   0.00000  Uiso   1.00
C348   C     0.51202   0.65564   0.23828   0.00000  Uiso   1.00
C349   C     0.48337   0.34623   0.26551   0.00000  Uiso   1.00
C350   C     0.49017   0.38949   0.25951   0.00000  Uiso   1.00
C351   C     0.50943   0.61121   0.24051   0.00000  Uiso   1.00
C352   C     0.42267   0.54094   0.49158   0.00000  Uiso   1.00
C353   C     0.51804   0.48236   0.12946   0.00000  Uiso   1.00
C354   C     0.48293   0.51909   0.37091   0.00000  Uiso   1.00
C355   C     0.55840   0.44044   0.01142   0.00000  Uiso   1.00
C356   C     0.52494   0.47666   0.08131   0.00000  Uiso   1.00
C357   C     0.43592   0.54213   0.44508   0.00000  Uiso   1.00
C358   C     0.37611   0.52890   0.41845   0.00000  Uiso   1.00
C359   C     0.40378   0.46989   0.05362   0.00000  Uiso   1.00
C360   C     0.39254   0.59509   0.03457   0.00000  Uiso   1.00
C361   C     0.58628   0.55389   0.39248   0.00000  Uiso   1.00
C362   C     0.44554   0.52079   0.01317   0.00000  Uiso   1.00
C363   C     0.48721   0.51028   0.49045   0.00000  Uiso   1.00
C364   C     0.50184   0.51227   0.44358   0.00000  Uiso   1.00
C365   C     0.51328   0.49420   0.01274   0.00000  Uiso   1.00
C366   C     0.54263   0.46643   0.48808   0.00000  Uiso   1.00
C367   C     0.55699   0.46790   0.44134   0.00000  Uiso   1.00
C368   C     0.54239   0.49775   0.42180   0.00000  Uiso   1.00
H369   H     0.55842   0.42289   0.07547   0.00000  Uiso   1.00
H370   H     0.35904   0.54083   0.39697   0.00000  Uiso   1.00
H371   H     0.42640   0.44654   0.03783   0.00000  Uiso   1.00
H372   H     0.37855   0.46865   0.03525   0.00000  Uiso   1.00
H373   H     0.38724   0.46116   0.08786   0.00000  Uiso   1.00
H374   H     0.40908   0.61684   0.00855   0.00000  Uiso   1.00
H375   H     0.41192   0.59531   0.05908   0.00000  Uiso   1.00
H376   H     0.36146   0.60657   0.05294   0.00000  Uiso   1.00
H377   H     0.60420   0.55530   0.41854   0.00000  Uiso   1.00
H378   H     0.56091   0.57528   0.40288   0.00000  Uiso   1.00
H379   H     0.60958   0.56487   0.36171   0.00000  Uiso   1.00
H380   H     0.65203   0.48015   0.29339   0.00000  Uiso   1.00
H381   H     0.36201   0.55522   0.12536   0.00000  Uiso   1.00
H382   H     0.53886   0.33651   0.21321   0.00000  Uiso   1.00
H383   H     0.57979   0.41778   0.49458   0.00000  Uiso   1.00
H384   H     0.38485   0.36014   0.35376   0.00000  Uiso   1.00
H385   H     0.61681   0.41699   0.33669   0.00000  Uiso   1.00
H386   H     0.54297   0.60318   0.11570   0.00000  Uiso   1.00
H387   H     0.35239   0.52323   0.45094   0.00000  Uiso   1.00
H388   H     0.38760   0.49912   0.40150   0.00000  Uiso   1.00
O389   O     0.50000   0.50000   0.25000   0.00000  Uiso   1.00
O390   O     0.48784   0.45970   0.15459   0.00000  Uiso   1.00
O391   O     0.46274   0.53724   0.34968   0.00000  Uiso   1.00
O392   O     0.54157   0.51092   0.14606   0.00000  Uiso   1.00
O393   O     0.50785   0.49213   0.34968   0.00000  Uiso   1.00
O394   O     0.40708   0.63191   0.28793   0.00000  Uiso   1.00
O395   O     0.44952   0.64491   0.34358   0.00000  Uiso   1.00
O396   O     0.41042   0.37140   0.33101   0.00000  Uiso   1.00
O397   O     0.63791   0.44811   0.41605   0.00000  Uiso   1.00
O398   O     0.57976   0.39093   0.41774   0.00000  Uiso   1.00
O399   O     0.59821   0.43843   0.35280   0.00000  Uiso   1.00
O400   O     0.51264   0.41352   0.28214   0.00000  Uiso   1.00
O401   O     0.49866   0.58413   0.04995   0.00000  Uiso   1.00
O402   O     0.46772   0.55633   0.12312   0.00000  Uiso   1.00
O403   O     0.55027   0.57689   0.09770   0.00000  Uiso   1.00
O404   O     0.41058   0.55896   0.42396   0.00000  Uiso   1.00
O405   O     0.42598   0.51017   0.05625   0.00000  Uiso   1.00
O406   O     0.38390   0.55466   0.01526   0.00000  Uiso   1.00
O407   O     0.56869   0.51296   0.38272   0.00000  Uiso   1.00
O408   O     0.38909   0.56967   0.20310   0.00000  Uiso   1.00
O409   O     0.39486   0.50118   0.16221   0.00000  Uiso   1.00
O410   O     0.33866   0.54506   0.15087   0.00000  Uiso   1.00
O411   O     0.47965   0.59418   0.27014   0.00000  Uiso   1.00
O412   O     0.40745   0.46625   0.23413   0.00000  Uiso   1.00
O413   O     0.60026   0.52605   0.21361   0.00000  Uiso   1.00
O414   O     0.40405   0.52211   0.28213   0.00000  Uiso   1.00
O415   O     0.58824   0.48559   0.27014   0.00000  Uiso   1.00
O416   O     0.47093   0.40277   0.23413   0.00000  Uiso   1.00
O417   O     0.53678   0.58953   0.21361   0.00000  Uiso   1.00
S418   S     0.43666   0.66344   0.30787   0.00000  Uiso   1.00
S419   S     0.59448   0.43527   0.40714   0.00000  Uiso   1.00
S420   S     0.50523   0.55666   0.08244   0.00000  Uiso   1.00
S421   S     0.36411   0.53161   0.18655   0.00000  Uiso   1.00
Zn422  Zn    0.52672   0.47327   0.28734   0.00000  Uiso   1.00
Zn423  Zn    0.46713   0.45791   0.21876   0.00000  Uiso   1.00
Zn424  Zn    0.54389   0.53109   0.20657   0.00000  Uiso   1.00
Zn425  Zn    0.46226   0.53773   0.28734   0.00000  Uiso   1.00
C426   C     0.71933   0.49287   0.26070   0.00000  Uiso   1.00
C427   C     0.84482   0.50469   0.05834   0.00000  Uiso   1.00
C428   C     0.88032   0.44381   0.05788   0.00000  Uiso   1.00
C429   C     0.94758   0.50694   0.23948   0.00000  Uiso   1.00
C430   C     0.80811   0.52634   0.42029   0.00000  Uiso   1.00
C431   C     0.99398   0.50851   0.23331   0.00000  Uiso   1.00
C432   C     0.67432   0.49228   0.26382   0.00000  Uiso   1.00
C433   C     0.84535   0.65564   0.23828   0.00000  Uiso   1.00
C434   C     0.81670   0.34623   0.26551   0.00000  Uiso   1.00
C435   C     0.82351   0.38949   0.25951   0.00000  Uiso   1.00
C436   C     0.84276   0.61121   0.24051   0.00000  Uiso   1.00
C437   C     0.75600   0.54094   0.49158   0.00000  Uiso   1.00
C438   C     0.85138   0.48236   0.12946   0.00000  Uiso   1.00
C439   C     0.81626   0.51909   0.37091   0.00000  Uiso   1.00
C440   C     0.89173   0.44044   0.01142   0.00000  Uiso   1.00
C441   C     0.85828   0.47666   0.08131   0.00000  Uiso   1.00
C442   C     0.76926   0.54213   0.44508   0.00000  Uiso   1.00
C443   C     0.70944   0.52890   0.41845   0.00000  Uiso   1.00
C444   C     0.73711   0.46989   0.05362   0.00000  Uiso   1.00
C445   C     0.72587   0.59509   0.03457   0.00000  Uiso   1.00
C446   C     0.91961   0.55389   0.39248   0.00000  Uiso   1.00
C447   C     0.77888   0.52079   0.01317   0.00000  Uiso   1.00
C448   C     0.82055   0.51028   0.49045   0.00000  Uiso   1.00
C449   C     0.83518   0.51227   0.44358   0.00000  Uiso   1.00
C450   C     0.84661   0.49420   0.01274   0.00000  Uiso   1.00
C451   C     0.87597   0.46643   0.48808   0.00000  Uiso   1.00
C452   C     0.89032   0.46790   0.44134   0.00000  Uiso   1.00
C453   C     0.87572   0.49775   0.42180   0.00000  Uiso   1.00
H454   H     0.89175   0.42289   0.07547   0.00000  Uiso   1.00
H455   H     0.69237   0.54083   0.39697   0.00000  Uiso   1.00
H456   H     0.75974   0.44654   0.03783   0.00000  Uiso   1.00
H457   H     0.71189   0.46865   0.03525   0.00000  Uiso   1.00
H458   H     0.72058   0.46116   0.08786   0.00000  Uiso   1.00
H459   H     0.74241   0.61684   0.00855   0.00000  Uiso   1.00
H460   H     0.74525   0.59531   0.05908   0.00000  Uiso   1.00
H461   H     0.69480   0.60657   0.05294   0.00000  Uiso   1.00
H462   H     0.93753   0.55530   0.41854   0.00000  Uiso   1.00
H463   H     0.89424   0.57528   0.40288   0.00000  Uiso   1.00
H464   H     0.94292   0.56487   0.36171   0.00000  Uiso   1.00
H465   H     0.98537   0.48015   0.29339   0.00000  Uiso   1.00
H466   H     0.69534   0.55522   0.12536   0.00000  Uiso   1.00
H467   H     0.87220   0.33651   0.21321   0.00000  Uiso   1.00
H468   H     0.91313   0.41778   0.49458   0.00000  Uiso   1.00
H469   H     0.71819   0.36014   0.35376   0.00000  Uiso   1.00
H470   H     0.95014   0.41699   0.33669   0.00000  Uiso   1.00
H471   H     0.87630   0.60318   0.11570   0.00000  Uiso   1.00
H472   H     0.68572   0.52323   0.45094   0.00000  Uiso   1.00
H473   H     0.72093   0.49912   0.40150   0.00000  Uiso   1.00
O474   O     0.83333   0.50000   0.25000   0.00000  Uiso   1.00
O475   O     0.82118   0.45970   0.15459   0.00000  Uiso   1.00
O476   O     0.79607   0.53724   0.34968   0.00000  Uiso   1.00
O477   O     0.87491   0.51092   0.14606   0.00000  Uiso   1.00
O478   O     0.84118   0.49213   0.34968   0.00000  Uiso   1.00
O479   O     0.74042   0.63191   0.28793   0.00000  Uiso   1.00
O480   O     0.78285   0.64491   0.34358   0.00000  Uiso   1.00
O481   O     0.74375   0.37140   0.33101   0.00000  Uiso   1.00
O482   O     0.97124   0.44811   0.41605   0.00000  Uiso   1.00
O483   O     0.91309   0.39093   0.41774   0.00000  Uiso   1.00
O484   O     0.93154   0.43843   0.35280   0.00000  Uiso   1.00
O485   O     0.84597   0.41352   0.28214   0.00000  Uiso   1.00
O486   O     0.83200   0.58413   0.04995   0.00000  Uiso   1.00
O487   O     0.80106   0.55633   0.12312   0.00000  Uiso   1.00
O488   O     0.88360   0.57689   0.09770   0.00000  Uiso   1.00
O489   O     0.74391   0.55896   0.42396   0.00000  Uiso   1.00
O490   O     0.75931   0.51017   0.05625   0.00000  Uiso   1.00
O491   O     0.71724   0.55466   0.01526   0.00000  Uiso   1.00
O492   O     0.90203   0.51296   0.38272   0.00000  Uiso   1.00
O493   O     0.72242   0.56967   0.20310   0.00000  Uiso   1.00
O494   O     0.72819   0.50118   0.16221   0.00000  Uiso   1.00
O495   O     0.67199   0.54506   0.15087   0.00000  Uiso   1.00
O496   O     0.81298   0.59418   0.27014   0.00000  Uiso   1.00
O497   O     0.74078   0.46625   0.23413   0.00000  Uiso   1.00
O498   O     0.93360   0.52605   0.21361   0.00000  Uiso   1.00
O499   O     0.73738   0.52211   0.28213   0.00000  Uiso   1.00
O500   O     0.92158   0.48559   0.27014   0.00000  Uiso   1.00
O501   O     0.80426   0.40277   0.23413   0.00000  Uiso   1.00
O502   O     0.87012   0.58953   0.21361   0.00000  Uiso   1.00
S503   S     0.76999   0.66344   0.30787   0.00000  Uiso   1.00
S504   S     0.92781   0.43527   0.40714   0.00000  Uiso   1.00
S505   S     0.83856   0.55666   0.08244   0.00000  Uiso   1.00
S506   S     0.69745   0.53161   0.18655   0.00000  Uiso   1.00
Zn507  Zn    0.86005   0.47327   0.28734   0.00000  Uiso   1.00
Zn508  Zn    0.80046   0.45791   0.21876   0.00000  Uiso   1.00
Zn509  Zn    0.87723   0.53109   0.20657   0.00000  Uiso   1.00
Zn510  Zn    0.79560   0.53773   0.28734   0.00000  Uiso   1.00
C511   C     0.05266   0.82620   0.26070   0.00000  Uiso   1.00
C512   C     0.17815   0.83802   0.05834   0.00000  Uiso   1.00
C513   C     0.21365   0.77715   0.05788   0.00000  Uiso   1.00
C514   C     0.28091   0.84028   0.23948   0.00000  Uiso   1.00
C515   C     0.14144   0.85968   0.42029   0.00000  Uiso   1.00
C516   C     0.32732   0.84185   0.23331   0.00000  Uiso   1.00
C517   C     0.00765   0.82561   0.26382   0.00000  Uiso   1.00
C518   C     0.17869   0.98898   0.23828   0.00000  Uiso   1.00
C519   C     0.15003   0.67957   0.26551   0.00000  Uiso   1.00
C520   C     0.15684   0.72282   0.25951   0.00000  Uiso   1.00
C521   C     0.17609   0.94454   0.24051   0.00000  Uiso   1.00
C522   C     0.08933   0.87427   0.49158   0.00000  Uiso   1.00
C523   C     0.18471   0.81570   0.12946   0.00000  Uiso   1.00
C524   C     0.14959   0.85242   0.37091   0.00000  Uiso   1.00
C525   C     0.22507   0.77377   0.01142   0.00000  Uiso   1.00
C526   C     0.19161   0.81000   0.08131   0.00000  Uiso   1.00
C527   C     0.10259   0.87546   0.44508   0.00000  Uiso   1.00
C528   C     0.04278   0.86224   0.41845   0.00000  Uiso   1.00
C529   C     0.07044   0.80322   0.05362   0.00000  Uiso   1.00
C530   C     0.05921   0.92842   0.03457   0.00000  Uiso   1.00
C531   C     0.25295   0.88723   0.39248   0.00000  Uiso   1.00
C532   C     0.11221   0.85412   0.01317   0.00000  Uiso   1.00
C533   C     0.15388   0.84361   0.49045   0.00000  Uiso   1.00
C534   C     0.16851   0.84561   0.44358   0.00000  Uiso   1.00
C535   C     0.17994   0.82753   0.01274   0.00000  Uiso   1.00
C536   C     0.20930   0.79977   0.48808   0.00000  Uiso   1.00
C537   C     0.22366   0.80124   0.44134   0.00000  Uiso   1.00
C538   C     0.20906   0.83109   0.42180   0.00000  Uiso   1.00
H539   H     0.22508   0.75623   0.07547   0.00000  Uiso   1.00
H540   H     0.02570   0.87416   0.39697   0.00000  Uiso   1.00
H541   H     0.09307   0.77987   0.03783   0.00000  Uiso   1.00
H542   H     0.04522   0.80198   0.03525   0.00000  Uiso   1.00
H543   H     0.05391   0.79449   0.08786   0.00000  Uiso   1.00
H544   H     0.07575   0.95018   0.00855   0.00000  Uiso   1.00
H545   H     0.07859   0.92864   0.05908   0.00000  Uiso   1.00
H546   H     0.02813   0.93990   0.05294   0.00000  Uiso   1.00
H547   H     0.27086   0.88864   0.41854   0.00000  Uiso   1.00
H548   H     0.22758   0.90861   0.40288   0.00000  Uiso   1.00
H549   H     0.27625   0.89820   0.36171   0.00000  Uiso   1.00
H550   H     0.31870   0.81349   0.29339   0.00000  Uiso   1.00
H551   H     0.02868   0.88856   0.12536   0.00000  Uiso   1.00
H552   H     0.20553   0.66984   0.21321   0.00000  Uiso   1.00
H553   H     0.24646   0.75112   0.49458   0.00000  Uiso   1.00
H554   H     0.05152   0.69347   0.35376   0.00000  Uiso   1.00
H555   H     0.28348   0.75032   0.33669   0.00000  Uiso   1.00
H556   H     0.20964   0.93651   0.11570   0.00000  Uiso   1.00
H557   H     0.01905   0.85656   0.45094   0.00000  Uiso   1.00
H558   H     0.05426   0.83246   0.40150   0.00000  Uiso   1.00
O559   O     0.16667   0.83333   0.25000   0.00000  Uiso   1.00
O560   O     0.15451   0.79304   0.15459   0.00000  Uiso   1.00
O561   O     0.12940   0.87058   0.34968   0.00000  Uiso   1.00
O562   O     0.20824   0.84425   0.14606   0.00000  Uiso   1.00
O563   O     0.17451   0.82546   0.34968   0.00000  Uiso   1.00
O564   O     0.07375   0.96524   0.28793   0.00000  Uiso   1.00
O565   O     0.11618   0.97825   0.34358   0.00000  Uiso   1.00
O566   O     0.07709   0.70473   0.33101   0.00000  Uiso   1.00
O567   O     0.30457   0.78144   0.41605   0.00000  Uiso   1.00
O568   O     0.24643   0.72427   0.41774   0.00000  Uiso   1.00
O569   O     0.26488   0.77177   0.35280   0.00000  Uiso   1.00
O570   O     0.17930   0.74686   0.28214   0.00000  Uiso   1.00
O571   O     0.16533   0.91746   0.04995   0.00000  Uiso   1.00
O572   O     0.13439   0.88966   0.12312   0.00000  Uiso   1.00
O573   O     0.21693   0.91023   0.09770   0.00000  Uiso   1.00
O574   O     0.07724   0.89230   0.42396   0.00000  Uiso   1.00
O575   O     0.09265   0.84350   0.05625   0.00000  Uiso   1.00
O576   O     0.05057   0.88799   0.01526   0.00000  Uiso   1.00
O577   O     0.23536   0.84629   0.38272   0.00000  Uiso   1.00
O578   O     0.05576   0.90301   0.20310   0.00000  Uiso   1.00
O579   O     0.06153   0.83452   0.16221   0.00000  Uiso   1.00
O580   O     0.00532   0.87839   0.15087   0.00000  Uiso   1.00
O581   O     0.14632   0.92751   0.27014   0.00000  Uiso   1.00
O582   O     0.07412   0.79958   0.23413   0.00000  Uiso   1.00
O583   O     0.26693   0.85939   0.21361   0.00000  Uiso   1.00
O584   O     0.07071   0.85544   0.28213   0.00000  Uiso   1.00
O585   O     0.25491   0.81892   0.27014   0.00000  Uiso   1.00
O586   O     0.13760   0.73610   0.23413   0.00000  Uiso   1.00
O587   O     0.20345   0.92286   0.21361   0.00000  Uiso   1.00
S588   S     0.10333   0.99677   0.30787   0.00000  Uiso   1.00
S589   S     0.26114   0.76861   0.40714   0.00000  Uiso   1.00
S590   S     0.17190   0.89000   0.08244   0.00000  Uiso   1.00
S591   S     0.03078   0.86494   0.18655   0.00000  Uiso   1.00
Zn592  Zn    0.19338   0.80661   0.28734   0.00000  Uiso   1.00
Zn593  Zn    0.13379   0.79124   0.21876   0.00000  Uiso   1.00
Zn594  Zn    0.21056   0.86442   0.20657   0.00000  Uiso   1.00
Zn595  Zn    0.12893   0.87106   0.28734   0.00000  Uiso   1.00
C596   C     0.38600   0.82620   0.26070   0.00000  Uiso   1.00
C597   C     0.51149   0.83802   0.05834   0.00000  Uiso   1.00
C598   C     0.54699   0.77715   0.05788   0.00000  Uiso   1.00
C599   C     0.61424   0.84028   0.23948   0.00000  Uiso   1.00
C600   C     0.47477   0.85968   0.42029   0.00000  Uiso   1.00
C601   C     0.66065   0.84185   0.23331   0.00000  Uiso   1.00
C602   C     0.34098   0.82561   0.26382   0.00000  Uiso   1.00
C603   C     0.51202   0.98898   0.23828   0.00000  Uiso   1.00
C604   C     0.48337   0.67957   0.26551   0.00000  Uiso   1.00
C605   C     0.49017   0.72282   0.25951   0.00000  Uiso   1.00
C606   C     0.50943   0.94454   0.24051   0.00000  Uiso   1.00
C607   C     0.42267   0.87427   0.49158   0.00000  Uiso   1.00
C608   C     0.51804   0.81570   0.12946   0.00000  Uiso   1.00
C609   C     0.48293   0.85242   0.37091   0.00000  Uiso   1.00
C610   C     0.55840   0.77377   0.01142   0.00000  Uiso   1.00
C611   C     0.52494   0.81000   0.08131   0.00000  Uiso   1.00
C612   C     0.43592   0.87546   0.44508   0.00000  Uiso   1.00
C613   C     0.37611   0.86224   0.41845   0.00000  Uiso   1.00
C614   C     0.40378   0.80322   0.05362   0.00000  Uiso   1.00
C615   C     0.39254   0.92842   0.03457   0.00000  Uiso   1.00
C616   C     0.58628   0.88723   0.39248   0.00000  Uiso   1.00
C617   C     0.44554   0.85412   0.01317   0.00000  Uiso   1.00
C618   C     0.48721   0.84361   0.49045   0.00000  Uiso   1.00
C619   C     0.50184   0.84561   0.44358   0.00000  Uiso   1.00
C620   C     0.51328   0.82753   0.01274   0.00000  Uiso   1.00
C621   C     0.54263   0.79977   0.48808   0.00000  Uiso   1.00
C622   C     0.55699   0.80124   0.44134   0.00000  Uiso   1.00
C623   C     0.54239   0.83109   0.42180   0.00000  Uiso   1.00
H624   H     0.55842   0.75623   0.07547   0.00000  Uiso   1.00
H625   H     0.35904   0.87416   0.39697   0.00000  Uiso   1.00
H626   H     0.42640   0.77987   0.03783   0.00000  Uiso   1.00
H627   H     0.37855   0.80198   0.03525   0.00000  Uiso   1.00
H628   H     0.38724   0.79449   0.08786   0.00000  Uiso   1.00
H629   H     0.40908   0.95018   0.00855   0.00000  Uiso   1.00
H630   H     0.41192   0.92864   0.05908   0.00000  Uiso   1.00
H631   H     0.36146   0.93990   0.05294   0.00000  Uiso   1.00
H632   H     0.60420   0.88864   0.41854   0.00000  Uiso   1.00
H633   H     0.56091   0.90861   0.40288   0.00000  Uiso   1.00
H634   H     0.60958   0.89820   0.36171   0.00000  Uiso   1.00
H635   H     0.65203   0.81349   0.29339   0.00000  Uiso   1.00
H636   H     0.36201   0.88856   0.12536   0.00000  Uiso   1.00
H637   H     0.53886   0.66984   0.21321   0.00000  Uiso   1.00
H638   H     0.57979   0.75112   0.49458   0.00000  Uiso   1.00
H639   H     0.38485   0.69347   0.35376   0.00000  Uiso   1.00
H640   H     0.61681   0.75032   0.33669   0.00000  Uiso   1.00
H641   H     0.54297   0.93651   0.11570   0.00000  Uiso   1.00
H642   H     0.35239   0.85656   0.45094   0.00000  Uiso   1.00
H643   H     0.38760   0.83246   0.40150   0.00000  Uiso   1.00
O644   O     0.50000   0.83333   0.25000   0.00000  Uiso   1.00
O645   O     0.48784   0.79304   0.15459   0.00000  Uiso   1.00
O646   O     0.46274   0.87058   0.34968   0.00000  Uiso   1.00
O647   O     0.54157   0.84425   0.14606   0.00000  Uiso   1.00
O648   O     0.50785   0.82546   0.34968   0.00000  Uiso   1.00
O649   O     0.40708   0.96524   0.28793   0.00000  Uiso   1.00
O650   O     0.44952   0.97825   0.34358   0.00000  Uiso   1.00
O651   O     0.41042   0.70473   0.33101   0.00000  Uiso   1.00
O652   O     0.63791   0.78144   0.41605   0.00000  Uiso   1.00
O653   O     0.57976   0.72427   0.41774   0.00000  Uiso   1.00
O654   O     0.59821   0.77177   0.35280   0.00000  Uiso   1.00
O655   O     0.51264   0.74686   0.28214   0.00000  Uiso   1.00
O656   O     0.49866   0.91746   0.04995   0.00000  Uiso   1.00
O657   O     0.46772   0.88966   0.12312   0.00000  Uiso   1.00
O658   O     0.55027   0.91023   0.09770   0.00000  Uiso   1.00
O659   O     0.41058   0.89230   0.42396   0.00000  Uiso   1.00
O660   O     0.42598   0.84350   0.05625   0.00000  Uiso   1.00
O661   O     0.38390   0.88799   0.01526   0.00000  Uiso   1.00
O662   O     0.56869   0.84629   0.38272   0.00000  Uiso   1.00
O663   O     0.38909   0.90301   0.20310   0.00000  Uiso   1.00
O664   O     0.39486   0.83452   0.16221   0.00000  Uiso   1.00
O665   O     0.33866   0.87839   0.15087   0.00000  Uiso   1.00
O666   O     0.47965   0.92751   0.27014   0.00000  Uiso   1.00
O667   O     0.40745   0.79958   0.23413   0.00000  Uiso   1.00
O668   O     0.60026   0.85939   0.21361   0.00000  Uiso   1.00
O669   O     0.40405   0.85544   0.28213   0.00000  Uiso   1.00
O670   O     0.58824   0.81892   0.27014   0.00000  Uiso   1.00
O671   O     0.47093   0.73610   0.23413   0.00000  Uiso   1.00
O672   O     0.53678   0.92286   0.21361   0.00000  Uiso   1.00
S673   S     0.43666   0.99677   0.30787   0.00000  Uiso   1.00
S674   S     0.59448   0.76861   0.40714   0.00000  Uiso   1.00
S675   S     0.50523   0.89000   0.08244   0.00000  Uiso   1.00
S676   S     0.36411   0.86494   0.18655   0.00000  Uiso   1.00
Zn677  Zn    0.52672   0.80661   0.28734   0.00000  Uiso   1.00
Zn678  Zn    0.46713   0.79124   0.21876   0.00000  Uiso   1.00
Zn679  Zn    0.54389   0.86442   0.20657   0.00000  Uiso   1.00
Zn680  Zn    0.46226   0.87106   0.28734   0.00000  Uiso   1.00
C681   C     0.71933   0.82620   0.26070   0.00000  Uiso   1.00
C682   C     0.84482   0.83802   0.05834   0.00000  Uiso   1.00
C683   C     0.88032   0.77715   0.05788   0.00000  Uiso   1.00
C684   C     0.94758   0.84028   0.23948   0.00000  Uiso   1.00
C685   C     0.80811   0.85968   0.42029   0.00000  Uiso   1.00
C686   C     0.99398   0.84185   0.23331   0.00000  Uiso   1.00
C687   C     0.67432   0.82561   0.26382   0.00000  Uiso   1.00
C688   C     0.84535   0.98898   0.23828   0.00000  Uiso   1.00
C689   C     0.81670   0.67957   0.26551   0.00000  Uiso   1.00
C690   C     0.82351   0.72282   0.25951   0.00000  Uiso   1.00
C691   C     0.84276   0.94454   0.24051   0.00000  Uiso   1.00
C692   C     0.75600   0.87427   0.49158   0.00000  Uiso   1.00
C693   C     0.85138   0.81570   0.12946   0.00000  Uiso   1.00
C694   C     0.81626   0.85242   0.37091   0.00000  Uiso   1.00
C695   C     0.89173   0.77377   0.01142   0.00000  Uiso   1.00
C696   C     0.85828   0.81000   0.08131   0.00000  Uiso   1.00
C697   C     0.76926   0.87546   0.44508   0.00000  Uiso   1.00
C698   C     0.70944   0.86224   0.41845   0.00000  Uiso   1.00
C699   C     0.73711   0.80322   0.05362   0.00000  Uiso   1.00
C700   C     0.72587   0.92842   0.03457   0.00000  Uiso   1.00
C701   C     0.91961   0.88723   0.39248   0.00000  Uiso   1.00
C702   C     0.77888   0.85412   0.01317   0.00000  Uiso   1.00
C703   C     0.82055   0.84361   0.49045   0.00000  Uiso   1.00
C704   C     0.83518   0.84561   0.44358   0.00000  Uiso   1.00
C705   C     0.84661   0.82753   0.01274   0.00000  Uiso   1.00
C706   C     0.87597   0.79977   0.48808   0.00000  Uiso   1.00
C707   C     0.89032   0.80124   0.44134   0.00000  Uiso   1.00
C708   C     0.87572   0.83109   0.42180   0.00000  Uiso   1.00
H709   H     0.89175   0.75623   0.07547   0.00000  Uiso   1.00
H710   H     0.69237   0.87416   0.39697   0.00000  Uiso   1.00
H711   H     0.75974   0.77987   0.03783   0.00000  Uiso   1.00
H712   H     0.71189   0.80198   0.03525   0.00000  Uiso   1.00
H713   H     0.72058   0.79449   0.08786   0.00000  Uiso   1.00
H714   H     0.74241   0.95018   0.00855   0.00000  Uiso   1.00
H715   H     0.74525   0.92864   0.05908   0.00000  Uiso   1.00
H716   H     0.69480   0.93990   0.05294   0.00000  Uiso   1.00
H717   H     0.93753   0.88864   0.41854   0.00000  Uiso   1.00
H718   H     0.89424   0.90861   0.40288   0.00000  Uiso   1.00
H719   H     0.94292   0.89820   0.36171   0.00000  Uiso   1.00
H720   H     0.98537   0.81349   0.29339   0.00000  Uiso   1.00
H721   H     0.69534   0.88856   0.12536   0.00000  Uiso   1.00
H722   H     0.87220   0.66984   0.21321   0.00000  Uiso   1.00
H723   H     0.91313   0.75112   0.49458   0.00000  Uiso   1.00
H724   H     0.71819   0.69347   0.35376   0.00000  Uiso   1.00
H725   H     0.95014   0.75032   0.33669   0.00000  Uiso   1.00
H726   H     0.87630   0.93651   0.11570   0.00000  Uiso   1.00
H727   H     0.68572   0.85656   0.45094   0.00000  Uiso   1.00
H728   H     0.72093   0.83246   0.40150   0.00000  Uiso   1.00
O729   O     0.83333   0.83333   0.25000   0.00000  Uiso   1.00
O730   O     0.82118   0.79304   0.15459   0.00000  Uiso   1.00
O731   O     0.79607   0.87058   0.34968   0.00000  Uiso   1.00
O732   O     0.87491   0.84425   0.14606   0.00000  Uiso   1.00
O733   O     0.84118   0.82546   0.34968   0.00000  Uiso   1.00
O734   O     0.74042   0.96524   0.28793   0.00000  Uiso   1.00
O735   O     0.78285   0.97825   0.34358   0.00000  Uiso   1.00
O736   O     0.74375   0.70473   0.33101   0.00000  Uiso   1.00
O737   O     0.97124   0.78144   0.41605   0.00000  Uiso   1.00
O738   O     0.91309   0.72427   0.41774   0.00000  Uiso   1.00
O739   O     0.93154   0.77177   0.35280   0.00000  Uiso   1.00
O740   O     0.84597   0.74686   0.28214   0.00000  Uiso   1.00
O741   O     0.83200   0.91746   0.04995   0.00000  Uiso   1.00
O742   O     0.80106   0.88966   0.12312   0.00000  Uiso   1.00
O743   O     0.88360   0.91023   0.09770   0.00000  Uiso   1.00
O744   O     0.74391   0.89230   0.42396   0.00000  Uiso   1.00
O745   O     0.75931   0.84350   0.05625   0.00000  Uiso   1.00
O746   O     0.71724   0.88799   0.01526   0.00000  Uiso   1.00
O747   O     0.90203   0.84629   0.38272   0.00000  Uiso   1.00
O748   O     0.72242   0.90301   0.20310   0.00000  Uiso   1.00
O749   O     0.72819   0.83452   0.16221   0.00000  Uiso   1.00
O750   O     0.67199   0.87839   0.15087   0.00000  Uiso   1.00
O751   O     0.81298   0.92751   0.27014   0.00000  Uiso   1.00
O752   O     0.74078   0.79958   0.23413   0.00000  Uiso   1.00
O753   O     0.93360   0.85939   0.21361   0.00000  Uiso   1.00
O754   O     0.73738   0.85544   0.28213   0.00000  Uiso   1.00
O755   O     0.92158   0.81892   0.27014   0.00000  Uiso   1.00
O756   O     0.80426   0.73610   0.23413   0.00000  Uiso   1.00
O757   O     0.87012   0.92286   0.21361   0.00000  Uiso   1.00
S758   S     0.76999   0.99677   0.30787   0.00000  Uiso   1.00
S759   S     0.92781   0.76861   0.40714   0.00000  Uiso   1.00
S760   S     0.83856   0.89000   0.08244   0.00000  Uiso   1.00
S761   S     0.69745   0.86494   0.18655   0.00000  Uiso   1.00
Zn762  Zn    0.86005   0.80661   0.28734   0.00000  Uiso   1.00
Zn763  Zn    0.80046   0.79124   0.21876   0.00000  Uiso   1.00
Zn764  Zn    0.87723   0.86442   0.20657   0.00000  Uiso   1.00
Zn765  Zn    0.79560   0.87106   0.28734   0.00000  Uiso   1.00
C766   C     0.05266   0.15953   0.76070   0.00000  Uiso   1.00
C767   C     0.17815   0.17135   0.55834   0.00000  Uiso   1.00
C768   C     0.21365   0.11048   0.55788   0.00000  Uiso   1.00
C769   C     0.28091   0.17361   0.73948   0.00000  Uiso   1.00
C770   C     0.14144   0.19301   0.92029   0.00000  Uiso   1.00
C771   C     0.32732   0.17518   0.73331   0.00000  Uiso   1.00
C772   C     0.00765   0.15895   0.76382   0.00000  Uiso   1.00
C773   C     0.17869   0.32231   0.73828   0.00000  Uiso   1.00
C774   C     0.15003   0.01290   0.76551   0.00000  Uiso   1.00
C775   C     0.15684   0.05616   0.75951   0.00000  Uiso   1.00
C776   C     0.17609   0.27787   0.74051   0.00000  Uiso   1.00
C777   C     0.08933   0.20761   0.99158   0.00000  Uiso   1.00
C778   C     0.18471   0.14903   0.62946   0.00000  Uiso   1.00
C779   C     0.14959   0.18575   0.87091   0.00000  Uiso   1.00
C780   C     0.22507   0.10711   0.51142   0.00000  Uiso   1.00
C781   C     0.19161   0.14333   0.58131   0.00000  Uiso   1.00
C782   C     0.10259   0.20879   0.94508   0.00000  Uiso   1.00
C783   C     0.04278   0.19557   0.91845   0.00000  Uiso   1.00
C784   C     0.07044   0.13656   0.55362   0.00000  Uiso   1.00
C785   C     0.05921   0.26175   0.53457   0.00000  Uiso   1.00
C786   C     0.25295   0.22056   0.89248   0.00000  Uiso   1.00
C787   C     0.11221   0.18746   0.51317   0.00000  Uiso   1.00
C788   C     0.15388   0.17695   0.99045   0.00000  Uiso   1.00
C789   C     0.16851   0.17894   0.94358   0.00000  Uiso   1.00
C790   C     0.17994   0.16086   0.51274   0.00000  Uiso   1.00
C791   C     0.20930   0.13310   0.98808   0.00000  Uiso   1.00
C792   C     0.22366   0.13457   0.94134   0.00000  Uiso   1.00
C793   C     0.20906   0.16442   0.92180   0.00000  Uiso   1.00
H794   H     0.22508   0.08956   0.57547   0.00000  Uiso   1.00
H795   H     0.02570   0.20750   0.89697   0.00000  Uiso   1.00
H796   H     0.09307   0.11320   0.53783   0.00000  Uiso   1.00
H797   H     0.04522   0.13532   0.53525   0.00000  Uiso   1.00
H798   H     0.05391   0.12782   0.58786   0.00000  Uiso   1.00
H799   H     0.07575   0.28351   0.50855   0.00000  Uiso   1.00
H800   H     0.07859   0.26197   0.55908   0.00000  Uiso   1.00
H801   H     0.02813   0.27323   0.55294   0.00000  Uiso   1.00
H802   H     0.27086   0.22197   0.91854   0.00000  Uiso   1.00
H803   H     0.22758   0.24195   0.90288   0.00000  Uiso   1.00
H804   H     0.27625   0.23154   0.86171   0.00000  Uiso   1.00
H805   H     0.31870   0.14682   0.79339   0.00000  Uiso   1.00
H806   H     0.02868   0.22189   0.62536   0.00000  Uiso   1.00
H807   H     0.20553   0.00318   0.71321   0.00000  Uiso   1.00
H808   H     0.24646   0.08445   0.99458   0.00000  Uiso   1.00
H809   H     0.05152   0.02680   0.85376   0.00000  Uiso   1.00
H810   H     0.28348   0.08366   0.83669   0.00000  Uiso   1.00
H811   H     0.20964   0.26984   0.61570   0.00000  Uiso   1.00
H812   H     0.01905   0.18990   0.95094   0.00000  Uiso   1.00
H813   H     0.05426   0.16579   0.90150   0.00000  Uiso   1.00
O814   O     0.16667   0.16667   0.75000   0.00000  Uiso   1.00
O815   O     0.15451   0.12637   0.65459   0.00000  Uiso   1.00
O816   O     0.12940   0.20391   0.84968   0.00000  Uiso   1.00
O817   O     0.20824   0.17759   0.64606   0.00000  Uiso   1.00
O818   O     0.17451   0.15880   0.84968   0.00000  Uiso   1.00
O819   O     0.07375   0.29857   0.78793   0.00000  Uiso   1.00
O820   O     0.11618   0.31158   0.84358   0.00000  Uiso   1.00
O821   O     0.07709   0.03807   0.83101   0.00000  Uiso   1.00
O822   O     0.30457   0.11477   0.91605   0.00000  Uiso   1.00
O823   O     0.24643   0.05760   0.91774   0.00000  Uiso   1.00
O824   O     0.26488   0.10510   0.85280   0.00000  Uiso   1.00
O825   O     0.17930   0.08019   0.78214   0.00000  Uiso   1.00
O826   O     0.16533   0.25079   0.54995   0.00000  Uiso   1.00
O827   O     0.13439   0.22300   0.62312   0.00000  Uiso   1.00
O828   O     0.21693   0.24356   0.59770   0.00000  Uiso   1.00
O829   O     0.07724   0.22563   0.92396   0.00000  Uiso   1.00
O830   O     0.09265   0.17684   0.55625   0.00000  Uiso   1.00
O831   O     0.05057   0.22132   0.51526   0.00000  Uiso   1.00
O832   O     0.23536   0.17963   0.88272   0.00000  Uiso   1.00
O833   O     0.05576   0.23634   0.70310   0.00000  Uiso   1.00
O834   O     0.06153   0.16785   0.66221   0.00000  Uiso   1.00
O835   O     0.00532   0.21172   0.65087   0.00000  Uiso   1.00
O836   O     0.14632   0.26085   0.77014   0.00000  Uiso   1.00
O837   O     0.07412   0.13291   0.73413   0.00000  Uiso   1.00
O838   O     0.26693   0.19272   0.71361   0.00000  Uiso   1.00
O839   O     0.07071   0.18878   0.78213   0.00000  Uiso   1.00
O840   O     0.25491   0.15226   0.77014   0.00000  Uiso   1.00
O841   O     0.13760   0.06944   0.73413   0.00000  Uiso   1.00
O842   O     0.20345   0.25620   0.71361   0.00000  Uiso   1.00
S843   S     0.10333   0.33011   0.80787   0.00000  Uiso   1.00
S844   S     0.26114   0.10194   0.90714   0.00000  Uiso   1.00
S845   S     0.17190   0.22333   0.58244   0.00000  Uiso   1.00
S846   S     0.03078   0.19827   0.68655   0.00000  Uiso   1.00
Zn847  Zn    0.19338   0.13994   0.78734   0.00000  Uiso   1.00
Zn848  Zn    0.13379   0.12458   0.71876   0.00000  Uiso   1.00
Zn849  Zn    0.21056   0.19775   0.70657   0.00000  Uiso   1.00
Zn850  Zn    0.12893   0.20439   0.78734   0.00000  Uiso   1.00
C851   C     0.38600   0.15953   0.76070   0.00000  Uiso   1.00
C852   C     0.51149   0.17135   0.55834   0.00000  Uiso   1.00
C853   C     0.54699   0.11048   0.55788   0.00000  Uiso   1.00
C854   C     0.61424   0.17361   0.73948   0.00000  Uiso   1.00
C855   C     0.47477   0.19301   0.92029   0.00000  Uiso   1.00
C856   C     0.66065   0.17518   0.73331   0.00000  Uiso   1.00
C857   C     0.34098   0.15895   0.76382   0.00000  Uiso   1.00
C858   C     0.51202   0.32231   0.73828   0.00000  Uiso   1.00
C859   C     0.48337   0.01290   0.76551   0.00000  Uiso   1.00
C860   C     0.49017   0.05616   0.75951   0.00000  Uiso   1.00
C861   C     0.50943   0.27787   0.74051   0.00000  Uiso   1.00
C862   C     0.42267   0.20761   0.99158   0.00000  Uiso   1.00
C863   C     0.51804   0.14903   0.62946   0.00000  Uiso   1.00
C864   C     0.48293   0.18575   0.87091   0.00000  Uiso   1.00
C865   C     0.55840   0.10711   0.51142   0.00000  Uiso   1.00
C866   C     0.52494   0.14333   0.58131   0.00000  Uiso   1.00
C867   C     0.43592   0.20879   0.94508   0.00000  Uiso   1.00
C868   C     0.37611   0.19557   0.91845   0.00000  Uiso   1.00
C869   C     0.40378   0.13656   0.55362   0.00000  Uiso   1.00
C870   C     0.39254   0.26175   0.53457   0.00000  Uiso   1.00
C871   C     0.58628   0.22056   0.89248   0.00000  Uiso   1.00
C872   C     0.44554   0.18746   0.51317   0.00000  Uiso   1.00
C873   C     0.48721   0.17695   0.99045   0.00000  Uiso   1.00
C874   C     0.50184   0.17894   0.94358   0.00000  Uiso   1.00
C875   C     0.51328   0.16086   0.51274   0.00000  Uiso   1.00
C876   C     0.54263   0.13310   0.98808   0.00000  Uiso   1.00
C877   C     0.55699   0.13457   0.94134   0.00000  Uiso   1.00
C878   C     0.54239   0.16442   0.92180   0.00000  Uiso   1.00
H879   H     0.55842   0.08956   0.57547   0.00000  Uiso   1.00
H880   H     0.35904   0.20750   0.89697   0.00000  Uiso   1.00
H881   H     0.42640   0.11320   0.53783   0.00000  Uiso   1.00
H882   H     0.37855   0.13532   0.53525   0.00000  Uiso   1.00
H883   H     0.38724   0.12782   0.58786   0.00000  Uiso   1.00
H884   H     0.40908   0.28351   0.50855   0.00000  Uiso   1.00
H885   H     0.41192   0.26197   0.55908   0.00000  Uiso   1.00
H886   H     0.36146   0.27323   0.55294   0.00000  Uiso   1.00
H887   H     0.60420   0.22197   0.91854   0.00000  Uiso   1.00
H888   H     0.56091   0.24195   0.90288   0.00000  Uiso   1.00
H889   H     0.60958   0.23154   0.86171   0.00000  Uiso   1.00
H890   H     0.65203   0.14682   0.79339   0.00000  Uiso   1.00
H891   H     0.36201   0.22189   0.62536   0.00000  Uiso   1.00
H892   H     0.53886   0.00318   0.71321   0.00000  Uiso   1.00
H893   H     0.57979   0.08445   0.99458   0.00000  Uiso   1.00
H894   H     0.38485   0.02680   0.85376   0.00000  Uiso   1.00
H895   H     0.61681   0.08366   0.83669   0.00000  Uiso   1.00
H896   H     0.54297   0.26984   0.61570   0.00000  Uiso   1.00
H897   H     0.35239   0.18990   0.95094   0.00000  Uiso   1.00
H898   H     0.38760   0.16579   0.90150   0.00000  Uiso   1.00
O899   O     0.50000   0.16667   0.75000   0.00000  Uiso   1.00
O900   O     0.48784   0.12637   0.65459   0.00000  Uiso   1.00
O901   O     0.46274   0.20391   0.84968   0.00000  Uiso   1.00
O902   O     0.54157   0.17759   0.64606   0.00000  Uiso   1.00
O903   O     0.50785   0.15880   0.84968   0.00000  Uiso   1.00
O904   O     0.40708   0.29857   0.78793   0.00000  Uiso   1.00
O905   O     0.44952   0.31158   0.84358   0.00000  Uiso   1.00
O906   O     0.41042   0.03807   0.83101   0.00000  Uiso   1.00
O907   O     0.63791   0.11477   0.91605   0.00000  Uiso   1.00
O908   O     0.57976   0.05760   0.91774   0.00000  Uiso   1.00
O909   O     0.59821   0.10510   0.85280   0.00000  Uiso   1.00
O910   O     0.51264   0.08019   0.78214   0.00000  Uiso   1.00
O911   O     0.49866   0.25079   0.54995   0.00000  Uiso   1.00
O912   O     0.46772   0.22300   0.62312   0.00000  Uiso   1.00
O913   O     0.55027   0.24356   0.59770   0.00000  Uiso   1.00
O914   O     0.41058   0.22563   0.92396   0.00000  Uiso   1.00
O915   O     0.42598   0.17684   0.55625   0.00000  Uiso   1.00
O916   O     0.38390   0.22132   0.51526   0.00000  Uiso   1.00
O917   O     0.56869   0.17963   0.88272   0.00000  Uiso   1.00
O918   O     0.38909   0.23634   0.70310   0.00000  Uiso   1.00
O919   O     0.39486   0.16785   0.66221   0.00000  Uiso   1.00
O920   O     0.33866   0.21172   0.65087   0.00000  Uiso   1.00
O921   O     0.47965   0.26085   0.77014   0.00000  Uiso   1.00
O922   O     0.40745   0.13291   0.73413   0.00000  Uiso   1.00
O923   O     0.60026   0.19272   0.71361   0.00000  Uiso   1.00
O924   O     0.40405   0.18878   0.78213   0.00000  Uiso   1.00
O925   O     0.58824   0.15226   0.77014   0.00000  Uiso   1.00
O926   O     0.47093   0.06944   0.73413   0.00000  Uiso   1.00
O927   O     0.53678   0.25620   0.71361   0.00000  Uiso   1.00
S928   S     0.43666   0.33011   0.80787   0.00000  Uiso   1.00
S929   S     0.59448   0.10194   0.90714   0.00000  Uiso   1.00
S930   S     0.50523   0.22333   0.58244   0.00000  Uiso   1.00
S931   S     0.36411   0.19827   0.68655   0.00000  Uiso   1.00
Zn932  Zn    0.52672   0.13994   0.78734   0.00000  Uiso   1.00
Zn933  Zn    0.46713   0.12458   0.71876   0.00000  Uiso   1.00
Zn934  Zn    0.54389   0.19775   0.70657   0.00000  Uiso   1.00
Zn935  Zn    0.46226   0.20439   0.78734   0.00000  Uiso   1.00
C936   C     0.71933   0.15953   0.76070   0.00000  Uiso   1.00
C937   C     0.84482   0.17135   0.55834   0.00000  Uiso   1.00
C938   C     0.88032   0.11048   0.55788   0.00000  Uiso   1.00
C939   C     0.94758   0.17361   0.73948   0.00000  Uiso   1.00
C940   C     0.80811   0.19301   0.92029   0.00000  Uiso   1.00
C941   C     0.99398   0.17518   0.73331   0.00000  Uiso   1.00
C942   C     0.67432   0.15895   0.76382   0.00000  Uiso   1.00
C943   C     0.84535   0.32231   0.73828   0.00000  Uiso   1.00
C944   C     0.81670   0.01290   0.76551   0.00000  Uiso   1.00
C945   C     0.82351   0.05616   0.75951   0.00000  Uiso   1.00
C946   C     0.84276   0.27787   0.74051   0.00000  Uiso   1.00
C947   C     0.75600   0.20761   0.99158   0.00000  Uiso   1.00
C948   C     0.85138   0.14903   0.62946   0.00000  Uiso   1.00
C949   C     0.81626   0.18575   0.87091   0.00000  Uiso   1.00
C950   C     0.89173   0.10711   0.51142   0.00000  Uiso   1.00
C951   C     0.85828   0.14333   0.58131   0.00000  Uiso   1.00
C952   C     0.76926   0.20879   0.94508   0.00000  Uiso   1.00
C953   C     0.70944   0.19557   0.91845   0.00000  Uiso   1.00
C954   C     0.73711   0.13656   0.55362   0.00000  Uiso   1.00
C955   C     0.72587   0.26175   0.53457   0.00000  Uiso   1.00
C956   C     0.91961   0.22056   0.89248   0.00000  Uiso   1.00
C957   C     0.77888   0.18746   0.51317   0.00000  Uiso   1.00
C958   C     0.82055   0.17695   0.99045   0.00000  Uiso   1.00
C959   C     0.83518   0.17894   0.94358   0.00000  Uiso   1.00
C960   C     0.84661   0.16086   0.51274   0.00000  Uiso   1.00
C961   C     0.87597   0.13310   0.98808   0.00000  Uiso   1.00
C962   C     0.89032   0.13457   0.94134   0.00000  Uiso   1.00
C963   C     0.87572   0.16442   0.92180   0.00000  Uiso   1.00
H964   H     0.89175   0.08956   0.57547   0.00000  Uiso   1.00
H965   H     0.69237   0.20750   0.89697   0.00000  Uiso   1.00
H966   H     0.75974   0.11320   0.53783   0.00000  Uiso   1.00
H967   H     0.71189   0.13532   0.53525   0.00000  Uiso   1.00
H968   H     0.72058   0.12782   0.58786   0.00000  Uiso   1.00
H969   H     0.74241   0.28351   0.50855   0.00000  Uiso   1.00
H970   H     0.74525   0.26197   0.55908   0.00000  Uiso   1.00
H971   H     0.69480   0.27323   0.55294   0.00000  Uiso   1.00
H972   H     0.93753   0.22197   0.91854   0.00000  Uiso   1.00
H973   H     0.89424   0.24195   0.90288   0.00000  Uiso   1.00
H974   H     0.94292   0.23154   0.86171   0.00000  Uiso   1.00
H975   H     0.98537   0.14682   0.79339   0.00000  Uiso   1.00
H976   H     0.69534   0.22189   0.62536   0.00000  Uiso   1.00
H977   H     0.87220   0.00318   0.71321   0.00000  Uiso   1.00
H978   H     0.91313   0.08445   0.99458   0.00000  Uiso   1.00
H979   H     0.71819   0.02680   0.85376   0.00000  Uiso   1.00
H980   H     0.95014   0.08366   0.83669   0.00000  Uiso   1.00
H981   H     0.87630   0.26984   0.61570   0.00000  Uiso   1.00
H982   H     0.68572   0.18990   0.95094   0.00000  Uiso   1.00
H983   H     0.72093   0.16579   0.90150   0.00000  Uiso   1.00
O984   O     0.83333   0.16667   0.75000   0.00000  Uiso   1.00
O985   O     0.82118   0.12637   0.65459   0.00000  Uiso   1.00
O986   O     0.79607   0.20391   0.84968   0.00000  Uiso   1.00
O987   O     0.87491   0.17759   0.64606   0.00000  Uiso   1.00
O988   O     0.84118   0.15880   0.84968   0.00000  Uiso   1.00
O989   O     0.74042   0.29857   0.78793   0.00000  Uiso   1.00
O990   O     0.78285   0.31158   0.84358   0.00000  Uiso   1.00
O991   O     0.74375   0.03807   0.83101   0.00000  Uiso   1.00
O992   O     0.97124   0.11477   0.91605   0.00000  Uiso   1.00
O993   O     0.91309   0.05760   0.91774   0.00000  Uiso   1.00
O994   O     0.93154   0.10510   0.85280   0.00000  Uiso   1.00
O995   O     0.84597   0.08019   0.78214   0.00000  Uiso   1.00
O996   O     0.83200   0.25079   0.54995   0.00000  Uiso   1.00
O997   O     0.80106   0.22300   0.62312   0.00000  Uiso   1.00
O998   O     0.88360   0.24356   0.59770   0.00000  Uiso   1.00
O999   O     0.74391   0.22563   0.92396   0.00000  Uiso   1.00
O1000  O     0.75931   0.17684   0.55625   0.00000  Uiso   1.00
O1001  O     0.71724   0.22132   0.51526   0.00000  Uiso   1.00
O1002  O     0.90203   0.17963   0.88272   0.00000  Uiso   1.00
O1003  O     0.72242   0.23634   0.70310   0.00000  Uiso   1.00
O1004  O     0.72819   0.16785   0.66221   0.00000  Uiso   1.00
O1005  O     0.67199   0.21172   0.65087   0.00000  Uiso   1.00
O1006  O     0.81298   0.26085   0.77014   0.00000  Uiso   1.00
O1007  O     0.74078   0.13291   0.73413   0.00000  Uiso   1.00
O1008  O     0.93360   0.19272   0.71361   0.00000  Uiso   1.00
O1009  O     0.73738   0.18878   0.78213   0.00000  Uiso   1.00
O1010  O     0.92158   0.15226   0.77014   0.00000  Uiso   1.00
O1011  O     0.80426   0.06944   0.73413   0.00000  Uiso   1.00
O1012  O     0.87012   0.25620   0.71361   0.00000  Uiso   1.00
S1013  S     0.76999   0.33011   0.80787   0.00000  Uiso   1.00
S1014  S     0.92781   0.10194   0.90714   0.00000  Uiso   1.00
S1015  S     0.83856   0.22333   0.58244   0.00000  Uiso   1.00
S1016  S     0.69745   0.19827   0.68655   0.00000  Uiso   1.00
Zn1017 Zn    0.86005   0.13994   0.78734   0.00000  Uiso   1.00
Zn1018 Zn    0.80046   0.12458   0.71876   0.00000  Uiso   1.00
Zn1019 Zn    0.87723   0.19775   0.70657   0.00000  Uiso   1.00
Zn1020 Zn    0.79560   0.20439   0.78734   0.00000  Uiso   1.00
C1021  C     0.05266   0.49287   0.76070   0.00000  Uiso   1.00
C1022  C     0.17815   0.50469   0.55834   0.00000  Uiso   1.00
C1023  C     0.21365   0.44381   0.55788   0.00000  Uiso   1.00
C1024  C     0.28091   0.50694   0.73948   0.00000  Uiso   1.00
C1025  C     0.14144   0.52634   0.92029   0.00000  Uiso   1.00
C1026  C     0.32732   0.50851   0.73331   0.00000  Uiso   1.00
C1027  C     0.00765   0.49228   0.76382   0.00000  Uiso   1.00
C1028  C     0.17869   0.65564   0.73828   0.00000  Uiso   1.00
C1029  C     0.15003   0.34623   0.76551   0.00000  Uiso   1.00
C1030  C     0.15684   0.38949   0.75951   0.00000  Uiso   1.00
C1031  C     0.17609   0.61121   0.74051   0.00000  Uiso   1.00
C1032  C     0.08933   0.54094   0.99158   0.00000  Uiso   1.00
C1033  C     0.18471   0.48236   0.62946   0.00000  Uiso   1.00
C1034  C     0.14959   0.51909   0.87091   0.00000  Uiso   1.00
C1035  C     0.22507   0.44044   0.51142   0.00000  Uiso   1.00
C1036  C     0.19161   0.47666   0.58131   0.00000  Uiso   1.00
C1037  C     0.10259   0.54213   0.94508   0.00000  Uiso   1.00
C1038  C     0.04278   0.52890   0.91845   0.00000  Uiso   1.00
C1039  C     0.07044   0.46989   0.55362   0.00000  Uiso   1.00
C1040  C     0.05921   0.59509   0.53457   0.00000  Uiso   1.00
C1041  C     0.25295   0.55389   0.89248   0.00000  Uiso   1.00
C1042  C     0.11221   0.52079   0.51317   0.00000  Uiso   1.00
C1043  C     0.15388   0.51028   0.99045   0.00000  Uiso   1.00
C1044  C     0.16851   0.51227   0.94358   0.00000  Uiso   1.00
C1045  C     0.17994   0.49420   0.51274   0.00000  Uiso   1.00
C1046  C     0.20930   0.46643   0.98808   0.00000  Uiso   1.00
C1047  C     0.22366   0.46790   0.94134   0.00000  Uiso   1.00
C1048  C     0.20906   0.49775   0.92180   0.00000  Uiso   1.00
H1049  H     0.22508   0.42289   0.57547   0.00000  Uiso   1.00
H1050  H     0.02570   0.54083   0.89697   0.00000  Uiso   1.00
H1051  H     0.09307   0.44654   0.53783   0.00000  Uiso   1.00
H1052  H     0.04522   0.46865   0.53525   0.00000  Uiso   1.00
H1053  H     0.05391   0.46116   0.58786   0.00000  Uiso   1.00
H1054  H     0.07575   0.61684   0.50855   0.00000  Uiso   1.00
H1055  H     0.07859   0.59531   0.55908   0.00000  Uiso   1.00
H1056  H     0.02813   0.60657   0.55294   0.00000  Uiso   1.00
H1057  H     0.27086   0.55530   0.91854   0.00000  Uiso   1.00
H1058  H     0.22758   0.57528   0.90288   0.00000  Uiso   1.00
H1059  H     0.27625   0.56487   0.86171   0.00000  Uiso   1.00
H1060  H     0.31870   0.48015   0.79339   0.00000  Uiso   1.00
H1061  H     0.02868   0.55522   0.62536   0.00000  Uiso   1.00
H1062  H     0.20553   0.33651   0.71321   0.00000  Uiso   1.00
H1063  H     0.24646   0.41778   0.99458   0.00000  Uiso   1.00
H1064  H     0.05152   0.36014   0.85376   0.00000  Uiso   1.00
H1065  H     0.28348   0.41699   0.83669   0.00000  Uiso   1.00
H1066  H     0.20964   0.60318   0.61570   0.00000  Uiso   1.00
H1067  H     0.01905   0.52323   0.95094   0.00000  Uiso   1.00
H1068  H     0.05426   0.49912   0.90150   0.00000  Uiso   1.00
O1069  O     0.16667   0.50000   0.75000   0.00000  Uiso   1.00
O1070  O     0.15451   0.45970   0.65459   0.00000  Uiso   1.00
O1071  O     0.12940   0.53724   0.84968   0.00000  Uiso   1.00
O1072  O     0.20824   0.51092   0.64606   0.00000  Uiso   1.00
O1073  O     0.17451   0.49213   0.84968   0.00000  Uiso   1.00
O1074  O     0.07375   0.63191   0.78793   0.00000  Uiso   1.00
O1075  O     0.11618   0.64491   0.84358   0.00000  Uiso   1.00
O1076  O     0.07709   0.37140   0.83101   0.00000  Uiso   1.00
O1077  O     0.30457   0.44811   0.91605   0.00000  Uiso   1.00
O1078  O     0.24643   0.39093   0.91774   0.00000  Uiso   1.00
O1079  O     0.26488   0.43843   0.85280   0.00000  Uiso   1.00
O1080  O     0.17930   0.41352   0.78214   0.00000  Uiso   1.00
O1081  O     0.16533   0.58413   0.54995   0.00000  Uiso   1.00
O1082  O     0.13439   0.55633   0.62312   0.00000  Uiso   1.00
O1083  O     0.21693   0.57689   0.59770   0.00000  Uiso   1.00
O1084  O     0.07724   0.55896   0.92396   0.00000  Uiso   1.00
O1085  O     0.09265   0.51017   0.55625   0.00000  Uiso   1.00
O1086  O     0.05057   0.55466   0.51526   0.00000  Uiso   1.00
O1087  O     0.23536   0.51296   0.88272   0.00000  Uiso   1.00
O1088  O     0.05576   0.56967   0.70310   0.00000  Uiso   1.00
O1089  O     0.06153   0.50118   0.66221   0.00000  Uiso   1.00
O1090  O     0.00532   0.54506   0.65087   0.00000  Uiso   1.00
O1091  O     0.14632   0.59418   0.77014   0.00000  Uiso   1.00
O1092  O     0.07412   0.46625   0.73413   0.00000  Uiso   1.00
O1093  O     0.26693   0.52605   0.71361   0.00000  Uiso   1.00
O1094  O     0.07071   0.52211   0.78213   0.00000  Uiso   1.00
O1095  O     0.25491   0.48559   0.77014   0.00000  Uiso   1.00
O1096  O     0.13760   0.40277   0.73413   0.00000  Uiso   1.00
O1097  O     0.20345   0.58953   0.71361   0.00000  Uiso   1.00
S1098  S     0.10333   0.66344   0.80787   0.00000  Uiso   1.00
S1099  S     0.26114   0.43527   0.90714   0.00000  Uiso   1.00
S1100  S     0.17190   0.55666   0.58244   0.00000  Uiso   1.00
S1101  S     0.03078   0.53161   0.68655   0.00000  Uiso   1.00
Zn1102 Zn    0.19338   0.47327   0.78734   0.00000  Uiso   1.00
Zn1103 Zn    0.13379   0.45791   0.71876   0.00000  Uiso   1.00
Zn1104 Zn    0.21056   0.53109   0.70657   0.00000  Uiso   1.00
Zn1105 Zn    0.12893   0.53773   0.78734   0.00000  Uiso   1.00
C1106  C     0.38600   0.49287   0.76070   0.00000  Uiso   1.00
C1107  C     0.51149   0.50469   0.55834   0.00000  Uiso   1.00
C1108  C     0.54699   0.44381   0.55788   0.00000  Uiso   1.00
C1109  C     0.61424   0.50694   0.73948   0.00000  Uiso   1.00
C1110  C     0.47477   0.52634   0.92029   0.00000  Uiso   1.00
C1111  C     0.66065   0.50851   0.73331   0.00000  Uiso   1.00
C1112  C     0.34098   0.49228   0.76382   0.00000  Uiso   1.00
C1113  C     0.51202   0.65564   0.73828   0.00000  Uiso   1.00
C1114  C     0.48337   0.34623   0.76551   0.00000  Uiso   1.00
C1115  C     0.49017   0.38949   0.75951   0.00000  Uiso   1.00
C1116  C     0.50943   0.61121   0.74051   0.00000  Uiso   1.00
C1117  C     0.42267   0.54094   0.99158   0.00000  Uiso   1.00
C1118  C     0.51804   0.48236   0.62946   0.00000  Uiso   1.00
C1119  C     0.48293   0.51909   0.87091   0.00000  Uiso   1.00
C1120  C     0.55840   0.44044   0.51142   0.00000  Uiso   1.00
C1121  C     0.52494   0.47666   0.58131   0.00000  Uiso   1.00
C1122  C     0.43592   0.54213   0.94508   0.00000  Uiso   1.00
C1123  C     0.37611   0.52890   0.91845   0.00000  Uiso   1.00
C1124  C     0.40378   0.46989   0.55362   0.00000  Uiso   1.00
C1125  C     0.39254   0.59509   0.53457   0.00000  Uiso   1.00
C1126  C     0.58628   0.55389   0.89248   0.00000  Uiso   1.00
C1127  C     0.44554   0.52079   0.51317   0.00000  Uiso   1.00
C1128  C     0.48721   0.51028   0.99045   0.00000  Uiso   1.00
C1129  C     0.50184   0.51227   0.94358   0.00000  Uiso   1.00
C1130  C     0.51328   0.49420   0.51274   0.00000  Uiso   1.00
C1131  C     0.54263   0.46643   0.98808   0.00000  Uiso   1.00
C1132  C     0.55699   0.46790   0.94134   0.00000  Uiso   1.00
C1133  C     0.54239   0.49775   0.92180   0.00000  Uiso   1.00
H1134  H     0.55842   0.42289   0.57547   0.00000  Uiso   1.00
H1135  H     0.35904   0.54083   0.89697   0.00000  Uiso   1.00
H1136  H     0.42640   0.44654   0.53783   0.00000  Uiso   1.00
H1137  H     0.37855   0.46865   0.53525   0.00000  Uiso   1.00
H1138  H     0.38724   0.46116   0.58786   0.00000  Uiso   1.00
H1139  H     0.40908   0.61684   0.50855   0.00000  Uiso   1.00
H1140  H     0.41192   0.59531   0.55908   0.00000  Uiso   1.00
H1141  H     0.36146   0.60657   0.55294   0.00000  Uiso   1.00
H1142  H     0.60420   0.55530   0.91854   0.00000  Uiso   1.00
H1143  H     0.56091   0.57528   0.90288   0.00000  Uiso   1.00
H1144  H     0.60958   0.56487   0.86171   0.00000  Uiso   1.00
H1145  H     0.65203   0.48015   0.79339   0.00000  Uiso   1.00
H1146  H     0.36201   0.55522   0.62536   0.00000  Uiso   1.00
H1147  H     0.53886   0.33651   0.71321   0.00000  Uiso   1.00
H1148  H     0.57979   0.41778   0.99458   0.00000  Uiso   1.00
H1149  H     0.38485   0.36014   0.85376   0.00000  Uiso   1.00
H1150  H     0.61681   0.41699   0.83669   0.00000  Uiso   1.00
H1151  H     0.54297   0.60318   0.61570   0.00000  Uiso   1.00
H1152  H     0.35239   0.52323   0.95094   0.00000  Uiso   1.00
H1153  H     0.38760   0.49912   0.90150   0.00000  Uiso   1.00
O1154  O     0.50000   0.50000   0.75000   0.00000  Uiso   1.00
O1155  O     0.48784   0.45970   0.65459   0.00000  Uiso   1.00
O1156  O     0.46274   0.53724   0.84968   0.00000  Uiso   1.00
O1157  O     0.54157   0.51092   0.64606   0.00000  Uiso   1.00
O1158  O     0.50785   0.49213   0.84968   0.00000  Uiso   1.00
O1159  O     0.40708   0.63191   0.78793   0.00000  Uiso   1.00
O1160  O     0.44952   0.64491   0.84358   0.00000  Uiso   1.00
O1161  O     0.41042   0.37140   0.83101   0.00000  Uiso   1.00
O1162  O     0.63791   0.44811   0.91605   0.00000  Uiso   1.00
O1163  O     0.57976   0.39093   0.91774   0.00000  Uiso   1.00
O1164  O     0.59821   0.43843   0.85280   0.00000  Uiso   1.00
O1165  O     0.51264   0.41352   0.78214   0.00000  Uiso   1.00
O1166  O     0.49866   0.58413   0.54995   0.00000  Uiso   1.00
O1167  O     0.46772   0.55633   0.62312   0.00000  Uiso   1.00
O1168  O     0.55027   0.57689   0.59770   0.00000  Uiso   1.00
O1169  O     0.41058   0.55896   0.92396   0.00000  Uiso   1.00
O1170  O     0.42598   0.51017   0.55625   0.00000  Uiso   1.00
O1171  O     0.38390   0.55466   0.51526   0.00000  Uiso   1.00
O1172  O     0.56869   0.51296   0.88272   0.00000  Uiso   1.00
O1173  O     0.38909   0.56967   0.70310   0.00000  Uiso   1.00
O1174  O     0.39486   0.50118   0.66221   0.00000  Uiso   1.00
O1175  O     0.33866   0.54506   0.65087   0.00000  Uiso   1.00
O1176  O     0.47965   0.59418   0.77014   0.00000  Uiso   1.00
O1177  O     0.40745   0.46625   0.73413   0.00000  Uiso   1.00
O1178  O     0.60026   0.52605   0.71361   0.00000  Uiso   1.00
O1179  O     0.40405   0.52211   0.78213   0.00000  Uiso   1.00
O1180  O     0.58824   0.48559   0.77014   0.00000  Uiso   1.00
O1181  O     0.47093   0.40277   0.73413   0.00000  Uiso   1.00
O1182  O     0.53678   0.58953   0.71361   0.00000  Uiso   1.00
S1183  S     0.43666   0.66344   0.80787   0.00000  Uiso   1.00
S1184  S     0.59448   0.43527   0.90714   0.00000  Uiso   1.00
S1185  S     0.50523   0.55666   0.58244   0.00000  Uiso   1.00
S1186  S     0.36411   0.53161   0.68655   0.00000  Uiso   1.00
Zn1187 Zn    0.52672   0.47327   0.78734   0.00000  Uiso   1.00
Zn1188 Zn    0.46713   0.45791   0.71876   0.00000  Uiso   1.00
Zn1189 Zn    0.54389   0.53109   0.70657   0.00000  Uiso   1.00
Zn1190 Zn    0.46226   0.53773   0.78734   0.00000  Uiso   1.00
C1191  C     0.71933   0.49287   0.76070   0.00000  Uiso   1.00
C1192  C     0.84482   0.50469   0.55834   0.00000  Uiso   1.00
C1193  C     0.88032   0.44381   0.55788   0.00000  Uiso   1.00
C1194  C     0.94758   0.50694   0.73948   0.00000  Uiso   1.00
C1195  C     0.80811   0.52634   0.92029   0.00000  Uiso   1.00
C1196  C     0.99398   0.50851   0.73331   0.00000  Uiso   1.00
C1197  C     0.67432   0.49228   0.76382   0.00000  Uiso   1.00
C1198  C     0.84535   0.65564   0.73828   0.00000  Uiso   1.00
C1199  C     0.81670   0.34623   0.76551   0.00000  Uiso   1.00
C1200  C     0.82351   0.38949   0.75951   0.00000  Uiso   1.00
C1201  C     0.84276   0.61121   0.74051   0.00000  Uiso   1.00
C1202  C     0.75600   0.54094   0.99158   0.00000  Uiso   1.00
C1203  C     0.85138   0.48236   0.62946   0.00000  Uiso   1.00
C1204  C     0.81626   0.51909   0.87091   0.00000  Uiso   1.00
C1205  C     0.89173   0.44044   0.51142   0.00000  Uiso   1.00
C1206  C     0.85828   0.47666   0.58131   0.00000  Uiso   1.00
C1207  C     0.76926   0.54213   0.94508   0.00000  Uiso   1.00
C1208  C     0.70944   0.52890   0.91845   0.00000  Uiso   1.00
C1209  C     0.73711   0.46989   0.55362   0.00000  Uiso   1.00
C1210  C     0.72587   0.59509   0.53457   0.00000  Uiso   1.00
C1211  C     0.91961   0.55389   0.89248   0.00000  Uiso   1.00
C1212  C     0.77888   0.52079   0.51317   0.00000  Uiso   1.00
C1213  C     0.82055   0.51028   0.99045   0.00000  Uiso   1.00
C1214  C     0.83518   0.51227   0.94358   0.00000  Uiso   1.00
C1215  C     0.84661   0.49420   0.51274   0.00000  Uiso   1.00
C1216  C     0.87597   0.46643   0.98808   0.00000  Uiso   1.00
C1217  C     0.89032   0.46790   0.94134   0.00000  Uiso   1.00
C1218  C     0.87572   0.49775   0.92180   0.00000  Uiso   1.00
H1219  H     0.89175   0.42289   0.57547   0.00000  Uiso   1.00
H1220  H     0.69237   0.54083   0.89697   0.00000  Uiso   1.00
H1221  H     0.75974   0.44654   0.53783   0.00000  Uiso   1.00
H1222  H     0.71189   0.46865   0.53525   0.00000  Uiso   1.00
H1223  H     0.72058   0.46116   0.58786   0.00000  Uiso   1.00
H1224  H     0.74241   0.61684   0.50855   0.00000  Uiso   1.00
H1225  H     0.74525   0.59531   0.55908   0.00000  Uiso   1.00
H1226  H     0.69480   0.60657   0.55294   0.00000  Uiso   1.00
H1227  H     0.93753   0.55530   0.91854   0.00000  Uiso   1.00
H1228  H     0.89424   0.57528   0.90288   0.00000  Uiso   1.00
H1229  H     0.94292   0.56487   0.86171   0.00000  Uiso   1.00
H1230  H     0.98537   0.48015   0.79339   0.00000  Uiso   1.00
H1231  H     0.69534   0.55522   0.62536   0.00000  Uiso   1.00
H1232  H     0.87220   0.33651   0.71321   0.00000  Uiso   1.00
H1233  H     0.91313   0.41778   0.99458   0.00000  Uiso   1.00
H1234  H     0.71819   0.36014   0.85376   0.00000  Uiso   1.00
H1235  H     0.95014   0.41699   0.83669   0.00000  Uiso   1.00
H1236  H     0.87630   0.60318   0.61570   0.00000  Uiso   1.00
H1237  H     0.68572   0.52323   0.95094   0.00000  Uiso   1.00
H1238  H     0.72093   0.49912   0.90150   0.00000  Uiso   1.00
O1239  O     0.83333   0.50000   0.75000   0.00000  Uiso   1.00
O1240  O     0.82118   0.45970   0.65459   0.00000  Uiso   1.00
O1241  O     0.79607   0.53724   0.84968   0.00000  Uiso   1.00
O1242  O     0.87491   0.51092   0.64606   0.00000  Uiso   1.00
O1243  O     0.84118   0.49213   0.84968   0.00000  Uiso   1.00
O1244  O     0.74042   0.63191   0.78793   0.00000  Uiso   1.00
O1245  O     0.78285   0.64491   0.84358   0.00000  Uiso   1.00
O1246  O     0.74375   0.37140   0.83101   0.00000  Uiso   1.00
O1247  O     0.97124   0.44811   0.91605   0.00000  Uiso   1.00
O1248  O     0.91309   0.39093   0.91774   0.00000  Uiso   1.00
O1249  O     0.93154   0.43843   0.85280   0.00000  Uiso   1.00
O1250  O     0.84597   0.41352   0.78214   0.00000  Uiso   1.00
O1251  O     0.83200   0.58413   0.54995   0.00000  Uiso   1.00
O1252  O     0.80106   0.55633   0.62312   0.00000  Uiso   1.00
O1253  O     0.88360   0.57689   0.59770   0.00000  Uiso   1.00
O1254  O     0.74391   0.55896   0.92396   0.00000  Uiso   1.00
O1255  O     0.75931   0.51017   0.55625   0.00000  Uiso   1.00
O1256  O     0.71724   0.55466   0.51526   0.00000  Uiso   1.00
O1257  O     0.90203   0.51296   0.88272   0.00000  Uiso   1.00
O1258  O     0.72242   0.56967   0.70310   0.00000  Uiso   1.00
O1259  O     0.72819   0.50118   0.66221   0.00000  Uiso   1.00
O1260  O     0.67199   0.54506   0.65087   0.00000  Uiso   1.00
O1261  O     0.81298   0.59418   0.77014   0.00000  Uiso   1.00
O1262  O     0.74078   0.46625   0.73413   0.00000  Uiso   1.00
O1263  O     0.93360   0.52605   0.71361   0.00000  Uiso   1.00
O1264  O     0.73738   0.52211   0.78213   0.00000  Uiso   1.00
O1265  O     0.92158   0.48559   0.77014   0.00000  Uiso   1.00
O1266  O     0.80426   0.40277   0.73413   0.00000  Uiso   1.00
O1267  O     0.87012   0.58953   0.71361   0.00000  Uiso   1.00
S1268  S     0.76999   0.66344   0.80787   0.00000  Uiso   1.00
S1269  S     0.92781   0.43527   0.90714   0.00000  Uiso   1.00
S1270  S     0.83856   0.55666   0.58244   0.00000  Uiso   1.00
S1271  S     0.69745   0.53161   0.68655   0.00000  Uiso   1.00
Zn1272 Zn    0.86005   0.47327   0.78734   0.00000  Uiso   1.00
Zn1273 Zn    0.80046   0.45791   0.71876   0.00000  Uiso   1.00
Zn1274 Zn    0.87723   0.53109   0.70657   0.00000  Uiso   1.00
Zn1275 Zn    0.79560   0.53773   0.78734   0.00000  Uiso   1.00
C1276  C     0.05266   0.82620   0.76070   0.00000  Uiso   1.00
C1277  C     0.17815   0.83802   0.55834   0.00000  Uiso   1.00
C1278  C     0.21365   0.77715   0.55788   0.00000  Uiso   1.00
C1279  C     0.28091   0.84028   0.73948   0.00000  Uiso   1.00
C1280  C     0.14144   0.85968   0.92029   0.00000  Uiso   1.00
C1281  C     0.32732   0.84185   0.73331   0.00000  Uiso   1.00
C1282  C     0.00765   0.82561   0.76382   0.00000  Uiso   1.00
C1283  C     0.17869   0.98898   0.73828   0.00000  Uiso   1.00
C1284  C     0.15003   0.67957   0.76551   0.00000  Uiso   1.00
C1285  C     0.15684   0.72282   0.75951   0.00000  Uiso   1.00
C1286  C     0.17609   0.94454   0.74051   0.00000  Uiso   1.00
C1287  C     0.08933   0.87427   0.99158   0.00000  Uiso   1.00
C1288  C     0.18471   0.81570   0.62946   0.00000  Uiso   1.00
C1289  C     0.14959   0.85242   0.87091   0.00000  Uiso   1.00
C1290  C     0.22507   0.77377   0.51142   0.00000  Uiso   1.00
C1291  C     0.19161   0.81000   0.58131   0.00000  Uiso   1.00
C1292  C     0.10259   0.87546   0.94508   0.00000  Uiso   1.00
C1293  C     0.04278   0.86224   0.91845   0.00000  Uiso   1.00
C1294  C     0.07044   0.80322   0.55362   0.00000  Uiso   1.00
C1295  C     0.05921   0.92842   0.53457   0.00000  Uiso   1.00
C1296  C     0.25295   0.88723   0.89248   0.00000  Uiso   1.00
C1297  C     0.11221   0.85412   0.51317   0.00000  Uiso   1.00
C1298  C     0.15388   0.84361   0.99045   0.00000  Uiso   1.00
C1299  C     0.16851   0.84561   0.94358   0.00000  Uiso   1.00
C1300  C     0.17994   0.82753   0.51274   0.00000  Uiso   1.00
C1301  C     0.20930   0.79977   0.98808   0.00000  Uiso   1.00
C1302  C     0.22366   0.80124   0.94134   0.00000  Uiso   1.00
C1303  C     0.20906   0.83109   0.92180   0.00000  Uiso   1.00
H1304  H     0.22508   0.75623   0.57547   0.00000  Uiso   1.00
H1305  H     0.02570   0.87416   0.89697   0.00000  Uiso   1.00
H1306  H     0.09307   0.77987   0.53783   0.00000  Uiso   1.00
H1307  H     0.04522   0.80198   0.53525   0.00000  Uiso   1.00
H1308  H     0.05391   0.79449   0.58786   0.00000  Uiso   1.00
H1309  H     0.07575   0.95018   0.50855   0.00000  Uiso   1.00
H1310  H     0.07859   0.92864   0.55908   0.00000  Uiso   1.00
H1311  H     0.02813   0.93990   0.55294   0.00000  Uiso   1.00
H1312  H     0.27086   0.88864   0.91854   0.00000  Uiso   1.00
H1313  H     0.22758   0.90861   0.90288   0.00000  Uiso   1.00
H1314  H     0.27625   0.89820   0.86171   0.00000  Uiso   1.00
H1315  H     0.31870   0.81349   0.79339   0.00000  Uiso   1.00
H1316  H     0.02868   0.88856   0.62536   0.00000  Uiso   1.00
H1317  H     0.20553   0.66984   0.71321   0.00000  Uiso   1.00
H1318  H     0.24646   0.75112   0.99458   0.00000  Uiso   1.00
H1319  H     0.05152   0.69347   0.85376   0.00000  Uiso   1.00
H1320  H     0.28348   0.75032   0.83669   0.00000  Uiso   1.00
H1321  H     0.20964   0.93651   0.61570   0.00000  Uiso   1.00
H1322  H     0.01905   0.85656   0.95094   0.00000  Uiso   1.00
H1323  H     0.05426   0.83246   0.90150   0.00000  Uiso   1.00
O1324  O     0.16667   0.83333   0.75000   0.00000  Uiso   1.00
O1325  O     0.15451   0.79304   0.65459   0.00000  Uiso   1.00
O1326  O     0.12940   0.87058   0.84968   0.00000  Uiso   1.00
O1327  O     0.20824   0.84425   0.64606   0.00000  Uiso   1.00
O1328  O     0.17451   0.82546   0.84968   0.00000  Uiso   1.00
O1329  O     0.07375   0.96524   0.78793   0.00000  Uiso   1.00
O1330  O     0.11618   0.97825   0.84358   0.00000  Uiso   1.00
O1331  O     0.07709   0.70473   0.83101   0.00000  Uiso   1.00
O1332  O     0.30457   0.78144   0.91605   0.00000  Uiso   1.00
O1333  O     0.24643   0.72427   0.91774   0.00000  Uiso   1.00
O1334  O     0.26488   0.77177   0.85280   0.00000  Uiso   1.00
O1335  O     0.17930   0.74686   0.78214   0.00000  Uiso   1.00
O1336  O     0.16533   0.91746   0.54995   0.00000  Uiso   1.00
O1337  O     0.13439   0.88966   0.62312   0.00000  Uiso   1.00
O1338  O     0.21693   0.91023   0.59770   0.00000  Uiso   1.00
O1339  O     0.07724   0.89230   0.92396   0.00000  Uiso   1.00
O1340  O     0.09265   0.84350   0.55625   0.00000  Uiso   1.00
O1341  O     0.05057   0.88799   0.51526   0.00000  Uiso   1.00
O1342  O     0.23536   0.84629   0.88272   0.00000  Uiso   1.00
O1343  O     0.05576   0.90301   0.70310   0.00000  Uiso   1.00
O1344  O     0.06153   0.83452   0.66221   0.00000  Uiso   1.00
O1345  O     0.00532   0.87839   0.65087   0.00000  Uiso   1.00
O1346  O     0.14632   0.92751   0.77014   0.00000  Uiso   1.00
O1347  O     0.07412   0.79958   0.73413   0.00000  Uiso   1.00
O1348  O     0.26693   0.85939   0.71361   0.00000  Uiso   1.00
O1349  O     0.07071   0.85544   0.78213   0.00000  Uiso   1.00
O1350  O     0.25491   0.81892   0.77014   0.00000  Uiso   1.00
O1351  O     0.13760   0.73610   0.73413   0.00000  Uiso   1.00
O1352  O     0.20345   0.92286   0.71361   0.00000  Uiso   1.00
S1353  S     0.10333   0.99677   0.80787   0.00000  Uiso   1.00
S1354  S     0.26114   0.76861   0.90714   0.00000  Uiso   1.00
S1355  S     0.17190   0.89000   0.58244   0.00000  Uiso   1.00
S1356  S     0.03078   0.86494   0.68655   0.00000  Uiso   1.00
Zn1357 Zn    0.19338   0.80661   0.78734   0.00000  Uiso   1.00
Zn1358 Zn    0.13379   0.79124   0.71876   0.00000  Uiso   1.00
Zn1359 Zn    0.21056   0.86442   0.70657   0.00000  Uiso   1.00
Zn1360 Zn    0.12893   0.87106   0.78734   0.00000  Uiso   1.00
C1361  C     0.38600   0.82620   0.76070   0.00000  Uiso   1.00
C1362  C     0.51149   0.83802   0.55834   0.00000  Uiso   1.00
C1363  C     0.54699   0.77715   0.55788   0.00000  Uiso   1.00
C1364  C     0.61424   0.84028   0.73948   0.00000  Uiso   1.00
C1365  C     0.47477   0.85968   0.92029   0.00000  Uiso   1.00
C1366  C     0.66065   0.84185   0.73331   0.00000  Uiso   1.00
C1367  C     0.34098   0.82561   0.76382   0.00000  Uiso   1.00
C1368  C     0.51202   0.98898   0.73828   0.00000  Uiso   1.00
C1369  C     0.48337   0.67957   0.76551   0.00000  Uiso   1.00
C1370  C     0.49017   0.72282   0.75951   0.00000  Uiso   1.00
C1371  C     0.50943   0.94454   0.74051   0.00000  Uiso   1.00
C1372  C     0.42267   0.87427   0.99158   0.00000  Uiso   1.00
C1373  C     0.51804   0.81570   0.62946   0.00000  Uiso   1.00
C1374  C     0.48293   0.85242   0.87091   0.00000  Uiso   1.00
C1375  C     0.55840   0.77377   0.51142   0.00000  Uiso   1.00
C1376  C     0.52494   0.81000   0.58131   0.00000  Uiso   1.00
C1377  C     0.43592   0.87546   0.94508   0.00000  Uiso   1.00
C1378  C     0.37611   0.86224   0.91845   0.00000  Uiso   1.00
C1379  C     0.40378   0.80322   0.55362   0.00000  Uiso   1.00
C1380  C     0.39254   0.92842   0.53457   0.00000  Uiso   1.00
C1381  C     0.58628   0.88723   0.89248   0.00000  Uiso   1.00
C1382  C     0.44554   0.85412   0.51317   0.00000  Uiso   1.00
C1383  C     0.48721   0.84361   0.99045   0.00000  Uiso   1.00
C1384  C     0.50184   0.84561   0.94358   0.00000  Uiso   1.00
C1385  C     0.51328   0.82753   0.51274   0.00000  Uiso   1.00
C1386  C     0.54263   0.79977   0.98808   0.00000  Uiso   1.00
C1387  C     0.55699   0.80124   0.94134   0.00000  Uiso   1.00
C1388  C     0.54239   0.83109   0.92180   0.00000  Uiso   1.00
H1389  H     0.55842   0.75623   0.57547   0.00000  Uiso   1.00
H1390  H     0.35904   0.87416   0.89697   0.00000  Uiso   1.00
H1391  H     0.42640   0.77987   0.53783   0.00000  Uiso   1.00
H1392  H     0.37855   0.80198   0.53525   0.00000  Uiso   1.00
H1393  H     0.38724   0.79449   0.58786   0.00000  Uiso   1.00
H1394  H     0.40908   0.95018   0.50855   0.00000  Uiso   1.00
H1395  H     0.41192   0.92864   0.55908   0.00000  Uiso   1.00
H1396  H     0.36146   0.93990   0.55294   0.00000  Uiso   1.00
H1397  H     0.60420   0.88864   0.91854   0.00000  Uiso   1.00
H1398  H     0.56091   0.90861   0.90288   0.00000  Uiso   1.00
H1399  H     0.60958   0.89820   0.86171   0.00000  Uiso   1.00
H1400  H     0.65203   0.81349   0.79339   0.00000  Uiso   1.00
H1401  H     0.36201   0.88856   0.62536   0.00000  Uiso   1.00
H1402  H     0.53886   0.66984   0.71321   0.00000  Uiso   1.00
H1403  H     0.57979   0.75112   0.99458   0.00000  Uiso   1.00
H1404  H     0.38485   0.69347   0.85376   0.00000  Uiso   1.00
H1405  H     0.61681   0.75032   0.83669   0.00000  Uiso   1.00
H1406  H     0.54297   0.93651   0.61570   0.00000  Uiso   1.00
H1407  H     0.35239   0.85656   0.95094   0.00000  Uiso   1.00
H1408  H     0.38760   0.83246   0.90150   0.00000  Uiso   1.00
O1409  O     0.50000   0.83333   0.75000   0.00000  Uiso   1.00
O1410  O     0.48784   0.79304   0.65459   0.00000  Uiso   1.00
O1411  O     0.46274   0.87058   0.84968   0.00000  Uiso   1.00
O1412  O     0.54157   0.84425   0.64606   0.00000  Uiso   1.00
O1413  O     0.50785   0.82546   0.84968   0.00000  Uiso   1.00
O1414  O     0.40708   0.96524   0.78793   0.00000  Uiso   1.00
O1415  O     0.44952   0.97825   0.84358   0.00000  Uiso   1.00
O1416  O     0.41042   0.70473   0.83101   0.00000  Uiso   1.00
O1417  O     0.63791   0.78144   0.91605   0.00000  Uiso   1.00
O1418  O     0.57976   0.72427   0.91774   0.00000  Uiso   1.00
O1419  O     0.59821   0.77177   0.85280   0.00000  Uiso   1.00
O1420  O     0.51264   0.74686   0.78214   0.00000  Uiso   1.00
O1421  O     0.49866   0.91746   0.54995   0.00000  Uiso   1.00
O1422  O     0.46772   0.88966   0.62312   0.00000  Uiso   1.00
O1423  O     0.55027   0.91023   0.59770   0.00000  Uiso   1.00
O1424  O     0.41058   0.89230   0.92396   0.00000  Uiso   1.00
O1425  O     0.42598   0.84350   0.55625   0.00000  Uiso   1.00
O1426  O     0.38390   0.88799   0.51526   0.00000  Uiso   1.00
O1427  O     0.56869   0.84629   0.88272   0.00000  Uiso   1.00
O1428  O     0.38909   0.90301   0.70310   0.00000  Uiso   1.00
O1429  O     0.39486   0.83452   0.66221   0.00000  Uiso   1.00
O1430  O     0.33866   0.87839   0.65087   0.00000  Uiso   1.00
O1431  O     0.47965   0.92751   0.77014   0.00000  Uiso   1.00
O1432  O     0.40745   0.79958   0.73413   0.00000  Uiso   1.00
O1433  O     0.60026   0.85939   0.71361   0.00000  Uiso   1.00
O1434  O     0.40405   0.85544   0.78213   0.00000  Uiso   1.00
O1435  O     0.58824   0.81892   0.77014   0.00000  Uiso   1.00
O1436  O     0.47093   0.73610   0.73413   0.00000  Uiso   1.00
O1437  O     0.53678   0.92286   0.71361   0.00000  Uiso   1.00
S1438  S     0.43666   0.99677   0.80787   0.00000  Uiso   1.00
S1439  S     0.59448   0.76861   0.90714   0.00000  Uiso   1.00
S1440  S     0.50523   0.89000   0.58244   0.00000  Uiso   1.00
S1441  S     0.36411   0.86494   0.68655   0.00000  Uiso   1.00
Zn1442 Zn    0.52672   0.80661   0.78734   0.00000  Uiso   1.00
Zn1443 Zn    0.46713   0.79124   0.71876   0.00000  Uiso   1.00
Zn1444 Zn    0.54389   0.86442   0.70657   0.00000  Uiso   1.00
Zn1445 Zn    0.46226   0.87106   0.78734   0.00000  Uiso   1.00
C1446  C     0.71933   0.82620   0.76070   0.00000  Uiso   1.00
C1447  C     0.84482   0.83802   0.55834   0.00000  Uiso   1.00
C1448  C     0.88032   0.77715   0.55788   0.00000  Uiso   1.00
C1449  C     0.94758   0.84028   0.73948   0.00000  Uiso   1.00
C1450  C     0.80811   0.85968   0.92029   0.00000  Uiso   1.00
C1451  C     0.99398   0.84185   0.73331   0.00000  Uiso   1.00
C1452  C     0.67432   0.82561   0.76382   0.00000  Uiso   1.00
C1453  C     0.84535   0.98898   0.73828   0.00000  Uiso   1.00
C1454  C     0.81670   0.67957   0.76551   0.00000  Uiso   1.00
C1455  C     0.82351   0.72282   0.75951   0.00000  Uiso   1.00
C1456  C     0.84276   0.94454   0.74051   0.00000  Uiso   1.00
C1457  C     0.75600   0.87427   0.99158   0.00000  Uiso   1.00
C1458  C     0.85138   0.81570   0.62946   0.00000  Uiso   1.00
C1459  C     0.81626   0.85242   0.87091   0.00000  Uiso   1.00
C1460  C     0.89173   0.77377   0.51142   0.00000  Uiso   1.00
C1461  C     0.85828   0.81000   0.58131   0.00000  Uiso   1.00
C1462  C     0.76926   0.87546   0.94508   0.00000  Uiso   1.00
C1463  C     0.70944   0.86224   0.91845   0.00000  Uiso   1.00
C1464  C     0.73711   0.80322   0.55362   0.00000  Uiso   1.00
C1465  C     0.72587   0.92842   0.53457   0.00000  Uiso   1.00
C1466  C     0.91961   0.88723   0.89248   0.00000  Uiso   1.00
C1467  C     0.77888   0.85412   0.51317   0.00000  Uiso   1.00
C1468  C     0.82055   0.84361   0.99045   0.00000  Uiso   1.00
C1469  C     0.83518   0.84561   0.94358   0.00000  Uiso   1.00
C1470  C     0.84661   0.82753   0.51274   0.00000  Uiso   1.00
C1471  C     0.87597   0.79977   0.98808   0.00000  Uiso   1.00
C1472  C     0.89032   0.80124   0.94134   0.00000  Uiso   1.00
C1473  C     0.87572   0.83109   0.92180   0.00000  Uiso   1.00
H1474  H     0.89175   0.75623   0.57547   0.00000  Uiso   1.00
H1475  H     0.69237   0.87416   0.89697   0.00000  Uiso   1.00
H1476  H     0.75974   0.77987   0.53783   0.00000  Uiso   1.00
H1477  H     0.71189   0.80198   0.53525   0.00000  Uiso   1.00
H1478  H     0.72058   0.79449   0.58786   0.00000  Uiso   1.00
H1479  H     0.74241   0.95018   0.50855   0.00000  Uiso   1.00
H1480  H     0.74525   0.92864   0.55908   0.00000  Uiso   1.00
H1481  H     0.69480   0.93990   0.55294   0.00000  Uiso   1.00
H1482  H     0.93753   0.88864   0.91854   0.00000  Uiso   1.00
H1483  H     0.89424   0.90861   0.90288   0.00000  Uiso   1.00
H1484  H     0.94292   0.89820   0.86171   0.00000  Uiso   1.00
H1485  H     0.98537   0.81349   0.79339   0.00000  Uiso   1.00
H1486  H     0.69534   0.88856   0.62536   0.00000  Uiso   1.00
H1487  H     0.87220   0.66984   0.71321   0.00000  Uiso   1.00
H1488  H     0.91313   0.75112   0.99458   0.00000  Uiso   1.00
H1489  H     0.71819   0.69347   0.85376   0.00000  Uiso   1.00
H1490  H     0.95014   0.75032   0.83669   0.00000  Uiso   1.00
H1491  H     0.87630   0.93651   0.61570   0.00000  Uiso   1.00
H1492  H     0.68572   0.85656   0.95094   0.00000  Uiso   1.00
H1493  H     0.72093   0.83246   0.90150   0.00000  Uiso   1.00
O1494  O     0.83333   0.83333   0.75000   0.00000  Uiso   1.00
O1495  O     0.82118   0.79304   0.65459   0.00000  Uiso   1.00
O1496  O     0.79607   0.87058   0.84968   0.00000  Uiso   1.00
O1497  O     0.87491   0.84425   0.64606   0.00000  Uiso   1.00
O1498  O     0.84118   0.82546   0.84968   0.00000  Uiso   1.00
O1499  O     0.74042   0.96524   0.78793   0.00000  Uiso   1.00
O1500  O     0.78285   0.97825   0.84358   0.00000  Uiso   1.00
O1501  O     0.74375   0.70473   0.83101   0.00000  Uiso   1.00
O1502  O     0.97124   0.78144   0.91605   0.00000  Uiso   1.00
O1503  O     0.91309   0.72427   0.91774   0.00000  Uiso   1.00
O1504  O     0.93154   0.77177   0.85280   0.00000  Uiso   1.00
O1505  O     0.84597   0.74686   0.78214   0.00000  Uiso   1.00
O1506  O     0.83200   0.91746   0.54995   0.00000  Uiso   1.00
O1507  O     0.80106   0.88966   0.62312   0.00000  Uiso   1.00
O1508  O     0.88360   0.91023   0.59770   0.00000  Uiso   1.00
O1509  O     0.74391   0.89230   0.92396   0.00000  Uiso   1.00
O1510  O     0.75931   0.84350   0.55625   0.00000  Uiso   1.00
O1511  O     0.71724   0.88799   0.51526   0.00000  Uiso   1.00
O1512  O     0.90203   0.84629   0.88272   0.00000  Uiso   1.00
O1513  O     0.72242   0.90301   0.70310   0.00000  Uiso   1.00
O1514  O     0.72819   0.83452   0.66221   0.00000  Uiso   1.00
O1515  O     0.67199   0.87839   0.65087   0.00000  Uiso   1.00
O1516  O     0.81298   0.92751   0.77014   0.00000  Uiso   1.00
O1517  O     0.74078   0.79958   0.73413   0.00000  Uiso   1.00
O1518  O     0.93360   0.85939   0.71361   0.00000  Uiso   1.00
O1519  O     0.73738   0.85544   0.78213   0.00000  Uiso   1.00
O1520  O     0.92158   0.81892   0.77014   0.00000  Uiso   1.00
O1521  O     0.80426   0.73610   0.73413   0.00000  Uiso   1.00
O1522  O     0.87012   0.92286   0.71361   0.00000  Uiso   1.00
S1523  S     0.76999   0.99677   0.80787   0.00000  Uiso   1.00
S1524  S     0.92781   0.76861   0.90714   0.00000  Uiso   1.00
S1525  S     0.83856   0.89000   0.58244   0.00000  Uiso   1.00
S1526  S     0.69745   0.86494   0.68655   0.00000  Uiso   1.00
Zn1527 Zn    0.86005   0.80661   0.78734   0.00000  Uiso   1.00
Zn1528 Zn    0.80046   0.79124   0.71876   0.00000  Uiso   1.00
Zn1529 Zn    0.87723   0.86442   0.70657   0.00000  Uiso   1.00
Zn1530 Zn    0.79560   0.87106   0.78734   0.00000  Uiso   1.00
loop_
_geom_bond_atom_site_label_1
_geom_bond_atom_site_label_2
_geom_bond_distance
_geom_bond_site_symmetry_2
_ccdc_geom_bond_type
C1     O74     1.267   .     A
C1     O72     1.272   .     A
C1     C7      1.435   .     S
C2     C16     1.406   .     A
C2     C25     1.411   .     A
C2     S80     1.790   .     S
C3     H29     1.084   .     S
C3     C15     1.390   .     A
C3     C16     1.396   .     A
C4     O75     1.289   .     A
C4     C6      1.460   .     S
C4     O73     1.282   .     A
C5     C17     1.420   .     A
C5     C14     1.487   .     S
C5     C24     1.432   .     A
C6     C92     1.340   .     S
C6     S166    1.782   .     S
C7     C176    1.340   1_455 S
C7     H210    1.083   1_455 S
C8     C11     1.450   .     S
C8     C264    1.349   .     S
C8     H297    1.089   .     S
C9     C10     1.424   .     S
C9     C518    1.349   1_545 S
C9     S588    1.780   1_545 S
C10    O76     1.277   .     A
C10    O60     1.278   .     A
C11    O71     1.256   .     A
C11    O77     1.277   .     A
C12    C17     1.400   .     A
C12    C787    1.396   .     S
C12    O831    1.382   .     S
C13    O52     1.273   .     A
C13    O50     1.278   .     A
C13    C16     1.451   .     S
C14    O51     1.287   .     A
C14    O53     1.282   .     A
C15    C791    1.407   1_554 S
C15    H808    1.079   1_554 S
C17    O64     1.386   .     S
C18    H47     1.111   .     S
C18    H30     1.110   .     S
C18    H48     1.114   .     S
C18    O64     1.413   .     S
C19    H31     1.113   .     S
C19    H32     1.114   .     S
C19    H33     1.107   .     S
C19    O65     1.411   .     S
C20    O66     1.409   .     S
C20    H35     1.113   .     S
C20    H34     1.114   .     S
C20    H36     1.109   .     S
C21    H38     1.112   .     S
C21    O67     1.409   .     S
C21    H39     1.109   .     S
C21    H37     1.114   .     S
C22    O65     1.383   .     S
C22    C777    1.396   1_554 S
C22    C788    1.416   1_554 S
C23    C24     1.416   .     A
C23    C787    1.416   .     S
C23    C790    1.416   .     S
C24    C28     1.427   .     A
C25    C788    1.416   1_554 S
C25    C791    1.417   1_554 S
C26    C27     1.410   .     A
C26    C790    1.417   .     S
C26    C780    1.407   .     S
C27    S79     1.776   .     S
C27    C28     1.404   .     A
C28    O67     1.384   .     S
H40    C92     1.083   .     S
H41    O70     0.990   .     S
H42    C518    1.089   1_545 S
H43    C780    1.079   .     S
H44    O56     0.991   .     S
H45    O59     0.991   .     S
H46    O63     0.991   .     S
O49    Zn84    1.938   .     S
O49    Zn85    1.923   .     S
O49    Zn82    1.967   .     S
O49    Zn83    1.952   .     S
O50    Zn83    1.936   .     S
O51    Zn85    1.951   .     S
O52    Zn84    1.943   .     S
O53    Zn82    1.929   .     S
O54    S78     1.504   .     D
O55    S78     1.504   .     D
O56    S588    1.683   1_545 S
O57    S79     1.502   .     D
O58    S79     1.504   .     D
O59    S79     1.680   .     S
O60    Zn82    1.937   .     S
O61    S80     1.503   .     D
O62    S80     1.501   .     D
O63    S80     1.682   .     S
O66    C777    1.382   1_554 S
O68    S81     1.503   .     D
O69    S81     1.502   .     D
O70    S81     1.682   .     S
O71    Zn85    1.942   .     S
O72    Zn83    1.916   .     S
O73    Zn84    1.932   .     S
O74    Zn85    1.931   .     S
O75    Zn82    1.918   .     S
O76    Zn83    1.944   .     S
O77    Zn84    1.934   .     S
S78    O311    1.683   .     S
S78    C264    1.780   .     S
S81    C176    1.782   1_455 S
C86    O159    1.267   .     A
C86    O157    1.272   .     A
C86    C92     1.435   .     S
C87    C101    1.406   .     A
C87    C110    1.411   .     A
C87    S165    1.790   .     S
C88    H114    1.084   .     S
C88    C100    1.390   .     A
C88    C101    1.396   .     A
C89    O160    1.289   .     A
C89    C91     1.460   .     S
C89    O158    1.282   .     A
C90    C102    1.420   .     A
C90    C99     1.487   .     S
C90    C109    1.432   .     A
C91    C177    1.340   .     S
C91    S251    1.782   .     S
C93    C96     1.450   .     S
C93    C349    1.349   .     S
C93    H382    1.089   .     S
C94    C95     1.424   .     S
C94    C603    1.349   1_545 S
C94    S673    1.780   1_545 S
C95    O161    1.277   .     A
C95    O145    1.278   .     A
C96    O156    1.256   .     A
C96    O162    1.277   .     A
C97    C102    1.400   .     A
C97    C872    1.396   .     S
C97    O916    1.382   .     S
C98    O137    1.273   .     A
C98    O135    1.278   .     A
C98    C101    1.451   .     S
C99    O136    1.287   .     A
C99    O138    1.282   .     A
C100   C876    1.407   1_554 S
C100   H893    1.079   1_554 S
C102   O149    1.386   .     S
C103   H132    1.111   .     S
C103   H115    1.110   .     S
C103   H133    1.114   .     S
C103   O149    1.413   .     S
C104   H116    1.113   .     S
C104   H117    1.114   .     S
C104   H118    1.107   .     S
C104   O150    1.411   .     S
C105   O151    1.409   .     S
C105   H120    1.113   .     S
C105   H119    1.114   .     S
C105   H121    1.109   .     S
C106   H123    1.112   .     S
C106   O152    1.409   .     S
C106   H124    1.109   .     S
C106   H122    1.114   .     S
C107   O150    1.383   .     S
C107   C862    1.396   1_554 S
C107   C873    1.416   1_554 S
C108   C109    1.416   .     A
C108   C872    1.416   .     S
C108   C875    1.416   .     S
C109   C113    1.427   .     A
C110   C873    1.416   1_554 S
C110   C876    1.417   1_554 S
C111   C112    1.410   .     A
C111   C875    1.417   .     S
C111   C865    1.407   .     S
C112   S164    1.776   .     S
C112   C113    1.404   .     A
C113   O152    1.384   .     S
H125   C177    1.083   .     S
H126   O155    0.990   .     S
H127   C603    1.089   1_545 S
H128   C865    1.079   .     S
H129   O141    0.991   .     S
H130   O144    0.991   .     S
H131   O148    0.991   .     S
O134   Zn169   1.938   .     S
O134   Zn170   1.923   .     S
O134   Zn167   1.967   .     S
O134   Zn168   1.952   .     S
O135   Zn168   1.936   .     S
O136   Zn170   1.951   .     S
O137   Zn169   1.943   .     S
O138   Zn167   1.929   .     S
O139   S163    1.504   .     D
O140   S163    1.504   .     D
O141   S673    1.683   1_545 S
O142   S164    1.502   .     D
O143   S164    1.504   .     D
O144   S164    1.680   .     S
O145   Zn167   1.937   .     S
O146   S165    1.503   .     D
O147   S165    1.501   .     D
O148   S165    1.682   .     S
O151   C862    1.382   1_554 S
O153   S166    1.503   .     D
O154   S166    1.502   .     D
O155   S166    1.682   .     S
O156   Zn170   1.942   .     S
O157   Zn168   1.916   .     S
O158   Zn169   1.932   .     S
O159   Zn170   1.931   .     S
O160   Zn167   1.918   .     S
O161   Zn168   1.944   .     S
O162   Zn169   1.934   .     S
S163   O396    1.683   .     S
S163   C349    1.780   .     S
C171   O244    1.267   .     A
C171   O242    1.272   .     A
C171   C177    1.435   .     S
C172   C186    1.406   .     A
C172   C195    1.411   .     A
C172   S250    1.790   .     S
C173   H199    1.084   .     S
C173   C185    1.390   .     A
C173   C186    1.396   .     A
C174   O245    1.289   .     A
C174   C176    1.460   .     S
C174   O243    1.282   .     A
C175   C187    1.420   .     A
C175   C184    1.487   .     S
C175   C194    1.432   .     A
C176   C7      1.340   1_655 S
C176   S81     1.782   1_655 S
C178   C181    1.450   .     S
C178   C434    1.349   .     S
C178   H467    1.089   .     S
C179   C180    1.424   .     S
C179   C688    1.349   1_545 S
C179   S758    1.780   1_545 S
C180   O246    1.277   .     A
C180   O230    1.278   .     A
C181   O241    1.256   .     A
C181   O247    1.277   .     A
C182   C187    1.400   .     A
C182   C957    1.396   .     S
C182   O1001   1.382   .     S
C183   O222    1.273   .     A
C183   O220    1.278   .     A
C183   C186    1.451   .     S
C184   O221    1.287   .     A
C184   O223    1.282   .     A
C185   C961    1.407   1_554 S
C185   H978    1.079   1_554 S
C187   O234    1.386   .     S
C188   H217    1.111   .     S
C188   H200    1.110   .     S
C188   H218    1.114   .     S
C188   O234    1.413   .     S
C189   H201    1.113   .     S
C189   H202    1.114   .     S
C189   H203    1.107   .     S
C189   O235    1.411   .     S
C190   O236    1.409   .     S
C190   H205    1.113   .     S
C190   H204    1.114   .     S
C190   H206    1.109   .     S
C191   H208    1.112   .     S
C191   O237    1.409   .     S
C191   H209    1.109   .     S
C191   H207    1.114   .     S
C192   O235    1.383   .     S
C192   C947    1.396   1_554 S
C192   C958    1.416   1_554 S
C193   C194    1.416   .     A
C193   C957    1.416   .     S
C193   C960    1.416   .     S
C194   C198    1.427   .     A
C195   C958    1.416   1_554 S
C195   C961    1.417   1_554 S
C196   C197    1.410   .     A
C196   C960    1.417   .     S
C196   C950    1.407   .     S
C197   S249    1.776   .     S
C197   C198    1.404   .     A
C198   O237    1.384   .     S
H210   C7      1.083   1_655 S
H211   O240    0.990   .     S
H212   C688    1.089   1_545 S
H213   C950    1.079   .     S
H214   O226    0.991   .     S
H215   O229    0.991   .     S
H216   O233    0.991   .     S
O219   Zn254   1.938   .     S
O219   Zn255   1.923   .     S
O219   Zn252   1.967   .     S
O219   Zn253   1.952   .     S
O220   Zn253   1.936   .     S
O221   Zn255   1.951   .     S
O222   Zn254   1.943   .     S
O223   Zn252   1.929   .     S
O224   S248    1.504   .     D
O225   S248    1.504   .     D
O226   S758    1.683   1_545 S
O227   S249    1.502   .     D
O228   S249    1.504   .     D
O229   S249    1.680   .     S
O230   Zn252   1.937   .     S
O231   S250    1.503   .     D
O232   S250    1.501   .     D
O233   S250    1.682   .     S
O236   C947    1.382   1_554 S
O238   S251    1.503   .     D
O239   S251    1.502   .     D
O240   S251    1.682   .     S
O241   Zn255   1.942   .     S
O242   Zn253   1.916   .     S
O243   Zn254   1.932   .     S
O244   Zn255   1.931   .     S
O245   Zn252   1.918   .     S
O246   Zn253   1.944   .     S
O247   Zn254   1.934   .     S
S248   O481    1.683   .     S
S248   C434    1.780   .     S
C256   O329    1.267   .     A
C256   O327    1.272   .     A
C256   C262    1.435   .     S
C257   C271    1.406   .     A
C257   C280    1.411   .     A
C257   S335    1.790   .     S
C258   H284    1.084   .     S
C258   C270    1.390   .     A
C258   C271    1.396   .     A
C259   O330    1.289   .     A
C259   C261    1.460   .     S
C259   O328    1.282   .     A
C260   C272    1.420   .     A
C260   C269    1.487   .     S
C260   C279    1.432   .     A
C261   C347    1.340   .     S
C261   S421    1.782   .     S
C262   C431    1.340   1_455 S
C262   H465    1.083   1_455 S
C263   C266    1.450   .     S
C263   C519    1.349   .     S
C263   H552    1.089   .     S
C264   C265    1.424   .     S
C265   O331    1.277   .     A
C265   O315    1.278   .     A
C266   O326    1.256   .     A
C266   O332    1.277   .     A
C267   C272    1.400   .     A
C267   C1042   1.396   .     S
C267   O1086   1.382   .     S
C268   O307    1.273   .     A
C268   O305    1.278   .     A
C268   C271    1.451   .     S
C269   O306    1.287   .     A
C269   O308    1.282   .     A
C270   C1046   1.407   1_554 S
C270   H1063   1.079   1_554 S
C272   O319    1.386   .     S
C273   H302    1.111   .     S
C273   H285    1.110   .     S
C273   H303    1.114   .     S
C273   O319    1.413   .     S
C274   H286    1.113   .     S
C274   H287    1.114   .     S
C274   H288    1.107   .     S
C274   O320    1.411   .     S
C275   O321    1.409   .     S
C275   H290    1.113   .     S
C275   H289    1.114   .     S
C275   H291    1.109   .     S
C276   H293    1.112   .     S
C276   O322    1.409   .     S
C276   H294    1.109   .     S
C276   H292    1.114   .     S
C277   O320    1.383   .     S
C277   C1032   1.396   1_554 S
C277   C1043   1.416   1_554 S
C278   C279    1.416   .     A
C278   C1042   1.416   .     S
C278   C1045   1.416   .     S
C279   C283    1.427   .     A
C280   C1043   1.416   1_554 S
C280   C1046   1.417   1_554 S
C281   C282    1.410   .     A
C281   C1045   1.417   .     S
C281   C1035   1.407   .     S
C282   S334    1.776   .     S
C282   C283    1.404   .     A
C283   O322    1.384   .     S
H295   C347    1.083   .     S
H296   O325    0.990   .     S
H298   C1035   1.079   .     S
H299   O311    0.991   .     S
H300   O314    0.991   .     S
H301   O318    0.991   .     S
O304   Zn339   1.938   .     S
O304   Zn340   1.923   .     S
O304   Zn337   1.967   .     S
O304   Zn338   1.952   .     S
O305   Zn338   1.936   .     S
O306   Zn340   1.951   .     S
O307   Zn339   1.943   .     S
O308   Zn337   1.929   .     S
O309   S333    1.504   .     D
O310   S333    1.504   .     D
O312   S334    1.502   .     D
O313   S334    1.504   .     D
O314   S334    1.680   .     S
O315   Zn337   1.937   .     S
O316   S335    1.503   .     D
O317   S335    1.501   .     D
O318   S335    1.682   .     S
O321   C1032   1.382   1_554 S
O323   S336    1.503   .     D
O324   S336    1.502   .     D
O325   S336    1.682   .     S
O326   Zn340   1.942   .     S
O327   Zn338   1.916   .     S
O328   Zn339   1.932   .     S
O329   Zn340   1.931   .     S
O330   Zn337   1.918   .     S
O331   Zn338   1.944   .     S
O332   Zn339   1.934   .     S
S333   O566    1.683   .     S
S333   C519    1.780   .     S
S336   C431    1.782   1_455 S
C341   O414    1.267   .     A
C341   O412    1.272   .     A
C341   C347    1.435   .     S
C342   C356    1.406   .     A
C342   C365    1.411   .     A
C342   S420    1.790   .     S
C343   H369    1.084   .     S
C343   C355    1.390   .     A
C343   C356    1.396   .     A
C344   O415    1.289   .     A
C344   C346    1.460   .     S
C344   O413    1.282   .     A
C345   C357    1.420   .     A
C345   C354    1.487   .     S
C345   C364    1.432   .     A
C346   C432    1.340   .     S
C346   S506    1.782   .     S
C348   C351    1.450   .     S
C348   C604    1.349   .     S
C348   H637    1.089   .     S
C349   C350    1.424   .     S
C350   O416    1.277   .     A
C350   O400    1.278   .     A
C351   O411    1.256   .     A
C351   O417    1.277   .     A
C352   C357    1.400   .     A
C352   C1127   1.396   .     S
C352   O1171   1.382   .     S
C353   O392    1.273   .     A
C353   O390    1.278   .     A
C353   C356    1.451   .     S
C354   O391    1.287   .     A
C354   O393    1.282   .     A
C355   C1131   1.407   1_554 S
C355   H1148   1.079   1_554 S
C357   O404    1.386   .     S
C358   H387    1.111   .     S
C358   H370    1.110   .     S
C358   H388    1.114   .     S
C358   O404    1.413   .     S
C359   H371    1.113   .     S
C359   H372    1.114   .     S
C359   H373    1.107   .     S
C359   O405    1.411   .     S
C360   O406    1.409   .     S
C360   H375    1.113   .     S
C360   H374    1.114   .     S
C360   H376    1.109   .     S
C361   H378    1.112   .     S
C361   O407    1.409   .     S
C361   H379    1.109   .     S
C361   H377    1.114   .     S
C362   O405    1.383   .     S
C362   C1117   1.396   1_554 S
C362   C1128   1.416   1_554 S
C363   C364    1.416   .     A
C363   C1127   1.416   .     S
C363   C1130   1.416   .     S
C364   C368    1.427   .     A
C365   C1128   1.416   1_554 S
C365   C1131   1.417   1_554 S
C366   C367    1.410   .     A
C366   C1130   1.417   .     S
C366   C1120   1.407   .     S
C367   S419    1.776   .     S
C367   C368    1.404   .     A
C368   O407    1.384   .     S
H380   C432    1.083   .     S
H381   O410    0.990   .     S
H383   C1120   1.079   .     S
H384   O396    0.991   .     S
H385   O399    0.991   .     S
H386   O403    0.991   .     S
O389   Zn424   1.938   .     S
O389   Zn425   1.923   .     S
O389   Zn422   1.967   .     S
O389   Zn423   1.952   .     S
O390   Zn423   1.936   .     S
O391   Zn425   1.951   .     S
O392   Zn424   1.943   .     S
O393   Zn422   1.929   .     S
O394   S418    1.504   .     D
O395   S418    1.504   .     D
O397   S419    1.502   .     D
O398   S419    1.504   .     D
O399   S419    1.680   .     S
O400   Zn422   1.937   .     S
O401   S420    1.503   .     D
O402   S420    1.501   .     D
O403   S420    1.682   .     S
O406   C1117   1.382   1_554 S
O408   S421    1.503   .     D
O409   S421    1.502   .     D
O410   S421    1.682   .     S
O411   Zn425   1.942   .     S
O412   Zn423   1.916   .     S
O413   Zn424   1.932   .     S
O414   Zn425   1.931   .     S
O415   Zn422   1.918   .     S
O416   Zn423   1.944   .     S
O417   Zn424   1.934   .     S
S418   O651    1.683   .     S
S418   C604    1.780   .     S
C426   O499    1.267   .     A
C426   O497    1.272   .     A
C426   C432    1.435   .     S
C427   C441    1.406   .     A
C427   C450    1.411   .     A
C427   S505    1.790   .     S
C428   H454    1.084   .     S
C428   C440    1.390   .     A
C428   C441    1.396   .     A
C429   O500    1.289   .     A
C429   C431    1.460   .     S
C429   O498    1.282   .     A
C430   C442    1.420   .     A
C430   C439    1.487   .     S
C430   C449    1.432   .     A
C431   C262    1.340   1_655 S
C431   S336    1.782   1_655 S
C433   C436    1.450   .     S
C433   C689    1.349   .     S
C433   H722    1.089   .     S
C434   C435    1.424   .     S
C435   O501    1.277   .     A
C435   O485    1.278   .     A
C436   O496    1.256   .     A
C436   O502    1.277   .     A
C437   C442    1.400   .     A
C437   C1212   1.396   .     S
C437   O1256   1.382   .     S
C438   O477    1.273   .     A
C438   O475    1.278   .     A
C438   C441    1.451   .     S
C439   O476    1.287   .     A
C439   O478    1.282   .     A
C440   C1216   1.407   1_554 S
C440   H1233   1.079   1_554 S
C442   O489    1.386   .     S
C443   H472    1.111   .     S
C443   H455    1.110   .     S
C443   H473    1.114   .     S
C443   O489    1.413   .     S
C444   H456    1.113   .     S
C444   H457    1.114   .     S
C444   H458    1.107   .     S
C444   O490    1.411   .     S
C445   O491    1.409   .     S
C445   H460    1.113   .     S
C445   H459    1.114   .     S
C445   H461    1.109   .     S
C446   H463    1.112   .     S
C446   O492    1.409   .     S
C446   H464    1.109   .     S
C446   H462    1.114   .     S
C447   O490    1.383   .     S
C447   C1202   1.396   1_554 S
C447   C1213   1.416   1_554 S
C448   C449    1.416   .     A
C448   C1212   1.416   .     S
C448   C1215   1.416   .     S
C449   C453    1.427   .     A
C450   C1213   1.416   1_554 S
C450   C1216   1.417   1_554 S
C451   C452    1.410   .     A
C451   C1215   1.417   .     S
C451   C1205   1.407   .     S
C452   S504    1.776   .     S
C452   C453    1.404   .     A
C453   O492    1.384   .     S
H465   C262    1.083   1_655 S
H466   O495    0.990   .     S
H468   C1205   1.079   .     S
H469   O481    0.991   .     S
H470   O484    0.991   .     S
H471   O488    0.991   .     S
O474   Zn509   1.938   .     S
O474   Zn510   1.923   .     S
O474   Zn507   1.967   .     S
O474   Zn508   1.952   .     S
O475   Zn508   1.936   .     S
O476   Zn510   1.951   .     S
O477   Zn509   1.943   .     S
O478   Zn507   1.929   .     S
O479   S503    1.504   .     D
O480   S503    1.504   .     D
O482   S504    1.502   .     D
O483   S504    1.504   .     D
O484   S504    1.680   .     S
O485   Zn507   1.937   .     S
O486   S505    1.503   .     D
O487   S505    1.501   .     D
O488   S505    1.682   .     S
O491   C1202   1.382   1_554 S
O493   S506    1.503   .     D
O494   S506    1.502   .     D
O495   S506    1.682   .     S
O496   Zn510   1.942   .     S
O497   Zn508   1.916   .     S
O498   Zn509   1.932   .     S
O499   Zn510   1.931   .     S
O500   Zn507   1.918   .     S
O501   Zn508   1.944   .     S
O502   Zn509   1.934   .     S
S503   O736    1.683   .     S
S503   C689    1.780   .     S
C511   O584    1.267   .     A
C511   O582    1.272   .     A
C511   C517    1.435   .     S
C512   C526    1.406   .     A
C512   C535    1.411   .     A
C512   S590    1.790   .     S
C513   H539    1.084   .     S
C513   C525    1.390   .     A
C513   C526    1.396   .     A
C514   O585    1.289   .     A
C514   C516    1.460   .     S
C514   O583    1.282   .     A
C515   C527    1.420   .     A
C515   C524    1.487   .     S
C515   C534    1.432   .     A
C516   C602    1.340   .     S
C516   S676    1.782   .     S
C517   C686    1.340   1_455 S
C517   H720    1.083   1_455 S
C518   C521    1.450   .     S
C518   C9      1.349   1_565 S
C518   H42     1.089   1_565 S
C519   C520    1.424   .     S
C520   O586    1.277   .     A
C520   O570    1.278   .     A
C521   O581    1.256   .     A
C521   O587    1.277   .     A
C522   C527    1.400   .     A
C522   C1297   1.396   .     S
C522   O1341   1.382   .     S
C523   O562    1.273   .     A
C523   O560    1.278   .     A
C523   C526    1.451   .     S
C524   O561    1.287   .     A
C524   O563    1.282   .     A
C525   C1301   1.407   1_554 S
C525   H1318   1.079   1_554 S
C527   O574    1.386   .     S
C528   H557    1.111   .     S
C528   H540    1.110   .     S
C528   H558    1.114   .     S
C528   O574    1.413   .     S
C529   H541    1.113   .     S
C529   H542    1.114   .     S
C529   H543    1.107   .     S
C529   O575    1.411   .     S
C530   O576    1.409   .     S
C530   H545    1.113   .     S
C530   H544    1.114   .     S
C530   H546    1.109   .     S
C531   H548    1.112   .     S
C531   O577    1.409   .     S
C531   H549    1.109   .     S
C531   H547    1.114   .     S
C532   O575    1.383   .     S
C532   C1287   1.396   1_554 S
C532   C1298   1.416   1_554 S
C533   C534    1.416   .     A
C533   C1297   1.416   .     S
C533   C1300   1.416   .     S
C534   C538    1.427   .     A
C535   C1298   1.416   1_554 S
C535   C1301   1.417   1_554 S
C536   C537    1.410   .     A
C536   C1300   1.417   .     S
C536   C1290   1.407   .     S
C537   S589    1.776   .     S
C537   C538    1.404   .     A
C538   O577    1.384   .     S
H550   C602    1.083   .     S
H551   O580    0.990   .     S
H553   C1290   1.079   .     S
H554   O566    0.991   .     S
H555   O569    0.991   .     S
H556   O573    0.991   .     S
O559   Zn594   1.938   .     S
O559   Zn595   1.923   .     S
O559   Zn592   1.967   .     S
O559   Zn593   1.952   .     S
O560   Zn593   1.936   .     S
O561   Zn595   1.951   .     S
O562   Zn594   1.943   .     S
O563   Zn592   1.929   .     S
O564   S588    1.504   .     D
O565   S588    1.504   .     D
O567   S589    1.502   .     D
O568   S589    1.504   .     D
O569   S589    1.680   .     S
O570   Zn592   1.937   .     S
O571   S590    1.503   .     D
O572   S590    1.501   .     D
O573   S590    1.682   .     S
O576   C1287   1.382   1_554 S
O578   S591    1.503   .     D
O579   S591    1.502   .     D
O580   S591    1.682   .     S
O581   Zn595   1.942   .     S
O582   Zn593   1.916   .     S
O583   Zn594   1.932   .     S
O584   Zn595   1.931   .     S
O585   Zn592   1.918   .     S
O586   Zn593   1.944   .     S
O587   Zn594   1.934   .     S
S588   O56     1.683   1_565 S
S588   C9      1.780   1_565 S
S591   C686    1.782   1_455 S
C596   O669    1.267   .     A
C596   O667    1.272   .     A
C596   C602    1.435   .     S
C597   C611    1.406   .     A
C597   C620    1.411   .     A
C597   S675    1.790   .     S
C598   H624    1.084   .     S
C598   C610    1.390   .     A
C598   C611    1.396   .     A
C599   O670    1.289   .     A
C599   C601    1.460   .     S
C599   O668    1.282   .     A
C600   C612    1.420   .     A
C600   C609    1.487   .     S
C600   C619    1.432   .     A
C601   C687    1.340   .     S
C601   S761    1.782   .     S
C603   C606    1.450   .     S
C603   C94     1.349   1_565 S
C603   H127    1.089   1_565 S
C604   C605    1.424   .     S
C605   O671    1.277   .     A
C605   O655    1.278   .     A
C606   O666    1.256   .     A
C606   O672    1.277   .     A
C607   C612    1.400   .     A
C607   C1382   1.396   .     S
C607   O1426   1.382   .     S
C608   O647    1.273   .     A
C608   O645    1.278   .     A
C608   C611    1.451   .     S
C609   O646    1.287   .     A
C609   O648    1.282   .     A
C610   C1386   1.407   1_554 S
C610   H1403   1.079   1_554 S
C612   O659    1.386   .     S
C613   H642    1.111   .     S
C613   H625    1.110   .     S
C613   H643    1.114   .     S
C613   O659    1.413   .     S
C614   H626    1.113   .     S
C614   H627    1.114   .     S
C614   H628    1.107   .     S
C614   O660    1.411   .     S
C615   O661    1.409   .     S
C615   H630    1.113   .     S
C615   H629    1.114   .     S
C615   H631    1.109   .     S
C616   H633    1.112   .     S
C616   O662    1.409   .     S
C616   H634    1.109   .     S
C616   H632    1.114   .     S
C617   O660    1.383   .     S
C617   C1372   1.396   1_554 S
C617   C1383   1.416   1_554 S
C618   C619    1.416   .     A
C618   C1382   1.416   .     S
C618   C1385   1.416   .     S
C619   C623    1.427   .     A
C620   C1383   1.416   1_554 S
C620   C1386   1.417   1_554 S
C621   C622    1.410   .     A
C621   C1385   1.417   .     S
C621   C1375   1.407   .     S
C622   S674    1.776   .     S
C622   C623    1.404   .     A
C623   O662    1.384   .     S
H635   C687    1.083   .     S
H636   O665    0.990   .     S
H638   C1375   1.079   .     S
H639   O651    0.991   .     S
H640   O654    0.991   .     S
H641   O658    0.991   .     S
O644   Zn679   1.938   .     S
O644   Zn680   1.923   .     S
O644   Zn677   1.967   .     S
O644   Zn678   1.952   .     S
O645   Zn678   1.936   .     S
O646   Zn680   1.951   .     S
O647   Zn679   1.943   .     S
O648   Zn677   1.929   .     S
O649   S673    1.504   .     D
O650   S673    1.504   .     D
O652   S674    1.502   .     D
O653   S674    1.504   .     D
O654   S674    1.680   .     S
O655   Zn677   1.937   .     S
O656   S675    1.503   .     D
O657   S675    1.501   .     D
O658   S675    1.682   .     S
O661   C1372   1.382   1_554 S
O663   S676    1.503   .     D
O664   S676    1.502   .     D
O665   S676    1.682   .     S
O666   Zn680   1.942   .     S
O667   Zn678   1.916   .     S
O668   Zn679   1.932   .     S
O669   Zn680   1.931   .     S
O670   Zn677   1.918   .     S
O671   Zn678   1.944   .     S
O672   Zn679   1.934   .     S
S673   O141    1.683   1_565 S
S673   C94     1.780   1_565 S
C681   O754    1.267   .     A
C681   O752    1.272   .     A
C681   C687    1.435   .     S
C682   C696    1.406   .     A
C682   C705    1.411   .     A
C682   S760    1.790   .     S
C683   H709    1.084   .     S
C683   C695    1.390   .     A
C683   C696    1.396   .     A
C684   O755    1.289   .     A
C684   C686    1.460   .     S
C684   O753    1.282   .     A
C685   C697    1.420   .     A
C685   C694    1.487   .     S
C685   C704    1.432   .     A
C686   C517    1.340   1_655 S
C686   S591    1.782   1_655 S
C688   C691    1.450   .     S
C688   C179    1.349   1_565 S
C688   H212    1.089   1_565 S
C689   C690    1.424   .     S
C690   O756    1.277   .     A
C690   O740    1.278   .     A
C691   O751    1.256   .     A
C691   O757    1.277   .     A
C692   C697    1.400   .     A
C692   C1467   1.396   .     S
C692   O1511   1.382   .     S
C693   O732    1.273   .     A
C693   O730    1.278   .     A
C693   C696    1.451   .     S
C694   O731    1.287   .     A
C694   O733    1.282   .     A
C695   C1471   1.407   1_554 S
C695   H1488   1.079   1_554 S
C697   O744    1.386   .     S
C698   H727    1.111   .     S
C698   H710    1.110   .     S
C698   H728    1.114   .     S
C698   O744    1.413   .     S
C699   H711    1.113   .     S
C699   H712    1.114   .     S
C699   H713    1.107   .     S
C699   O745    1.411   .     S
C700   O746    1.409   .     S
C700   H715    1.113   .     S
C700   H714    1.114   .     S
C700   H716    1.109   .     S
C701   H718    1.112   .     S
C701   O747    1.409   .     S
C701   H719    1.109   .     S
C701   H717    1.114   .     S
C702   O745    1.383   .     S
C702   C1457   1.396   1_554 S
C702   C1468   1.416   1_554 S
C703   C704    1.416   .     A
C703   C1467   1.416   .     S
C703   C1470   1.416   .     S
C704   C708    1.427   .     A
C705   C1468   1.416   1_554 S
C705   C1471   1.417   1_554 S
C706   C707    1.410   .     A
C706   C1470   1.417   .     S
C706   C1460   1.407   .     S
C707   S759    1.776   .     S
C707   C708    1.404   .     A
C708   O747    1.384   .     S
H720   C517    1.083   1_655 S
H721   O750    0.990   .     S
H723   C1460   1.079   .     S
H724   O736    0.991   .     S
H725   O739    0.991   .     S
H726   O743    0.991   .     S
O729   Zn764   1.938   .     S
O729   Zn765   1.923   .     S
O729   Zn762   1.967   .     S
O729   Zn763   1.952   .     S
O730   Zn763   1.936   .     S
O731   Zn765   1.951   .     S
O732   Zn764   1.943   .     S
O733   Zn762   1.929   .     S
O734   S758    1.504   .     D
O735   S758    1.504   .     D
O737   S759    1.502   .     D
O738   S759    1.504   .     D
O739   S759    1.680   .     S
O740   Zn762   1.937   .     S
O741   S760    1.503   .     D
O742   S760    1.501   .     D
O743   S760    1.682   .     S
O746   C1457   1.382   1_554 S
O748   S761    1.503   .     D
O749   S761    1.502   .     D
O750   S761    1.682   .     S
O751   Zn765   1.942   .     S
O752   Zn763   1.916   .     S
O753   Zn764   1.932   .     S
O754   Zn765   1.931   .     S
O755   Zn762   1.918   .     S
O756   Zn763   1.944   .     S
O757   Zn764   1.934   .     S
S758   O226    1.683   1_565 S
S758   C179    1.780   1_565 S
C766   O839    1.267   .     A
C766   O837    1.272   .     A
C766   C772    1.435   .     S
C767   C781    1.406   .     A
C767   C790    1.411   .     A
C767   S845    1.790   .     S
C768   H794    1.084   .     S
C768   C780    1.390   .     A
C768   C781    1.396   .     A
C769   O840    1.289   .     A
C769   C771    1.460   .     S
C769   O838    1.282   .     A
C770   C782    1.420   .     A
C770   C779    1.487   .     S
C770   C789    1.432   .     A
C771   C857    1.340   .     S
C771   S931    1.782   .     S
C772   C941    1.340   1_455 S
C772   H975    1.083   1_455 S
C773   C776    1.450   .     S
C773   C1029   1.349   .     S
C773   H1062   1.089   .     S
C774   C775    1.424   .     S
C774   C1283   1.349   1_545 S
C774   S1353   1.780   1_545 S
C775   O841    1.277   .     A
C775   O825    1.278   .     A
C776   O836    1.256   .     A
C776   O842    1.277   .     A
C777   C782    1.400   .     A
C777   C22     1.396   1_556 S
C777   O66     1.382   1_556 S
C778   O817    1.273   .     A
C778   O815    1.278   .     A
C778   C781    1.451   .     S
C779   O816    1.287   .     A
C779   O818    1.282   .     A
C782   O829    1.386   .     S
C783   H812    1.111   .     S
C783   H795    1.110   .     S
C783   H813    1.114   .     S
C783   O829    1.413   .     S
C784   H796    1.113   .     S
C784   H797    1.114   .     S
C784   H798    1.107   .     S
C784   O830    1.411   .     S
C785   O831    1.409   .     S
C785   H800    1.113   .     S
C785   H799    1.114   .     S
C785   H801    1.109   .     S
C786   H803    1.112   .     S
C786   O832    1.409   .     S
C786   H804    1.109   .     S
C786   H802    1.114   .     S
C787   O830    1.383   .     S
C788   C789    1.416   .     A
C788   C22     1.416   1_556 S
C788   C25     1.416   1_556 S
C789   C793    1.427   .     A
C791   C792    1.410   .     A
C791   C25     1.417   1_556 S
C791   C15     1.407   1_556 S
C792   S844    1.776   .     S
C792   C793    1.404   .     A
C793   O832    1.384   .     S
H805   C857    1.083   .     S
H806   O835    0.990   .     S
H807   C1283   1.089   1_545 S
H808   C15     1.079   1_556 S
H809   O821    0.991   .     S
H810   O824    0.991   .     S
H811   O828    0.991   .     S
O814   Zn849   1.938   .     S
O814   Zn850   1.923   .     S
O814   Zn847   1.967   .     S
O814   Zn848   1.952   .     S
O815   Zn848   1.936   .     S
O816   Zn850   1.951   .     S
O817   Zn849   1.943   .     S
O818   Zn847   1.929   .     S
O819   S843    1.504   .     D
O820   S843    1.504   .     D
O821   S1353   1.683   1_545 S
O822   S844    1.502   .     D
O823   S844    1.504   .     D
O824   S844    1.680   .     S
O825   Zn847   1.937   .     S
O826   S845    1.503   .     D
O827   S845    1.501   .     D
O828   S845    1.682   .     S
O833   S846    1.503   .     D
O834   S846    1.502   .     D
O835   S846    1.682   .     S
O836   Zn850   1.942   .     S
O837   Zn848   1.916   .     S
O838   Zn849   1.932   .     S
O839   Zn850   1.931   .     S
O840   Zn847   1.918   .     S
O841   Zn848   1.944   .     S
O842   Zn849   1.934   .     S
S843   O1076   1.683   .     S
S843   C1029   1.780   .     S
S846   C941    1.782   1_455 S
C851   O924    1.267   .     A
C851   O922    1.272   .     A
C851   C857    1.435   .     S
C852   C866    1.406   .     A
C852   C875    1.411   .     A
C852   S930    1.790   .     S
C853   H879    1.084   .     S
C853   C865    1.390   .     A
C853   C866    1.396   .     A
C854   O925    1.289   .     A
C854   C856    1.460   .     S
C854   O923    1.282   .     A
C855   C867    1.420   .     A
C855   C864    1.487   .     S
C855   C874    1.432   .     A
C856   C942    1.340   .     S
C856   S1016   1.782   .     S
C858   C861    1.450   .     S
C858   C1114   1.349   .     S
C858   H1147   1.089   .     S
C859   C860    1.424   .     S
C859   C1368   1.349   1_545 S
C859   S1438   1.780   1_545 S
C860   O926    1.277   .     A
C860   O910    1.278   .     A
C861   O921    1.256   .     A
C861   O927    1.277   .     A
C862   C867    1.400   .     A
C862   C107    1.396   1_556 S
C862   O151    1.382   1_556 S
C863   O902    1.273   .     A
C863   O900    1.278   .     A
C863   C866    1.451   .     S
C864   O901    1.287   .     A
C864   O903    1.282   .     A
C867   O914    1.386   .     S
C868   H897    1.111   .     S
C868   H880    1.110   .     S
C868   H898    1.114   .     S
C868   O914    1.413   .     S
C869   H881    1.113   .     S
C869   H882    1.114   .     S
C869   H883    1.107   .     S
C869   O915    1.411   .     S
C870   O916    1.409   .     S
C870   H885    1.113   .     S
C870   H884    1.114   .     S
C870   H886    1.109   .     S
C871   H888    1.112   .     S
C871   O917    1.409   .     S
C871   H889    1.109   .     S
C871   H887    1.114   .     S
C872   O915    1.383   .     S
C873   C874    1.416   .     A
C873   C107    1.416   1_556 S
C873   C110    1.416   1_556 S
C874   C878    1.427   .     A
C876   C877    1.410   .     A
C876   C110    1.417   1_556 S
C876   C100    1.407   1_556 S
C877   S929    1.776   .     S
C877   C878    1.404   .     A
C878   O917    1.384   .     S
H890   C942    1.083   .     S
H891   O920    0.990   .     S
H892   C1368   1.089   1_545 S
H893   C100    1.079   1_556 S
H894   O906    0.991   .     S
H895   O909    0.991   .     S
H896   O913    0.991   .     S
O899   Zn934   1.938   .     S
O899   Zn935   1.923   .     S
O899   Zn932   1.967   .     S
O899   Zn933   1.952   .     S
O900   Zn933   1.936   .     S
O901   Zn935   1.951   .     S
O902   Zn934   1.943   .     S
O903   Zn932   1.929   .     S
O904   S928    1.504   .     D
O905   S928    1.504   .     D
O906   S1438   1.683   1_545 S
O907   S929    1.502   .     D
O908   S929    1.504   .     D
O909   S929    1.680   .     S
O910   Zn932   1.937   .     S
O911   S930    1.503   .     D
O912   S930    1.501   .     D
O913   S930    1.682   .     S
O918   S931    1.503   .     D
O919   S931    1.502   .     D
O920   S931    1.682   .     S
O921   Zn935   1.942   .     S
O922   Zn933   1.916   .     S
O923   Zn934   1.932   .     S
O924   Zn935   1.931   .     S
O925   Zn932   1.918   .     S
O926   Zn933   1.944   .     S
O927   Zn934   1.934   .     S
S928   O1161   1.683   .     S
S928   C1114   1.780   .     S
C936   O1009   1.267   .     A
C936   O1007   1.272   .     A
C936   C942    1.435   .     S
C937   C951    1.406   .     A
C937   C960    1.411   .     A
C937   S1015   1.790   .     S
C938   H964    1.084   .     S
C938   C950    1.390   .     A
C938   C951    1.396   .     A
C939   O1010   1.289   .     A
C939   C941    1.460   .     S
C939   O1008   1.282   .     A
C940   C952    1.420   .     A
C940   C949    1.487   .     S
C940   C959    1.432   .     A
C941   C772    1.340   1_655 S
C941   S846    1.782   1_655 S
C943   C946    1.450   .     S
C943   C1199   1.349   .     S
C943   H1232   1.089   .     S
C944   C945    1.424   .     S
C944   C1453   1.349   1_545 S
C944   S1523   1.780   1_545 S
C945   O1011   1.277   .     A
C945   O995    1.278   .     A
C946   O1006   1.256   .     A
C946   O1012   1.277   .     A
C947   C952    1.400   .     A
C947   C192    1.396   1_556 S
C947   O236    1.382   1_556 S
C948   O987    1.273   .     A
C948   O985    1.278   .     A
C948   C951    1.451   .     S
C949   O986    1.287   .     A
C949   O988    1.282   .     A
C952   O999    1.386   .     S
C953   H982    1.111   .     S
C953   H965    1.110   .     S
C953   H983    1.114   .     S
C953   O999    1.413   .     S
C954   H966    1.113   .     S
C954   H967    1.114   .     S
C954   H968    1.107   .     S
C954   O1000   1.411   .     S
C955   O1001   1.409   .     S
C955   H970    1.113   .     S
C955   H969    1.114   .     S
C955   H971    1.109   .     S
C956   H973    1.112   .     S
C956   O1002   1.409   .     S
C956   H974    1.109   .     S
C956   H972    1.114   .     S
C957   O1000   1.383   .     S
C958   C959    1.416   .     A
C958   C192    1.416   1_556 S
C958   C195    1.416   1_556 S
C959   C963    1.427   .     A
C961   C962    1.410   .     A
C961   C195    1.417   1_556 S
C961   C185    1.407   1_556 S
C962   S1014   1.776   .     S
C962   C963    1.404   .     A
C963   O1002   1.384   .     S
H975   C772    1.083   1_655 S
H976   O1005   0.990   .     S
H977   C1453   1.089   1_545 S
H978   C185    1.079   1_556 S
H979   O991    0.991   .     S
H980   O994    0.991   .     S
H981   O998    0.991   .     S
O984   Zn1019  1.938   .     S
O984   Zn1020  1.923   .     S
O984   Zn1017  1.967   .     S
O984   Zn1018  1.952   .     S
O985   Zn1018  1.936   .     S
O986   Zn1020  1.951   .     S
O987   Zn1019  1.943   .     S
O988   Zn1017  1.929   .     S
O989   S1013   1.504   .     D
O990   S1013   1.504   .     D
O991   S1523   1.683   1_545 S
O992   S1014   1.502   .     D
O993   S1014   1.504   .     D
O994   S1014   1.680   .     S
O995   Zn1017  1.937   .     S
O996   S1015   1.503   .     D
O997   S1015   1.501   .     D
O998   S1015   1.682   .     S
O1003  S1016   1.503   .     D
O1004  S1016   1.502   .     D
O1005  S1016   1.682   .     S
O1006  Zn1020  1.942   .     S
O1007  Zn1018  1.916   .     S
O1008  Zn1019  1.932   .     S
O1009  Zn1020  1.931   .     S
O1010  Zn1017  1.918   .     S
O1011  Zn1018  1.944   .     S
O1012  Zn1019  1.934   .     S
S1013  O1246   1.683   .     S
S1013  C1199   1.780   .     S
C1021  O1094   1.267   .     A
C1021  O1092   1.272   .     A
C1021  C1027   1.435   .     S
C1022  C1036   1.406   .     A
C1022  C1045   1.411   .     A
C1022  S1100   1.790   .     S
C1023  H1049   1.084   .     S
C1023  C1035   1.390   .     A
C1023  C1036   1.396   .     A
C1024  O1095   1.289   .     A
C1024  C1026   1.460   .     S
C1024  O1093   1.282   .     A
C1025  C1037   1.420   .     A
C1025  C1034   1.487   .     S
C1025  C1044   1.432   .     A
C1026  C1112   1.340   .     S
C1026  S1186   1.782   .     S
C1027  C1196   1.340   1_455 S
C1027  H1230   1.083   1_455 S
C1028  C1031   1.450   .     S
C1028  C1284   1.349   .     S
C1028  H1317   1.089   .     S
C1029  C1030   1.424   .     S
C1030  O1096   1.277   .     A
C1030  O1080   1.278   .     A
C1031  O1091   1.256   .     A
C1031  O1097   1.277   .     A
C1032  C1037   1.400   .     A
C1032  C277    1.396   1_556 S
C1032  O321    1.382   1_556 S
C1033  O1072   1.273   .     A
C1033  O1070   1.278   .     A
C1033  C1036   1.451   .     S
C1034  O1071   1.287   .     A
C1034  O1073   1.282   .     A
C1037  O1084   1.386   .     S
C1038  H1067   1.111   .     S
C1038  H1050   1.110   .     S
C1038  H1068   1.114   .     S
C1038  O1084   1.413   .     S
C1039  H1051   1.113   .     S
C1039  H1052   1.114   .     S
C1039  H1053   1.107   .     S
C1039  O1085   1.411   .     S
C1040  O1086   1.409   .     S
C1040  H1055   1.113   .     S
C1040  H1054   1.114   .     S
C1040  H1056   1.109   .     S
C1041  H1058   1.112   .     S
C1041  O1087   1.409   .     S
C1041  H1059   1.109   .     S
C1041  H1057   1.114   .     S
C1042  O1085   1.383   .     S
C1043  C1044   1.416   .     A
C1043  C277    1.416   1_556 S
C1043  C280    1.416   1_556 S
C1044  C1048   1.427   .     A
C1046  C1047   1.410   .     A
C1046  C280    1.417   1_556 S
C1046  C270    1.407   1_556 S
C1047  S1099   1.776   .     S
C1047  C1048   1.404   .     A
C1048  O1087   1.384   .     S
H1060  C1112   1.083   .     S
H1061  O1090   0.990   .     S
H1063  C270    1.079   1_556 S
H1064  O1076   0.991   .     S
H1065  O1079   0.991   .     S
H1066  O1083   0.991   .     S
O1069  Zn1104  1.938   .     S
O1069  Zn1105  1.923   .     S
O1069  Zn1102  1.967   .     S
O1069  Zn1103  1.952   .     S
O1070  Zn1103  1.936   .     S
O1071  Zn1105  1.951   .     S
O1072  Zn1104  1.943   .     S
O1073  Zn1102  1.929   .     S
O1074  S1098   1.504   .     D
O1075  S1098   1.504   .     D
O1077  S1099   1.502   .     D
O1078  S1099   1.504   .     D
O1079  S1099   1.680   .     S
O1080  Zn1102  1.937   .     S
O1081  S1100   1.503   .     D
O1082  S1100   1.501   .     D
O1083  S1100   1.682   .     S
O1088  S1101   1.503   .     D
O1089  S1101   1.502   .     D
O1090  S1101   1.682   .     S
O1091  Zn1105  1.942   .     S
O1092  Zn1103  1.916   .     S
O1093  Zn1104  1.932   .     S
O1094  Zn1105  1.931   .     S
O1095  Zn1102  1.918   .     S
O1096  Zn1103  1.944   .     S
O1097  Zn1104  1.934   .     S
S1098  O1331   1.683   .     S
S1098  C1284   1.780   .     S
S1101  C1196   1.782   1_455 S
C1106  O1179   1.267   .     A
C1106  O1177   1.272   .     A
C1106  C1112   1.435   .     S
C1107  C1121   1.406   .     A
C1107  C1130   1.411   .     A
C1107  S1185   1.790   .     S
C1108  H1134   1.084   .     S
C1108  C1120   1.390   .     A
C1108  C1121   1.396   .     A
C1109  O1180   1.289   .     A
C1109  C1111   1.460   .     S
C1109  O1178   1.282   .     A
C1110  C1122   1.420   .     A
C1110  C1119   1.487   .     S
C1110  C1129   1.432   .     A
C1111  C1197   1.340   .     S
C1111  S1271   1.782   .     S
C1113  C1116   1.450   .     S
C1113  C1369   1.349   .     S
C1113  H1402   1.089   .     S
C1114  C1115   1.424   .     S
C1115  O1181   1.277   .     A
C1115  O1165   1.278   .     A
C1116  O1176   1.256   .     A
C1116  O1182   1.277   .     A
C1117  C1122   1.400   .     A
C1117  C362    1.396   1_556 S
C1117  O406    1.382   1_556 S
C1118  O1157   1.273   .     A
C1118  O1155   1.278   .     A
C1118  C1121   1.451   .     S
C1119  O1156   1.287   .     A
C1119  O1158   1.282   .     A
C1122  O1169   1.386   .     S
C1123  H1152   1.111   .     S
C1123  H1135   1.110   .     S
C1123  H1153   1.114   .     S
C1123  O1169   1.413   .     S
C1124  H1136   1.113   .     S
C1124  H1137   1.114   .     S
C1124  H1138   1.107   .     S
C1124  O1170   1.411   .     S
C1125  O1171   1.409   .     S
C1125  H1140   1.113   .     S
C1125  H1139   1.114   .     S
C1125  H1141   1.109   .     S
C1126  H1143   1.112   .     S
C1126  O1172   1.409   .     S
C1126  H1144   1.109   .     S
C1126  H1142   1.114   .     S
C1127  O1170   1.383   .     S
C1128  C1129   1.416   .     A
C1128  C362    1.416   1_556 S
C1128  C365    1.416   1_556 S
C1129  C1133   1.427   .     A
C1131  C1132   1.410   .     A
C1131  C365    1.417   1_556 S
C1131  C355    1.407   1_556 S
C1132  S1184   1.776   .     S
C1132  C1133   1.404   .     A
C1133  O1172   1.384   .     S
H1145  C1197   1.083   .     S
H1146  O1175   0.990   .     S
H1148  C355    1.079   1_556 S
H1149  O1161   0.991   .     S
H1150  O1164   0.991   .     S
H1151  O1168   0.991   .     S
O1154  Zn1189  1.938   .     S
O1154  Zn1190  1.923   .     S
O1154  Zn1187  1.967   .     S
O1154  Zn1188  1.952   .     S
O1155  Zn1188  1.936   .     S
O1156  Zn1190  1.951   .     S
O1157  Zn1189  1.943   .     S
O1158  Zn1187  1.929   .     S
O1159  S1183   1.504   .     D
O1160  S1183   1.504   .     D
O1162  S1184   1.502   .     D
O1163  S1184   1.504   .     D
O1164  S1184   1.680   .     S
O1165  Zn1187  1.937   .     S
O1166  S1185   1.503   .     D
O1167  S1185   1.501   .     D
O1168  S1185   1.682   .     S
O1173  S1186   1.503   .     D
O1174  S1186   1.502   .     D
O1175  S1186   1.682   .     S
O1176  Zn1190  1.942   .     S
O1177  Zn1188  1.916   .     S
O1178  Zn1189  1.932   .     S
O1179  Zn1190  1.931   .     S
O1180  Zn1187  1.918   .     S
O1181  Zn1188  1.944   .     S
O1182  Zn1189  1.934   .     S
S1183  O1416   1.683   .     S
S1183  C1369   1.780   .     S
C1191  O1264   1.267   .     A
C1191  O1262   1.272   .     A
C1191  C1197   1.435   .     S
C1192  C1206   1.406   .     A
C1192  C1215   1.411   .     A
C1192  S1270   1.790   .     S
C1193  H1219   1.084   .     S
C1193  C1205   1.390   .     A
C1193  C1206   1.396   .     A
C1194  O1265   1.289   .     A
C1194  C1196   1.460   .     S
C1194  O1263   1.282   .     A
C1195  C1207   1.420   .     A
C1195  C1204   1.487   .     S
C1195  C1214   1.432   .     A
C1196  C1027   1.340   1_655 S
C1196  S1101   1.782   1_655 S
C1198  C1201   1.450   .     S
C1198  C1454   1.349   .     S
C1198  H1487   1.089   .     S
C1199  C1200   1.424   .     S
C1200  O1266   1.277   .     A
C1200  O1250   1.278   .     A
C1201  O1261   1.256   .     A
C1201  O1267   1.277   .     A
C1202  C1207   1.400   .     A
C1202  C447    1.396   1_556 S
C1202  O491    1.382   1_556 S
C1203  O1242   1.273   .     A
C1203  O1240   1.278   .     A
C1203  C1206   1.451   .     S
C1204  O1241   1.287   .     A
C1204  O1243   1.282   .     A
C1207  O1254   1.386   .     S
C1208  H1237   1.111   .     S
C1208  H1220   1.110   .     S
C1208  H1238   1.114   .     S
C1208  O1254   1.413   .     S
C1209  H1221   1.113   .     S
C1209  H1222   1.114   .     S
C1209  H1223   1.107   .     S
C1209  O1255   1.411   .     S
C1210  O1256   1.409   .     S
C1210  H1225   1.113   .     S
C1210  H1224   1.114   .     S
C1210  H1226   1.109   .     S
C1211  H1228   1.112   .     S
C1211  O1257   1.409   .     S
C1211  H1229   1.109   .     S
C1211  H1227   1.114   .     S
C1212  O1255   1.383   .     S
C1213  C1214   1.416   .     A
C1213  C447    1.416   1_556 S
C1213  C450    1.416   1_556 S
C1214  C1218   1.427   .     A
C1216  C1217   1.410   .     A
C1216  C450    1.417   1_556 S
C1216  C440    1.407   1_556 S
C1217  S1269   1.776   .     S
C1217  C1218   1.404   .     A
C1218  O1257   1.384   .     S
H1230  C1027   1.083   1_655 S
H1231  O1260   0.990   .     S
H1233  C440    1.079   1_556 S
H1234  O1246   0.991   .     S
H1235  O1249   0.991   .     S
H1236  O1253   0.991   .     S
O1239  Zn1274  1.938   .     S
O1239  Zn1275  1.923   .     S
O1239  Zn1272  1.967   .     S
O1239  Zn1273  1.952   .     S
O1240  Zn1273  1.936   .     S
O1241  Zn1275  1.951   .     S
O1242  Zn1274  1.943   .     S
O1243  Zn1272  1.929   .     S
O1244  S1268   1.504   .     D
O1245  S1268   1.504   .     D
O1247  S1269   1.502   .     D
O1248  S1269   1.504   .     D
O1249  S1269   1.680   .     S
O1250  Zn1272  1.937   .     S
O1251  S1270   1.503   .     D
O1252  S1270   1.501   .     D
O1253  S1270   1.682   .     S
O1258  S1271   1.503   .     D
O1259  S1271   1.502   .     D
O1260  S1271   1.682   .     S
O1261  Zn1275  1.942   .     S
O1262  Zn1273  1.916   .     S
O1263  Zn1274  1.932   .     S
O1264  Zn1275  1.931   .     S
O1265  Zn1272  1.918   .     S
O1266  Zn1273  1.944   .     S
O1267  Zn1274  1.934   .     S
S1268  O1501   1.683   .     S
S1268  C1454   1.780   .     S
C1276  O1349   1.267   .     A
C1276  O1347   1.272   .     A
C1276  C1282   1.435   .     S
C1277  C1291   1.406   .     A
C1277  C1300   1.411   .     A
C1277  S1355   1.790   .     S
C1278  H1304   1.084   .     S
C1278  C1290   1.390   .     A
C1278  C1291   1.396   .     A
C1279  O1350   1.289   .     A
C1279  C1281   1.460   .     S
C1279  O1348   1.282   .     A
C1280  C1292   1.420   .     A
C1280  C1289   1.487   .     S
C1280  C1299   1.432   .     A
C1281  C1367   1.340   .     S
C1281  S1441   1.782   .     S
C1282  C1451   1.340   1_455 S
C1282  H1485   1.083   1_455 S
C1283  C1286   1.450   .     S
C1283  C774    1.349   1_565 S
C1283  H807    1.089   1_565 S
C1284  C1285   1.424   .     S
C1285  O1351   1.277   .     A
C1285  O1335   1.278   .     A
C1286  O1346   1.256   .     A
C1286  O1352   1.277   .     A
C1287  C1292   1.400   .     A
C1287  C532    1.396   1_556 S
C1287  O576    1.382   1_556 S
C1288  O1327   1.273   .     A
C1288  O1325   1.278   .     A
C1288  C1291   1.451   .     S
C1289  O1326   1.287   .     A
C1289  O1328   1.282   .     A
C1292  O1339   1.386   .     S
C1293  H1322   1.111   .     S
C1293  H1305   1.110   .     S
C1293  H1323   1.114   .     S
C1293  O1339   1.413   .     S
C1294  H1306   1.113   .     S
C1294  H1307   1.114   .     S
C1294  H1308   1.107   .     S
C1294  O1340   1.411   .     S
C1295  O1341   1.409   .     S
C1295  H1310   1.113   .     S
C1295  H1309   1.114   .     S
C1295  H1311   1.109   .     S
C1296  H1313   1.112   .     S
C1296  O1342   1.409   .     S
C1296  H1314   1.109   .     S
C1296  H1312   1.114   .     S
C1297  O1340   1.383   .     S
C1298  C1299   1.416   .     A
C1298  C532    1.416   1_556 S
C1298  C535    1.416   1_556 S
C1299  C1303   1.427   .     A
C1301  C1302   1.410   .     A
C1301  C535    1.417   1_556 S
C1301  C525    1.407   1_556 S
C1302  S1354   1.776   .     S
C1302  C1303   1.404   .     A
C1303  O1342   1.384   .     S
H1315  C1367   1.083   .     S
H1316  O1345   0.990   .     S
H1318  C525    1.079   1_556 S
H1319  O1331   0.991   .     S
H1320  O1334   0.991   .     S
H1321  O1338   0.991   .     S
O1324  Zn1359  1.938   .     S
O1324  Zn1360  1.923   .     S
O1324  Zn1357  1.967   .     S
O1324  Zn1358  1.952   .     S
O1325  Zn1358  1.936   .     S
O1326  Zn1360  1.951   .     S
O1327  Zn1359  1.943   .     S
O1328  Zn1357  1.929   .     S
O1329  S1353   1.504   .     D
O1330  S1353   1.504   .     D
O1332  S1354   1.502   .     D
O1333  S1354   1.504   .     D
O1334  S1354   1.680   .     S
O1335  Zn1357  1.937   .     S
O1336  S1355   1.503   .     D
O1337  S1355   1.501   .     D
O1338  S1355   1.682   .     S
O1343  S1356   1.503   .     D
O1344  S1356   1.502   .     D
O1345  S1356   1.682   .     S
O1346  Zn1360  1.942   .     S
O1347  Zn1358  1.916   .     S
O1348  Zn1359  1.932   .     S
O1349  Zn1360  1.931   .     S
O1350  Zn1357  1.918   .     S
O1351  Zn1358  1.944   .     S
O1352  Zn1359  1.934   .     S
S1353  O821    1.683   1_565 S
S1353  C774    1.780   1_565 S
S1356  C1451   1.782   1_455 S
C1361  O1434   1.267   .     A
C1361  O1432   1.272   .     A
C1361  C1367   1.435   .     S
C1362  C1376   1.406   .     A
C1362  C1385   1.411   .     A
C1362  S1440   1.790   .     S
C1363  H1389   1.084   .     S
C1363  C1375   1.390   .     A
C1363  C1376   1.396   .     A
C1364  O1435   1.289   .     A
C1364  C1366   1.460   .     S
C1364  O1433   1.282   .     A
C1365  C1377   1.420   .     A
C1365  C1374   1.487   .     S
C1365  C1384   1.432   .     A
C1366  C1452   1.340   .     S
C1366  S1526   1.782   .     S
C1368  C1371   1.450   .     S
C1368  C859    1.349   1_565 S
C1368  H892    1.089   1_565 S
C1369  C1370   1.424   .     S
C1370  O1436   1.277   .     A
C1370  O1420   1.278   .     A
C1371  O1431   1.256   .     A
C1371  O1437   1.277   .     A
C1372  C1377   1.400   .     A
C1372  C617    1.396   1_556 S
C1372  O661    1.382   1_556 S
C1373  O1412   1.273   .     A
C1373  O1410   1.278   .     A
C1373  C1376   1.451   .     S
C1374  O1411   1.287   .     A
C1374  O1413   1.282   .     A
C1377  O1424   1.386   .     S
C1378  H1407   1.111   .     S
C1378  H1390   1.110   .     S
C1378  H1408   1.114   .     S
C1378  O1424   1.413   .     S
C1379  H1391   1.113   .     S
C1379  H1392   1.114   .     S
C1379  H1393   1.107   .     S
C1379  O1425   1.411   .     S
C1380  O1426   1.409   .     S
C1380  H1395   1.113   .     S
C1380  H1394   1.114   .     S
C1380  H1396   1.109   .     S
C1381  H1398   1.112   .     S
C1381  O1427   1.409   .     S
C1381  H1399   1.109   .     S
C1381  H1397   1.114   .     S
C1382  O1425   1.383   .     S
C1383  C1384   1.416   .     A
C1383  C617    1.416   1_556 S
C1383  C620    1.416   1_556 S
C1384  C1388   1.427   .     A
C1386  C1387   1.410   .     A
C1386  C620    1.417   1_556 S
C1386  C610    1.407   1_556 S
C1387  S1439   1.776   .     S
C1387  C1388   1.404   .     A
C1388  O1427   1.384   .     S
H1400  C1452   1.083   .     S
H1401  O1430   0.990   .     S
H1403  C610    1.079   1_556 S
H1404  O1416   0.991   .     S
H1405  O1419   0.991   .     S
H1406  O1423   0.991   .     S
O1409  Zn1444  1.938   .     S
O1409  Zn1445  1.923   .     S
O1409  Zn1442  1.967   .     S
O1409  Zn1443  1.952   .     S
O1410  Zn1443  1.936   .     S
O1411  Zn1445  1.951   .     S
O1412  Zn1444  1.943   .     S
O1413  Zn1442  1.929   .     S
O1414  S1438   1.504   .     D
O1415  S1438   1.504   .     D
O1417  S1439   1.502   .     D
O1418  S1439   1.504   .     D
O1419  S1439   1.680   .     S
O1420  Zn1442  1.937   .     S
O1421  S1440   1.503   .     D
O1422  S1440   1.501   .     D
O1423  S1440   1.682   .     S
O1428  S1441   1.503   .     D
O1429  S1441   1.502   .     D
O1430  S1441   1.682   .     S
O1431  Zn1445  1.942   .     S
O1432  Zn1443  1.916   .     S
O1433  Zn1444  1.932   .     S
O1434  Zn1445  1.931   .     S
O1435  Zn1442  1.918   .     S
O1436  Zn1443  1.944   .     S
O1437  Zn1444  1.934   .     S
S1438  O906    1.683   1_565 S
S1438  C859    1.780   1_565 S
C1446  O1519   1.267   .     A
C1446  O1517   1.272   .     A
C1446  C1452   1.435   .     S
C1447  C1461   1.406   .     A
C1447  C1470   1.411   .     A
C1447  S1525   1.790   .     S
C1448  H1474   1.084   .     S
C1448  C1460   1.390   .     A
C1448  C1461   1.396   .     A
C1449  O1520   1.289   .     A
C1449  C1451   1.460   .     S
C1449  O1518   1.282   .     A
C1450  C1462   1.420   .     A
C1450  C1459   1.487   .     S
C1450  C1469   1.432   .     A
C1451  C1282   1.340   1_655 S
C1451  S1356   1.782   1_655 S
C1453  C1456   1.450   .     S
C1453  C944    1.349   1_565 S
C1453  H977    1.089   1_565 S
C1454  C1455   1.424   .     S
C1455  O1521   1.277   .     A
C1455  O1505   1.278   .     A
C1456  O1516   1.256   .     A
C1456  O1522   1.277   .     A
C1457  C1462   1.400   .     A
C1457  C702    1.396   1_556 S
C1457  O746    1.382   1_556 S
C1458  O1497   1.273   .     A
C1458  O1495   1.278   .     A
C1458  C1461   1.451   .     S
C1459  O1496   1.287   .     A
C1459  O1498   1.282   .     A
C1462  O1509   1.386   .     S
C1463  H1492   1.111   .     S
C1463  H1475   1.110   .     S
C1463  H1493   1.114   .     S
C1463  O1509   1.413   .     S
C1464  H1476   1.113   .     S
C1464  H1477   1.114   .     S
C1464  H1478   1.107   .     S
C1464  O1510   1.411   .     S
C1465  O1511   1.409   .     S
C1465  H1480   1.113   .     S
C1465  H1479   1.114   .     S
C1465  H1481   1.109   .     S
C1466  H1483   1.112   .     S
C1466  O1512   1.409   .     S
C1466  H1484   1.109   .     S
C1466  H1482   1.114   .     S
C1467  O1510   1.383   .     S
C1468  C1469   1.416   .     A
C1468  C702    1.416   1_556 S
C1468  C705    1.416   1_556 S
C1469  C1473   1.427   .     A
C1471  C1472   1.410   .     A
C1471  C705    1.417   1_556 S
C1471  C695    1.407   1_556 S
C1472  S1524   1.776   .     S
C1472  C1473   1.404   .     A
C1473  O1512   1.384   .     S
H1485  C1282   1.083   1_655 S
H1486  O1515   0.990   .     S
H1488  C695    1.079   1_556 S
H1489  O1501   0.991   .     S
H1490  O1504   0.991   .     S
H1491  O1508   0.991   .     S
O1494  Zn1529  1.938   .     S
O1494  Zn1530  1.923   .     S
O1494  Zn1527  1.967   .     S
O1494  Zn1528  1.952   .     S
O1495  Zn1528  1.936   .     S
O1496  Zn1530  1.951   .     S
O1497  Zn1529  1.943   .     S
O1498  Zn1527  1.929   .     S
O1499  S1523   1.504   .     D
O1500  S1523   1.504   .     D
O1502  S1524   1.502   .     D
O1503  S1524   1.504   .     D
O1504  S1524   1.680   .     S
O1505  Zn1527  1.937   .     S
O1506  S1525   1.503   .     D
O1507  S1525   1.501   .     D
O1508  S1525   1.682   .     S
O1513  S1526   1.503   .     D
O1514  S1526   1.502   .     D
O1515  S1526   1.682   .     S
O1516  Zn1530  1.942   .     S
O1517  Zn1528  1.916   .     S
O1518  Zn1529  1.932   .     S
O1519  Zn1530  1.931   .     S
O1520  Zn1527  1.918   .     S
O1521  Zn1528  1.944   .     S
O1522  Zn1529  1.934   .     S
S1523  O991    1.683   1_565 S
S1523  C944    1.780   1_565 S
