data_str_m2_o10_o18_pcu_sym.73
_audit_creation_date              2020-01-03
_audit_creation_method            'Materials Studio'
_symmetry_space_group_name_H-M    'P1'
_symmetry_Int_Tables_number       1
_symmetry_cell_setting            triclinic
loop_
_symmetry_equiv_pos_as_xyz
  x,y,z
_cell_length_a                    23.1048
_cell_length_b                    26.4388
_cell_length_c                    31.9335
_cell_angle_alpha                 105.4871
_cell_angle_beta                  77.3681
_cell_angle_gamma                 104.3279
loop_
_atom_site_label
_atom_site_type_symbol
_atom_site_fract_x
_atom_site_fract_y
_atom_site_fract_z
_atom_site_U_iso_or_equiv
_atom_site_adp_type
_atom_site_occupancy
C1     C     0.18221   0.26683   0.25132   0.00000  Uiso   1.00
C2     C     0.20339   0.17069   0.16778   0.00000  Uiso   1.00
C3     C     0.10929   0.15638   0.37768   0.00000  Uiso   1.00
C4     C     0.22405   0.17682   0.12228   0.00000  Uiso   1.00
C5     C     0.03109   0.12369   0.43353   0.00000  Uiso   1.00
C6     C     0.30239   0.20907   0.06630   0.00000  Uiso   1.00
C7     C     0.04878   0.13425   0.39176   0.00000  Uiso   1.00
C8     C     0.28463   0.19869   0.10812   0.00000  Uiso   1.00
C9     C     0.15130   0.16981   0.40634   0.00000  Uiso   1.00
C10    C     0.18203   0.16346   0.09364   0.00000  Uiso   1.00
C11    C     0.13451   0.16014   0.44906   0.00000  Uiso   1.00
C12    C     0.15113   0.06650   0.24868   0.00000  Uiso   1.00
C13    C     0.19893   0.17279   0.05081   0.00000  Uiso   1.00
C14    C     0.07343   0.13576   0.46199   0.00000  Uiso   1.00
C15    C     0.26006   0.19700   0.03784   0.00000  Uiso   1.00
C16    C     0.17662   0.17293   0.47885   0.00000  Uiso   1.00
C17    C     0.15685   0.15990   0.02098   0.00000  Uiso   1.00
C18    C     0.32711   0.22552   0.30253   0.00000  Uiso   1.00
C19    C     0.28015   0.25371   0.32745   0.00000  Uiso   1.00
C20    C     0.28390   0.29252   0.36689   0.00000  Uiso   1.00
C21    C     0.00297   0.30816   0.38455   0.00000  Uiso   1.00
C22    C     0.05176   0.28598   0.36186   0.00000  Uiso   1.00
C23    C     0.09580   0.13424   0.03177   0.00000  Uiso   1.00
C24    C     0.04747   0.24717   0.32232   0.00000  Uiso   1.00
C25    C     0.00620   0.10778   0.19749   0.00000  Uiso   1.00
C26    C     0.05316   0.07956   0.17259   0.00000  Uiso   1.00
C27    C     0.04935   0.04063   0.13322   0.00000  Uiso   1.00
C28    C     0.33024   0.02490   0.11561   0.00000  Uiso   1.00
C29    C     0.28148   0.04716   0.13826   0.00000  Uiso   1.00
C30    C     0.28583   0.08611   0.17771   0.00000  Uiso   1.00
C31    C     0.23775   0.19838   0.46800   0.00000  Uiso   1.00
C32    C     0.05509   0.12285   0.00290   0.00000  Uiso   1.00
C33    C     0.27846   0.20974   0.49686   0.00000  Uiso   1.00
C34    C     0.19006   0.32330   0.25184   0.00000  Uiso   1.00
C35    C     0.14328   0.01003   0.24816   0.00000  Uiso   1.00
C36    C     0.12994   0.16264   0.33222   0.00000  Uiso   1.00
Cu37   Cu    0.10737   0.16108   0.24516   0.00000  Uiso   1.00
Cu38   Cu    0.22596   0.17225   0.25483   0.00000  Uiso   1.00
H39    H     0.00870   0.10348   0.01272   0.00000  Uiso   1.00
H40    H     0.25626   0.21054   0.43743   0.00000  Uiso   1.00
H41    H     0.23452   0.01508   0.25520   0.00000  Uiso   1.00
H42    H     0.09882   0.31825   0.24480   0.00000  Uiso   1.00
H43    H     0.23734   0.24898   0.31975   0.00000  Uiso   1.00
H44    H     0.24540   0.31067   0.38377   0.00000  Uiso   1.00
H45    H     0.00613   0.00463   0.41513   0.00000  Uiso   1.00
H46    H     0.09399   0.29926   0.37487   0.00000  Uiso   1.00
H47    H     0.09007   0.23917   0.31182   0.00000  Uiso   1.00
H48    H     0.09601   0.08436   0.18025   0.00000  Uiso   1.00
H49    H     0.08783   0.02245   0.11637   0.00000  Uiso   1.00
H50    H     0.32490   0.22895   0.48699   0.00000  Uiso   1.00
H51    H     0.32702   0.32832   0.08510   0.00000  Uiso   1.00
H52    H     0.23924   0.03385   0.12527   0.00000  Uiso   1.00
H53    H     0.24326   0.09417   0.18818   0.00000  Uiso   1.00
H54    H     0.13620   0.14681   0.10618   0.00000  Uiso   1.00
H55    H     0.19702   0.18682   0.39389   0.00000  Uiso   1.00
H56    H     0.31796   0.20937   0.12981   0.00000  Uiso   1.00
H57    H     0.01547   0.12352   0.37006   0.00000  Uiso   1.00
H58    H     0.31765   0.10536   0.44342   0.00000  Uiso   1.00
H59    H     0.01587   0.22724   0.05636   0.00000  Uiso   1.00
H60    H     0.07739   0.12186   0.06226   0.00000  Uiso   1.00
N61    N     0.31506   0.18068   0.26212   0.00000  Uiso   1.00
N62    N     0.01827   0.15265   0.23788   0.00000  Uiso   1.00
O63    O     0.12815   0.23809   0.24686   0.00000  Uiso   1.00
O64    O     0.20518   0.09524   0.25314   0.00000  Uiso   1.00
O65    O     0.22829   0.24753   0.25502   0.00000  Uiso   1.00
O66    O     0.10504   0.08580   0.24497   0.00000  Uiso   1.00
O67    O     0.08851   0.15930   0.30854   0.00000  Uiso   1.00
O68    O     0.24482   0.17403   0.19145   0.00000  Uiso   1.00
O69    O     0.18866   0.16874   0.31671   0.00000  Uiso   1.00
O70    O     0.14468   0.16460   0.18329   0.00000  Uiso   1.00
C71    C     0.51554   0.26683   0.25132   0.00000  Uiso   1.00
C72    C     0.53673   0.17069   0.16778   0.00000  Uiso   1.00
C73    C     0.44263   0.15638   0.37768   0.00000  Uiso   1.00
C74    C     0.55738   0.17682   0.12228   0.00000  Uiso   1.00
C75    C     0.36442   0.12369   0.43353   0.00000  Uiso   1.00
C76    C     0.63572   0.20907   0.06630   0.00000  Uiso   1.00
C77    C     0.38211   0.13425   0.39176   0.00000  Uiso   1.00
C78    C     0.61797   0.19869   0.10812   0.00000  Uiso   1.00
C79    C     0.48464   0.16981   0.40634   0.00000  Uiso   1.00
C80    C     0.51536   0.16346   0.09364   0.00000  Uiso   1.00
C81    C     0.46784   0.16014   0.44906   0.00000  Uiso   1.00
C82    C     0.48446   0.06650   0.24868   0.00000  Uiso   1.00
C83    C     0.53226   0.17279   0.05081   0.00000  Uiso   1.00
C84    C     0.40676   0.13576   0.46199   0.00000  Uiso   1.00
C85    C     0.59339   0.19700   0.03784   0.00000  Uiso   1.00
C86    C     0.50996   0.17293   0.47885   0.00000  Uiso   1.00
C87    C     0.49019   0.15990   0.02098   0.00000  Uiso   1.00
C88    C     0.66044   0.22552   0.30253   0.00000  Uiso   1.00
C89    C     0.61349   0.25371   0.32745   0.00000  Uiso   1.00
C90    C     0.61723   0.29252   0.36689   0.00000  Uiso   1.00
C91    C     0.33630   0.30816   0.38455   0.00000  Uiso   1.00
C92    C     0.38509   0.28598   0.36186   0.00000  Uiso   1.00
C93    C     0.42913   0.13424   0.03177   0.00000  Uiso   1.00
C94    C     0.38080   0.24717   0.32232   0.00000  Uiso   1.00
C95    C     0.33954   0.10778   0.19749   0.00000  Uiso   1.00
C96    C     0.38649   0.07956   0.17259   0.00000  Uiso   1.00
C97    C     0.38268   0.04063   0.13322   0.00000  Uiso   1.00
C98    C     0.66357   0.02490   0.11561   0.00000  Uiso   1.00
C99    C     0.61482   0.04716   0.13826   0.00000  Uiso   1.00
C100   C     0.61917   0.08611   0.17771   0.00000  Uiso   1.00
C101   C     0.57108   0.19838   0.46800   0.00000  Uiso   1.00
C102   C     0.38842   0.12285   0.00290   0.00000  Uiso   1.00
C103   C     0.61179   0.20974   0.49686   0.00000  Uiso   1.00
C104   C     0.52339   0.32330   0.25184   0.00000  Uiso   1.00
C105   C     0.47661   0.01003   0.24816   0.00000  Uiso   1.00
C106   C     0.46327   0.16264   0.33222   0.00000  Uiso   1.00
Cu107  Cu    0.44071   0.16108   0.24516   0.00000  Uiso   1.00
Cu108  Cu    0.55929   0.17225   0.25483   0.00000  Uiso   1.00
H109   H     0.34203   0.10348   0.01272   0.00000  Uiso   1.00
H110   H     0.58959   0.21054   0.43743   0.00000  Uiso   1.00
H111   H     0.56785   0.01508   0.25520   0.00000  Uiso   1.00
H112   H     0.43215   0.31825   0.24480   0.00000  Uiso   1.00
H113   H     0.57067   0.24898   0.31975   0.00000  Uiso   1.00
H114   H     0.57874   0.31067   0.38377   0.00000  Uiso   1.00
H115   H     0.33947   0.00463   0.41513   0.00000  Uiso   1.00
H116   H     0.42732   0.29926   0.37487   0.00000  Uiso   1.00
H117   H     0.42340   0.23917   0.31182   0.00000  Uiso   1.00
H118   H     0.42934   0.08436   0.18025   0.00000  Uiso   1.00
H119   H     0.42116   0.02245   0.11637   0.00000  Uiso   1.00
H120   H     0.65823   0.22895   0.48699   0.00000  Uiso   1.00
H121   H     0.66035   0.32832   0.08510   0.00000  Uiso   1.00
H122   H     0.57257   0.03385   0.12527   0.00000  Uiso   1.00
H123   H     0.57660   0.09417   0.18818   0.00000  Uiso   1.00
H124   H     0.46954   0.14681   0.10618   0.00000  Uiso   1.00
H125   H     0.53035   0.18682   0.39389   0.00000  Uiso   1.00
H126   H     0.65129   0.20937   0.12981   0.00000  Uiso   1.00
H127   H     0.34880   0.12352   0.37006   0.00000  Uiso   1.00
H128   H     0.65099   0.10536   0.44342   0.00000  Uiso   1.00
H129   H     0.34920   0.22724   0.05636   0.00000  Uiso   1.00
H130   H     0.41072   0.12186   0.06226   0.00000  Uiso   1.00
N131   N     0.64839   0.18068   0.26212   0.00000  Uiso   1.00
N132   N     0.35161   0.15265   0.23788   0.00000  Uiso   1.00
O133   O     0.46148   0.23809   0.24686   0.00000  Uiso   1.00
O134   O     0.53852   0.09524   0.25314   0.00000  Uiso   1.00
O135   O     0.56163   0.24753   0.25502   0.00000  Uiso   1.00
O136   O     0.43837   0.08580   0.24497   0.00000  Uiso   1.00
O137   O     0.42185   0.15930   0.30854   0.00000  Uiso   1.00
O138   O     0.57815   0.17403   0.19145   0.00000  Uiso   1.00
O139   O     0.52199   0.16874   0.31671   0.00000  Uiso   1.00
O140   O     0.47801   0.16460   0.18329   0.00000  Uiso   1.00
C141   C     0.84887   0.26683   0.25132   0.00000  Uiso   1.00
C142   C     0.87006   0.17069   0.16778   0.00000  Uiso   1.00
C143   C     0.77596   0.15638   0.37768   0.00000  Uiso   1.00
C144   C     0.89071   0.17682   0.12228   0.00000  Uiso   1.00
C145   C     0.69776   0.12369   0.43353   0.00000  Uiso   1.00
C146   C     0.96905   0.20907   0.06630   0.00000  Uiso   1.00
C147   C     0.71544   0.13425   0.39176   0.00000  Uiso   1.00
C148   C     0.95130   0.19869   0.10812   0.00000  Uiso   1.00
C149   C     0.81797   0.16981   0.40634   0.00000  Uiso   1.00
C150   C     0.84869   0.16346   0.09364   0.00000  Uiso   1.00
C151   C     0.80117   0.16014   0.44906   0.00000  Uiso   1.00
C152   C     0.81779   0.06650   0.24868   0.00000  Uiso   1.00
C153   C     0.86560   0.17279   0.05081   0.00000  Uiso   1.00
C154   C     0.74009   0.13576   0.46199   0.00000  Uiso   1.00
C155   C     0.92672   0.19700   0.03784   0.00000  Uiso   1.00
C156   C     0.84329   0.17293   0.47885   0.00000  Uiso   1.00
C157   C     0.82352   0.15990   0.02098   0.00000  Uiso   1.00
C158   C     0.99378   0.22552   0.30253   0.00000  Uiso   1.00
C159   C     0.94682   0.25371   0.32745   0.00000  Uiso   1.00
C160   C     0.95056   0.29252   0.36689   0.00000  Uiso   1.00
C161   C     0.66963   0.30816   0.38455   0.00000  Uiso   1.00
C162   C     0.71843   0.28598   0.36186   0.00000  Uiso   1.00
C163   C     0.76246   0.13424   0.03177   0.00000  Uiso   1.00
C164   C     0.71414   0.24717   0.32232   0.00000  Uiso   1.00
C165   C     0.67287   0.10778   0.19749   0.00000  Uiso   1.00
C166   C     0.71982   0.07956   0.17259   0.00000  Uiso   1.00
C167   C     0.71601   0.04063   0.13322   0.00000  Uiso   1.00
C168   C     0.99691   0.02490   0.11561   0.00000  Uiso   1.00
C169   C     0.94815   0.04716   0.13826   0.00000  Uiso   1.00
C170   C     0.95250   0.08611   0.17771   0.00000  Uiso   1.00
C171   C     0.90442   0.19838   0.46800   0.00000  Uiso   1.00
C172   C     0.72176   0.12285   0.00290   0.00000  Uiso   1.00
C173   C     0.94512   0.20974   0.49686   0.00000  Uiso   1.00
C174   C     0.85672   0.32330   0.25184   0.00000  Uiso   1.00
C175   C     0.80994   0.01003   0.24816   0.00000  Uiso   1.00
C176   C     0.79661   0.16264   0.33222   0.00000  Uiso   1.00
Cu177  Cu    0.77404   0.16108   0.24516   0.00000  Uiso   1.00
Cu178  Cu    0.89263   0.17225   0.25483   0.00000  Uiso   1.00
H179   H     0.67536   0.10348   0.01272   0.00000  Uiso   1.00
H180   H     0.92293   0.21054   0.43743   0.00000  Uiso   1.00
H181   H     0.90118   0.01508   0.25520   0.00000  Uiso   1.00
H182   H     0.76548   0.31825   0.24480   0.00000  Uiso   1.00
H183   H     0.90400   0.24898   0.31975   0.00000  Uiso   1.00
H184   H     0.91207   0.31067   0.38377   0.00000  Uiso   1.00
H185   H     0.67280   0.00463   0.41513   0.00000  Uiso   1.00
H186   H     0.76066   0.29926   0.37487   0.00000  Uiso   1.00
H187   H     0.75674   0.23917   0.31182   0.00000  Uiso   1.00
H188   H     0.76268   0.08436   0.18025   0.00000  Uiso   1.00
H189   H     0.75450   0.02245   0.11637   0.00000  Uiso   1.00
H190   H     0.99157   0.22895   0.48699   0.00000  Uiso   1.00
H191   H     0.99368   0.32832   0.08510   0.00000  Uiso   1.00
H192   H     0.90590   0.03385   0.12527   0.00000  Uiso   1.00
H193   H     0.90993   0.09417   0.18818   0.00000  Uiso   1.00
H194   H     0.80287   0.14681   0.10618   0.00000  Uiso   1.00
H195   H     0.86369   0.18682   0.39389   0.00000  Uiso   1.00
H196   H     0.98462   0.20937   0.12981   0.00000  Uiso   1.00
H197   H     0.68213   0.12352   0.37006   0.00000  Uiso   1.00
H198   H     0.98432   0.10536   0.44342   0.00000  Uiso   1.00
H199   H     0.68253   0.22724   0.05636   0.00000  Uiso   1.00
H200   H     0.74406   0.12186   0.06226   0.00000  Uiso   1.00
N201   N     0.98173   0.18068   0.26212   0.00000  Uiso   1.00
N202   N     0.68494   0.15265   0.23788   0.00000  Uiso   1.00
O203   O     0.79482   0.23809   0.24686   0.00000  Uiso   1.00
O204   O     0.87185   0.09524   0.25314   0.00000  Uiso   1.00
O205   O     0.89496   0.24753   0.25502   0.00000  Uiso   1.00
O206   O     0.77171   0.08580   0.24497   0.00000  Uiso   1.00
O207   O     0.75518   0.15930   0.30854   0.00000  Uiso   1.00
O208   O     0.91149   0.17403   0.19145   0.00000  Uiso   1.00
O209   O     0.85532   0.16874   0.31671   0.00000  Uiso   1.00
O210   O     0.81134   0.16460   0.18329   0.00000  Uiso   1.00
C211   C     0.18221   0.60016   0.25132   0.00000  Uiso   1.00
C212   C     0.20339   0.50402   0.16778   0.00000  Uiso   1.00
C213   C     0.10929   0.48972   0.37768   0.00000  Uiso   1.00
C214   C     0.22405   0.51015   0.12228   0.00000  Uiso   1.00
C215   C     0.03109   0.45702   0.43353   0.00000  Uiso   1.00
C216   C     0.30239   0.54240   0.06630   0.00000  Uiso   1.00
C217   C     0.04878   0.46759   0.39176   0.00000  Uiso   1.00
C218   C     0.28463   0.53202   0.10812   0.00000  Uiso   1.00
C219   C     0.15130   0.50314   0.40634   0.00000  Uiso   1.00
C220   C     0.18203   0.49679   0.09364   0.00000  Uiso   1.00
C221   C     0.13451   0.49348   0.44906   0.00000  Uiso   1.00
C222   C     0.15113   0.39984   0.24868   0.00000  Uiso   1.00
C223   C     0.19893   0.50613   0.05081   0.00000  Uiso   1.00
C224   C     0.07343   0.46910   0.46199   0.00000  Uiso   1.00
C225   C     0.26006   0.53034   0.03784   0.00000  Uiso   1.00
C226   C     0.17662   0.50626   0.47885   0.00000  Uiso   1.00
C227   C     0.15685   0.49323   0.02098   0.00000  Uiso   1.00
C228   C     0.32711   0.55885   0.30253   0.00000  Uiso   1.00
C229   C     0.28015   0.58705   0.32745   0.00000  Uiso   1.00
C230   C     0.28390   0.62585   0.36689   0.00000  Uiso   1.00
C231   C     0.00297   0.64149   0.38455   0.00000  Uiso   1.00
C232   C     0.05176   0.61931   0.36186   0.00000  Uiso   1.00
C233   C     0.09580   0.46758   0.03177   0.00000  Uiso   1.00
C234   C     0.04747   0.58050   0.32232   0.00000  Uiso   1.00
C235   C     0.00620   0.44111   0.19749   0.00000  Uiso   1.00
C236   C     0.05316   0.41289   0.17259   0.00000  Uiso   1.00
C237   C     0.04935   0.37396   0.13322   0.00000  Uiso   1.00
C238   C     0.33024   0.35823   0.11561   0.00000  Uiso   1.00
C239   C     0.28148   0.38050   0.13826   0.00000  Uiso   1.00
C240   C     0.28583   0.41944   0.17771   0.00000  Uiso   1.00
C241   C     0.23775   0.53172   0.46800   0.00000  Uiso   1.00
C242   C     0.05509   0.45619   0.00290   0.00000  Uiso   1.00
C243   C     0.27846   0.54307   0.49686   0.00000  Uiso   1.00
C244   C     0.19006   0.65663   0.25184   0.00000  Uiso   1.00
C245   C     0.14328   0.34337   0.24816   0.00000  Uiso   1.00
C246   C     0.12994   0.49597   0.33222   0.00000  Uiso   1.00
Cu247  Cu    0.10737   0.49441   0.24516   0.00000  Uiso   1.00
Cu248  Cu    0.22596   0.50559   0.25483   0.00000  Uiso   1.00
H249   H     0.00870   0.43682   0.01272   0.00000  Uiso   1.00
H250   H     0.25626   0.54387   0.43743   0.00000  Uiso   1.00
H251   H     0.23452   0.34842   0.25520   0.00000  Uiso   1.00
H252   H     0.09882   0.65158   0.24480   0.00000  Uiso   1.00
H253   H     0.23734   0.58232   0.31975   0.00000  Uiso   1.00
H254   H     0.24540   0.64401   0.38377   0.00000  Uiso   1.00
H255   H     0.00613   0.33796   0.41513   0.00000  Uiso   1.00
H256   H     0.09399   0.63259   0.37487   0.00000  Uiso   1.00
H257   H     0.09007   0.57250   0.31182   0.00000  Uiso   1.00
H258   H     0.09601   0.41770   0.18025   0.00000  Uiso   1.00
H259   H     0.08783   0.35578   0.11637   0.00000  Uiso   1.00
H260   H     0.32490   0.56228   0.48699   0.00000  Uiso   1.00
H261   H     0.32702   0.66165   0.08510   0.00000  Uiso   1.00
H262   H     0.23924   0.36718   0.12527   0.00000  Uiso   1.00
H263   H     0.24326   0.42751   0.18818   0.00000  Uiso   1.00
H264   H     0.13620   0.48015   0.10618   0.00000  Uiso   1.00
H265   H     0.19702   0.52016   0.39389   0.00000  Uiso   1.00
H266   H     0.31796   0.54271   0.12981   0.00000  Uiso   1.00
H267   H     0.01547   0.45685   0.37006   0.00000  Uiso   1.00
H268   H     0.31765   0.43869   0.44342   0.00000  Uiso   1.00
H269   H     0.01587   0.56057   0.05636   0.00000  Uiso   1.00
H270   H     0.07739   0.45519   0.06226   0.00000  Uiso   1.00
N271   N     0.31506   0.51401   0.26212   0.00000  Uiso   1.00
N272   N     0.01827   0.48599   0.23788   0.00000  Uiso   1.00
O273   O     0.12815   0.57142   0.24686   0.00000  Uiso   1.00
O274   O     0.20518   0.42858   0.25314   0.00000  Uiso   1.00
O275   O     0.22829   0.58086   0.25502   0.00000  Uiso   1.00
O276   O     0.10504   0.41914   0.24497   0.00000  Uiso   1.00
O277   O     0.08851   0.49263   0.30854   0.00000  Uiso   1.00
O278   O     0.24482   0.50737   0.19145   0.00000  Uiso   1.00
O279   O     0.18866   0.50207   0.31671   0.00000  Uiso   1.00
O280   O     0.14468   0.49793   0.18329   0.00000  Uiso   1.00
C281   C     0.51554   0.60016   0.25132   0.00000  Uiso   1.00
C282   C     0.53673   0.50402   0.16778   0.00000  Uiso   1.00
C283   C     0.44263   0.48972   0.37768   0.00000  Uiso   1.00
C284   C     0.55738   0.51015   0.12228   0.00000  Uiso   1.00
C285   C     0.36442   0.45702   0.43353   0.00000  Uiso   1.00
C286   C     0.63572   0.54240   0.06630   0.00000  Uiso   1.00
C287   C     0.38211   0.46759   0.39176   0.00000  Uiso   1.00
C288   C     0.61797   0.53202   0.10812   0.00000  Uiso   1.00
C289   C     0.48464   0.50314   0.40634   0.00000  Uiso   1.00
C290   C     0.51536   0.49679   0.09364   0.00000  Uiso   1.00
C291   C     0.46784   0.49348   0.44906   0.00000  Uiso   1.00
C292   C     0.48446   0.39984   0.24868   0.00000  Uiso   1.00
C293   C     0.53226   0.50613   0.05081   0.00000  Uiso   1.00
C294   C     0.40676   0.46910   0.46199   0.00000  Uiso   1.00
C295   C     0.59339   0.53034   0.03784   0.00000  Uiso   1.00
C296   C     0.50996   0.50626   0.47885   0.00000  Uiso   1.00
C297   C     0.49019   0.49323   0.02098   0.00000  Uiso   1.00
C298   C     0.66044   0.55885   0.30253   0.00000  Uiso   1.00
C299   C     0.61349   0.58705   0.32745   0.00000  Uiso   1.00
C300   C     0.61723   0.62585   0.36689   0.00000  Uiso   1.00
C301   C     0.33630   0.64149   0.38455   0.00000  Uiso   1.00
C302   C     0.38509   0.61931   0.36186   0.00000  Uiso   1.00
C303   C     0.42913   0.46758   0.03177   0.00000  Uiso   1.00
C304   C     0.38080   0.58050   0.32232   0.00000  Uiso   1.00
C305   C     0.33954   0.44111   0.19749   0.00000  Uiso   1.00
C306   C     0.38649   0.41289   0.17259   0.00000  Uiso   1.00
C307   C     0.38268   0.37396   0.13322   0.00000  Uiso   1.00
C308   C     0.66357   0.35823   0.11561   0.00000  Uiso   1.00
C309   C     0.61482   0.38050   0.13826   0.00000  Uiso   1.00
C310   C     0.61917   0.41944   0.17771   0.00000  Uiso   1.00
C311   C     0.57108   0.53172   0.46800   0.00000  Uiso   1.00
C312   C     0.38842   0.45619   0.00290   0.00000  Uiso   1.00
C313   C     0.61179   0.54307   0.49686   0.00000  Uiso   1.00
C314   C     0.52339   0.65663   0.25184   0.00000  Uiso   1.00
C315   C     0.47661   0.34337   0.24816   0.00000  Uiso   1.00
C316   C     0.46327   0.49597   0.33222   0.00000  Uiso   1.00
Cu317  Cu    0.44071   0.49441   0.24516   0.00000  Uiso   1.00
Cu318  Cu    0.55929   0.50559   0.25483   0.00000  Uiso   1.00
H319   H     0.34203   0.43682   0.01272   0.00000  Uiso   1.00
H320   H     0.58959   0.54387   0.43743   0.00000  Uiso   1.00
H321   H     0.56785   0.34842   0.25520   0.00000  Uiso   1.00
H322   H     0.43215   0.65158   0.24480   0.00000  Uiso   1.00
H323   H     0.57067   0.58232   0.31975   0.00000  Uiso   1.00
H324   H     0.57874   0.64401   0.38377   0.00000  Uiso   1.00
H325   H     0.33947   0.33796   0.41513   0.00000  Uiso   1.00
H326   H     0.42732   0.63259   0.37487   0.00000  Uiso   1.00
H327   H     0.42340   0.57250   0.31182   0.00000  Uiso   1.00
H328   H     0.42934   0.41770   0.18025   0.00000  Uiso   1.00
H329   H     0.42116   0.35578   0.11637   0.00000  Uiso   1.00
H330   H     0.65823   0.56228   0.48699   0.00000  Uiso   1.00
H331   H     0.66035   0.66165   0.08510   0.00000  Uiso   1.00
H332   H     0.57257   0.36718   0.12527   0.00000  Uiso   1.00
H333   H     0.57660   0.42751   0.18818   0.00000  Uiso   1.00
H334   H     0.46954   0.48015   0.10618   0.00000  Uiso   1.00
H335   H     0.53035   0.52016   0.39389   0.00000  Uiso   1.00
H336   H     0.65129   0.54271   0.12981   0.00000  Uiso   1.00
H337   H     0.34880   0.45685   0.37006   0.00000  Uiso   1.00
H338   H     0.65099   0.43869   0.44342   0.00000  Uiso   1.00
H339   H     0.34920   0.56057   0.05636   0.00000  Uiso   1.00
H340   H     0.41072   0.45519   0.06226   0.00000  Uiso   1.00
N341   N     0.64839   0.51401   0.26212   0.00000  Uiso   1.00
N342   N     0.35161   0.48599   0.23788   0.00000  Uiso   1.00
O343   O     0.46148   0.57142   0.24686   0.00000  Uiso   1.00
O344   O     0.53852   0.42858   0.25314   0.00000  Uiso   1.00
O345   O     0.56163   0.58086   0.25502   0.00000  Uiso   1.00
O346   O     0.43837   0.41914   0.24497   0.00000  Uiso   1.00
O347   O     0.42185   0.49263   0.30854   0.00000  Uiso   1.00
O348   O     0.57815   0.50737   0.19145   0.00000  Uiso   1.00
O349   O     0.52199   0.50207   0.31671   0.00000  Uiso   1.00
O350   O     0.47801   0.49793   0.18329   0.00000  Uiso   1.00
C351   C     0.84887   0.60016   0.25132   0.00000  Uiso   1.00
C352   C     0.87006   0.50402   0.16778   0.00000  Uiso   1.00
C353   C     0.77596   0.48972   0.37768   0.00000  Uiso   1.00
C354   C     0.89071   0.51015   0.12228   0.00000  Uiso   1.00
C355   C     0.69776   0.45702   0.43353   0.00000  Uiso   1.00
C356   C     0.96905   0.54240   0.06630   0.00000  Uiso   1.00
C357   C     0.71544   0.46759   0.39176   0.00000  Uiso   1.00
C358   C     0.95130   0.53202   0.10812   0.00000  Uiso   1.00
C359   C     0.81797   0.50314   0.40634   0.00000  Uiso   1.00
C360   C     0.84869   0.49679   0.09364   0.00000  Uiso   1.00
C361   C     0.80117   0.49348   0.44906   0.00000  Uiso   1.00
C362   C     0.81779   0.39984   0.24868   0.00000  Uiso   1.00
C363   C     0.86560   0.50613   0.05081   0.00000  Uiso   1.00
C364   C     0.74009   0.46910   0.46199   0.00000  Uiso   1.00
C365   C     0.92672   0.53034   0.03784   0.00000  Uiso   1.00
C366   C     0.84329   0.50626   0.47885   0.00000  Uiso   1.00
C367   C     0.82352   0.49323   0.02098   0.00000  Uiso   1.00
C368   C     0.99378   0.55885   0.30253   0.00000  Uiso   1.00
C369   C     0.94682   0.58705   0.32745   0.00000  Uiso   1.00
C370   C     0.95056   0.62585   0.36689   0.00000  Uiso   1.00
C371   C     0.66963   0.64149   0.38455   0.00000  Uiso   1.00
C372   C     0.71843   0.61931   0.36186   0.00000  Uiso   1.00
C373   C     0.76246   0.46758   0.03177   0.00000  Uiso   1.00
C374   C     0.71414   0.58050   0.32232   0.00000  Uiso   1.00
C375   C     0.67287   0.44111   0.19749   0.00000  Uiso   1.00
C376   C     0.71982   0.41289   0.17259   0.00000  Uiso   1.00
C377   C     0.71601   0.37396   0.13322   0.00000  Uiso   1.00
C378   C     0.99691   0.35823   0.11561   0.00000  Uiso   1.00
C379   C     0.94815   0.38050   0.13826   0.00000  Uiso   1.00
C380   C     0.95250   0.41944   0.17771   0.00000  Uiso   1.00
C381   C     0.90442   0.53172   0.46800   0.00000  Uiso   1.00
C382   C     0.72176   0.45619   0.00290   0.00000  Uiso   1.00
C383   C     0.94512   0.54307   0.49686   0.00000  Uiso   1.00
C384   C     0.85672   0.65663   0.25184   0.00000  Uiso   1.00
C385   C     0.80994   0.34337   0.24816   0.00000  Uiso   1.00
C386   C     0.79661   0.49597   0.33222   0.00000  Uiso   1.00
Cu387  Cu    0.77404   0.49441   0.24516   0.00000  Uiso   1.00
Cu388  Cu    0.89263   0.50559   0.25483   0.00000  Uiso   1.00
H389   H     0.67536   0.43682   0.01272   0.00000  Uiso   1.00
H390   H     0.92293   0.54387   0.43743   0.00000  Uiso   1.00
H391   H     0.90118   0.34842   0.25520   0.00000  Uiso   1.00
H392   H     0.76548   0.65158   0.24480   0.00000  Uiso   1.00
H393   H     0.90400   0.58232   0.31975   0.00000  Uiso   1.00
H394   H     0.91207   0.64401   0.38377   0.00000  Uiso   1.00
H395   H     0.67280   0.33796   0.41513   0.00000  Uiso   1.00
H396   H     0.76066   0.63259   0.37487   0.00000  Uiso   1.00
H397   H     0.75674   0.57250   0.31182   0.00000  Uiso   1.00
H398   H     0.76268   0.41770   0.18025   0.00000  Uiso   1.00
H399   H     0.75450   0.35578   0.11637   0.00000  Uiso   1.00
H400   H     0.99157   0.56228   0.48699   0.00000  Uiso   1.00
H401   H     0.99368   0.66165   0.08510   0.00000  Uiso   1.00
H402   H     0.90590   0.36718   0.12527   0.00000  Uiso   1.00
H403   H     0.90993   0.42751   0.18818   0.00000  Uiso   1.00
H404   H     0.80287   0.48015   0.10618   0.00000  Uiso   1.00
H405   H     0.86369   0.52016   0.39389   0.00000  Uiso   1.00
H406   H     0.98462   0.54271   0.12981   0.00000  Uiso   1.00
H407   H     0.68213   0.45685   0.37006   0.00000  Uiso   1.00
H408   H     0.98432   0.43869   0.44342   0.00000  Uiso   1.00
H409   H     0.68253   0.56057   0.05636   0.00000  Uiso   1.00
H410   H     0.74406   0.45519   0.06226   0.00000  Uiso   1.00
N411   N     0.98173   0.51401   0.26212   0.00000  Uiso   1.00
N412   N     0.68494   0.48599   0.23788   0.00000  Uiso   1.00
O413   O     0.79482   0.57142   0.24686   0.00000  Uiso   1.00
O414   O     0.87185   0.42858   0.25314   0.00000  Uiso   1.00
O415   O     0.89496   0.58086   0.25502   0.00000  Uiso   1.00
O416   O     0.77171   0.41914   0.24497   0.00000  Uiso   1.00
O417   O     0.75518   0.49263   0.30854   0.00000  Uiso   1.00
O418   O     0.91149   0.50737   0.19145   0.00000  Uiso   1.00
O419   O     0.85532   0.50207   0.31671   0.00000  Uiso   1.00
O420   O     0.81134   0.49793   0.18329   0.00000  Uiso   1.00
C421   C     0.18221   0.93350   0.25132   0.00000  Uiso   1.00
C422   C     0.20339   0.83735   0.16778   0.00000  Uiso   1.00
C423   C     0.10929   0.82305   0.37768   0.00000  Uiso   1.00
C424   C     0.22405   0.84348   0.12228   0.00000  Uiso   1.00
C425   C     0.03109   0.79035   0.43353   0.00000  Uiso   1.00
C426   C     0.30239   0.87574   0.06630   0.00000  Uiso   1.00
C427   C     0.04878   0.80092   0.39176   0.00000  Uiso   1.00
C428   C     0.28463   0.86535   0.10812   0.00000  Uiso   1.00
C429   C     0.15130   0.83647   0.40634   0.00000  Uiso   1.00
C430   C     0.18203   0.83012   0.09364   0.00000  Uiso   1.00
C431   C     0.13451   0.82681   0.44906   0.00000  Uiso   1.00
C432   C     0.15113   0.73317   0.24868   0.00000  Uiso   1.00
C433   C     0.19893   0.83946   0.05081   0.00000  Uiso   1.00
C434   C     0.07343   0.80243   0.46199   0.00000  Uiso   1.00
C435   C     0.26006   0.86367   0.03784   0.00000  Uiso   1.00
C436   C     0.17662   0.83959   0.47885   0.00000  Uiso   1.00
C437   C     0.15685   0.82657   0.02098   0.00000  Uiso   1.00
C438   C     0.32711   0.89219   0.30253   0.00000  Uiso   1.00
C439   C     0.28015   0.92038   0.32745   0.00000  Uiso   1.00
C440   C     0.28390   0.95918   0.36689   0.00000  Uiso   1.00
C441   C     0.00297   0.97483   0.38455   0.00000  Uiso   1.00
C442   C     0.05176   0.95264   0.36186   0.00000  Uiso   1.00
C443   C     0.09580   0.80091   0.03177   0.00000  Uiso   1.00
C444   C     0.04747   0.91383   0.32232   0.00000  Uiso   1.00
C445   C     0.00620   0.77444   0.19749   0.00000  Uiso   1.00
C446   C     0.05316   0.74623   0.17259   0.00000  Uiso   1.00
C447   C     0.04935   0.70730   0.13322   0.00000  Uiso   1.00
C448   C     0.33024   0.69156   0.11561   0.00000  Uiso   1.00
C449   C     0.28148   0.71383   0.13826   0.00000  Uiso   1.00
C450   C     0.28583   0.75277   0.17771   0.00000  Uiso   1.00
C451   C     0.23775   0.86505   0.46800   0.00000  Uiso   1.00
C452   C     0.05509   0.78952   0.00290   0.00000  Uiso   1.00
C453   C     0.27846   0.87640   0.49686   0.00000  Uiso   1.00
C454   C     0.19006   0.98996   0.25184   0.00000  Uiso   1.00
C455   C     0.14328   0.67670   0.24816   0.00000  Uiso   1.00
C456   C     0.12994   0.82930   0.33222   0.00000  Uiso   1.00
Cu457  Cu    0.10737   0.82775   0.24516   0.00000  Uiso   1.00
Cu458  Cu    0.22596   0.83892   0.25483   0.00000  Uiso   1.00
H459   H     0.00870   0.77015   0.01272   0.00000  Uiso   1.00
H460   H     0.25626   0.87720   0.43743   0.00000  Uiso   1.00
H461   H     0.23452   0.68175   0.25520   0.00000  Uiso   1.00
H462   H     0.09882   0.98492   0.24480   0.00000  Uiso   1.00
H463   H     0.23734   0.91565   0.31975   0.00000  Uiso   1.00
H464   H     0.24540   0.97734   0.38377   0.00000  Uiso   1.00
H465   H     0.00613   0.67129   0.41513   0.00000  Uiso   1.00
H466   H     0.09399   0.96592   0.37487   0.00000  Uiso   1.00
H467   H     0.09007   0.90584   0.31182   0.00000  Uiso   1.00
H468   H     0.09601   0.75103   0.18025   0.00000  Uiso   1.00
H469   H     0.08783   0.68911   0.11637   0.00000  Uiso   1.00
H470   H     0.32490   0.89561   0.48699   0.00000  Uiso   1.00
H471   H     0.32702   0.99498   0.08510   0.00000  Uiso   1.00
H472   H     0.23924   0.70052   0.12527   0.00000  Uiso   1.00
H473   H     0.24326   0.76084   0.18818   0.00000  Uiso   1.00
H474   H     0.13620   0.81348   0.10618   0.00000  Uiso   1.00
H475   H     0.19702   0.85349   0.39389   0.00000  Uiso   1.00
H476   H     0.31796   0.87604   0.12981   0.00000  Uiso   1.00
H477   H     0.01547   0.79019   0.37006   0.00000  Uiso   1.00
H478   H     0.31765   0.77203   0.44342   0.00000  Uiso   1.00
H479   H     0.01587   0.89391   0.05636   0.00000  Uiso   1.00
H480   H     0.07739   0.78852   0.06226   0.00000  Uiso   1.00
N481   N     0.31506   0.84735   0.26212   0.00000  Uiso   1.00
N482   N     0.01827   0.81932   0.23788   0.00000  Uiso   1.00
O483   O     0.12815   0.90476   0.24686   0.00000  Uiso   1.00
O484   O     0.20518   0.76191   0.25314   0.00000  Uiso   1.00
O485   O     0.22829   0.91420   0.25502   0.00000  Uiso   1.00
O486   O     0.10504   0.75247   0.24497   0.00000  Uiso   1.00
O487   O     0.08851   0.82597   0.30854   0.00000  Uiso   1.00
O488   O     0.24482   0.84070   0.19145   0.00000  Uiso   1.00
O489   O     0.18866   0.83540   0.31671   0.00000  Uiso   1.00
O490   O     0.14468   0.83126   0.18329   0.00000  Uiso   1.00
C491   C     0.51554   0.93350   0.25132   0.00000  Uiso   1.00
C492   C     0.53673   0.83735   0.16778   0.00000  Uiso   1.00
C493   C     0.44263   0.82305   0.37768   0.00000  Uiso   1.00
C494   C     0.55738   0.84348   0.12228   0.00000  Uiso   1.00
C495   C     0.36442   0.79035   0.43353   0.00000  Uiso   1.00
C496   C     0.63572   0.87574   0.06630   0.00000  Uiso   1.00
C497   C     0.38211   0.80092   0.39176   0.00000  Uiso   1.00
C498   C     0.61797   0.86535   0.10812   0.00000  Uiso   1.00
C499   C     0.48464   0.83647   0.40634   0.00000  Uiso   1.00
C500   C     0.51536   0.83012   0.09364   0.00000  Uiso   1.00
C501   C     0.46784   0.82681   0.44906   0.00000  Uiso   1.00
C502   C     0.48446   0.73317   0.24868   0.00000  Uiso   1.00
C503   C     0.53226   0.83946   0.05081   0.00000  Uiso   1.00
C504   C     0.40676   0.80243   0.46199   0.00000  Uiso   1.00
C505   C     0.59339   0.86367   0.03784   0.00000  Uiso   1.00
C506   C     0.50996   0.83959   0.47885   0.00000  Uiso   1.00
C507   C     0.49019   0.82657   0.02098   0.00000  Uiso   1.00
C508   C     0.66044   0.89219   0.30253   0.00000  Uiso   1.00
C509   C     0.61349   0.92038   0.32745   0.00000  Uiso   1.00
C510   C     0.61723   0.95918   0.36689   0.00000  Uiso   1.00
C511   C     0.33630   0.97483   0.38455   0.00000  Uiso   1.00
C512   C     0.38509   0.95264   0.36186   0.00000  Uiso   1.00
C513   C     0.42913   0.80091   0.03177   0.00000  Uiso   1.00
C514   C     0.38080   0.91383   0.32232   0.00000  Uiso   1.00
C515   C     0.33954   0.77444   0.19749   0.00000  Uiso   1.00
C516   C     0.38649   0.74623   0.17259   0.00000  Uiso   1.00
C517   C     0.38268   0.70730   0.13322   0.00000  Uiso   1.00
C518   C     0.66357   0.69156   0.11561   0.00000  Uiso   1.00
C519   C     0.61482   0.71383   0.13826   0.00000  Uiso   1.00
C520   C     0.61917   0.75277   0.17771   0.00000  Uiso   1.00
C521   C     0.57108   0.86505   0.46800   0.00000  Uiso   1.00
C522   C     0.38842   0.78952   0.00290   0.00000  Uiso   1.00
C523   C     0.61179   0.87640   0.49686   0.00000  Uiso   1.00
C524   C     0.52339   0.98996   0.25184   0.00000  Uiso   1.00
C525   C     0.47661   0.67670   0.24816   0.00000  Uiso   1.00
C526   C     0.46327   0.82930   0.33222   0.00000  Uiso   1.00
Cu527  Cu    0.44071   0.82775   0.24516   0.00000  Uiso   1.00
Cu528  Cu    0.55929   0.83892   0.25483   0.00000  Uiso   1.00
H529   H     0.34203   0.77015   0.01272   0.00000  Uiso   1.00
H530   H     0.58959   0.87720   0.43743   0.00000  Uiso   1.00
H531   H     0.56785   0.68175   0.25520   0.00000  Uiso   1.00
H532   H     0.43215   0.98492   0.24480   0.00000  Uiso   1.00
H533   H     0.57067   0.91565   0.31975   0.00000  Uiso   1.00
H534   H     0.57874   0.97734   0.38377   0.00000  Uiso   1.00
H535   H     0.33947   0.67129   0.41513   0.00000  Uiso   1.00
H536   H     0.42732   0.96592   0.37487   0.00000  Uiso   1.00
H537   H     0.42340   0.90584   0.31182   0.00000  Uiso   1.00
H538   H     0.42934   0.75103   0.18025   0.00000  Uiso   1.00
H539   H     0.42116   0.68911   0.11637   0.00000  Uiso   1.00
H540   H     0.65823   0.89561   0.48699   0.00000  Uiso   1.00
H541   H     0.66035   0.99498   0.08510   0.00000  Uiso   1.00
H542   H     0.57257   0.70052   0.12527   0.00000  Uiso   1.00
H543   H     0.57660   0.76084   0.18818   0.00000  Uiso   1.00
H544   H     0.46954   0.81348   0.10618   0.00000  Uiso   1.00
H545   H     0.53035   0.85349   0.39389   0.00000  Uiso   1.00
H546   H     0.65129   0.87604   0.12981   0.00000  Uiso   1.00
H547   H     0.34880   0.79019   0.37006   0.00000  Uiso   1.00
H548   H     0.65099   0.77203   0.44342   0.00000  Uiso   1.00
H549   H     0.34920   0.89391   0.05636   0.00000  Uiso   1.00
H550   H     0.41072   0.78852   0.06226   0.00000  Uiso   1.00
N551   N     0.64839   0.84735   0.26212   0.00000  Uiso   1.00
N552   N     0.35161   0.81932   0.23788   0.00000  Uiso   1.00
O553   O     0.46148   0.90476   0.24686   0.00000  Uiso   1.00
O554   O     0.53852   0.76191   0.25314   0.00000  Uiso   1.00
O555   O     0.56163   0.91420   0.25502   0.00000  Uiso   1.00
O556   O     0.43837   0.75247   0.24497   0.00000  Uiso   1.00
O557   O     0.42185   0.82597   0.30854   0.00000  Uiso   1.00
O558   O     0.57815   0.84070   0.19145   0.00000  Uiso   1.00
O559   O     0.52199   0.83540   0.31671   0.00000  Uiso   1.00
O560   O     0.47801   0.83126   0.18329   0.00000  Uiso   1.00
C561   C     0.84887   0.93350   0.25132   0.00000  Uiso   1.00
C562   C     0.87006   0.83735   0.16778   0.00000  Uiso   1.00
C563   C     0.77596   0.82305   0.37768   0.00000  Uiso   1.00
C564   C     0.89071   0.84348   0.12228   0.00000  Uiso   1.00
C565   C     0.69776   0.79035   0.43353   0.00000  Uiso   1.00
C566   C     0.96905   0.87574   0.06630   0.00000  Uiso   1.00
C567   C     0.71544   0.80092   0.39176   0.00000  Uiso   1.00
C568   C     0.95130   0.86535   0.10812   0.00000  Uiso   1.00
C569   C     0.81797   0.83647   0.40634   0.00000  Uiso   1.00
C570   C     0.84869   0.83012   0.09364   0.00000  Uiso   1.00
C571   C     0.80117   0.82681   0.44906   0.00000  Uiso   1.00
C572   C     0.81779   0.73317   0.24868   0.00000  Uiso   1.00
C573   C     0.86560   0.83946   0.05081   0.00000  Uiso   1.00
C574   C     0.74009   0.80243   0.46199   0.00000  Uiso   1.00
C575   C     0.92672   0.86367   0.03784   0.00000  Uiso   1.00
C576   C     0.84329   0.83959   0.47885   0.00000  Uiso   1.00
C577   C     0.82352   0.82657   0.02098   0.00000  Uiso   1.00
C578   C     0.99378   0.89219   0.30253   0.00000  Uiso   1.00
C579   C     0.94682   0.92038   0.32745   0.00000  Uiso   1.00
C580   C     0.95056   0.95918   0.36689   0.00000  Uiso   1.00
C581   C     0.66963   0.97483   0.38455   0.00000  Uiso   1.00
C582   C     0.71843   0.95264   0.36186   0.00000  Uiso   1.00
C583   C     0.76246   0.80091   0.03177   0.00000  Uiso   1.00
C584   C     0.71414   0.91383   0.32232   0.00000  Uiso   1.00
C585   C     0.67287   0.77444   0.19749   0.00000  Uiso   1.00
C586   C     0.71982   0.74623   0.17259   0.00000  Uiso   1.00
C587   C     0.71601   0.70730   0.13322   0.00000  Uiso   1.00
C588   C     0.99691   0.69156   0.11561   0.00000  Uiso   1.00
C589   C     0.94815   0.71383   0.13826   0.00000  Uiso   1.00
C590   C     0.95250   0.75277   0.17771   0.00000  Uiso   1.00
C591   C     0.90442   0.86505   0.46800   0.00000  Uiso   1.00
C592   C     0.72176   0.78952   0.00290   0.00000  Uiso   1.00
C593   C     0.94512   0.87640   0.49686   0.00000  Uiso   1.00
C594   C     0.85672   0.98996   0.25184   0.00000  Uiso   1.00
C595   C     0.80994   0.67670   0.24816   0.00000  Uiso   1.00
C596   C     0.79661   0.82930   0.33222   0.00000  Uiso   1.00
Cu597  Cu    0.77404   0.82775   0.24516   0.00000  Uiso   1.00
Cu598  Cu    0.89263   0.83892   0.25483   0.00000  Uiso   1.00
H599   H     0.67536   0.77015   0.01272   0.00000  Uiso   1.00
H600   H     0.92293   0.87720   0.43743   0.00000  Uiso   1.00
H601   H     0.90118   0.68175   0.25520   0.00000  Uiso   1.00
H602   H     0.76548   0.98492   0.24480   0.00000  Uiso   1.00
H603   H     0.90400   0.91565   0.31975   0.00000  Uiso   1.00
H604   H     0.91207   0.97734   0.38377   0.00000  Uiso   1.00
H605   H     0.67280   0.67129   0.41513   0.00000  Uiso   1.00
H606   H     0.76066   0.96592   0.37487   0.00000  Uiso   1.00
H607   H     0.75674   0.90584   0.31182   0.00000  Uiso   1.00
H608   H     0.76268   0.75103   0.18025   0.00000  Uiso   1.00
H609   H     0.75450   0.68911   0.11637   0.00000  Uiso   1.00
H610   H     0.99157   0.89561   0.48699   0.00000  Uiso   1.00
H611   H     0.99368   0.99498   0.08510   0.00000  Uiso   1.00
H612   H     0.90590   0.70052   0.12527   0.00000  Uiso   1.00
H613   H     0.90993   0.76084   0.18818   0.00000  Uiso   1.00
H614   H     0.80287   0.81348   0.10618   0.00000  Uiso   1.00
H615   H     0.86369   0.85349   0.39389   0.00000  Uiso   1.00
H616   H     0.98462   0.87604   0.12981   0.00000  Uiso   1.00
H617   H     0.68213   0.79019   0.37006   0.00000  Uiso   1.00
H618   H     0.98432   0.77203   0.44342   0.00000  Uiso   1.00
H619   H     0.68253   0.89391   0.05636   0.00000  Uiso   1.00
H620   H     0.74406   0.78852   0.06226   0.00000  Uiso   1.00
N621   N     0.98173   0.84735   0.26212   0.00000  Uiso   1.00
N622   N     0.68494   0.81932   0.23788   0.00000  Uiso   1.00
O623   O     0.79482   0.90476   0.24686   0.00000  Uiso   1.00
O624   O     0.87185   0.76191   0.25314   0.00000  Uiso   1.00
O625   O     0.89496   0.91420   0.25502   0.00000  Uiso   1.00
O626   O     0.77171   0.75247   0.24497   0.00000  Uiso   1.00
O627   O     0.75518   0.82597   0.30854   0.00000  Uiso   1.00
O628   O     0.91149   0.84070   0.19145   0.00000  Uiso   1.00
O629   O     0.85532   0.83540   0.31671   0.00000  Uiso   1.00
O630   O     0.81134   0.83126   0.18329   0.00000  Uiso   1.00
C631   C     0.18221   0.26683   0.75132   0.00000  Uiso   1.00
C632   C     0.20339   0.17069   0.66778   0.00000  Uiso   1.00
C633   C     0.10929   0.15638   0.87768   0.00000  Uiso   1.00
C634   C     0.22405   0.17682   0.62228   0.00000  Uiso   1.00
C635   C     0.03109   0.12369   0.93353   0.00000  Uiso   1.00
C636   C     0.30239   0.20907   0.56630   0.00000  Uiso   1.00
C637   C     0.04878   0.13425   0.89176   0.00000  Uiso   1.00
C638   C     0.28463   0.19869   0.60812   0.00000  Uiso   1.00
C639   C     0.15130   0.16981   0.90634   0.00000  Uiso   1.00
C640   C     0.18203   0.16346   0.59364   0.00000  Uiso   1.00
C641   C     0.13451   0.16014   0.94906   0.00000  Uiso   1.00
C642   C     0.15113   0.06650   0.74868   0.00000  Uiso   1.00
C643   C     0.19893   0.17279   0.55081   0.00000  Uiso   1.00
C644   C     0.07343   0.13576   0.96199   0.00000  Uiso   1.00
C645   C     0.26006   0.19700   0.53784   0.00000  Uiso   1.00
C646   C     0.17662   0.17293   0.97885   0.00000  Uiso   1.00
C647   C     0.15685   0.15990   0.52098   0.00000  Uiso   1.00
C648   C     0.32711   0.22552   0.80253   0.00000  Uiso   1.00
C649   C     0.28015   0.25371   0.82745   0.00000  Uiso   1.00
C650   C     0.28390   0.29252   0.86689   0.00000  Uiso   1.00
C651   C     0.00297   0.30816   0.88455   0.00000  Uiso   1.00
C652   C     0.05176   0.28598   0.86186   0.00000  Uiso   1.00
C653   C     0.09580   0.13424   0.53177   0.00000  Uiso   1.00
C654   C     0.04747   0.24717   0.82232   0.00000  Uiso   1.00
C655   C     0.00620   0.10778   0.69749   0.00000  Uiso   1.00
C656   C     0.05316   0.07956   0.67259   0.00000  Uiso   1.00
C657   C     0.04935   0.04063   0.63322   0.00000  Uiso   1.00
C658   C     0.33024   0.02490   0.61561   0.00000  Uiso   1.00
C659   C     0.28148   0.04716   0.63826   0.00000  Uiso   1.00
C660   C     0.28583   0.08611   0.67771   0.00000  Uiso   1.00
C661   C     0.23775   0.19838   0.96800   0.00000  Uiso   1.00
C662   C     0.05509   0.12285   0.50290   0.00000  Uiso   1.00
C663   C     0.27846   0.20974   0.99686   0.00000  Uiso   1.00
C664   C     0.19006   0.32330   0.75184   0.00000  Uiso   1.00
C665   C     0.14328   0.01003   0.74816   0.00000  Uiso   1.00
C666   C     0.12994   0.16264   0.83222   0.00000  Uiso   1.00
Cu667  Cu    0.10737   0.16108   0.74516   0.00000  Uiso   1.00
Cu668  Cu    0.22596   0.17225   0.75483   0.00000  Uiso   1.00
H669   H     0.00870   0.10348   0.51272   0.00000  Uiso   1.00
H670   H     0.25626   0.21054   0.93743   0.00000  Uiso   1.00
H671   H     0.23452   0.01508   0.75520   0.00000  Uiso   1.00
H672   H     0.09882   0.31825   0.74480   0.00000  Uiso   1.00
H673   H     0.23734   0.24898   0.81975   0.00000  Uiso   1.00
H674   H     0.24540   0.31067   0.88377   0.00000  Uiso   1.00
H675   H     0.00613   0.00463   0.91513   0.00000  Uiso   1.00
H676   H     0.09399   0.29926   0.87487   0.00000  Uiso   1.00
H677   H     0.09007   0.23917   0.81182   0.00000  Uiso   1.00
H678   H     0.09601   0.08436   0.68025   0.00000  Uiso   1.00
H679   H     0.08783   0.02245   0.61637   0.00000  Uiso   1.00
H680   H     0.32490   0.22895   0.98699   0.00000  Uiso   1.00
H681   H     0.32702   0.32832   0.58510   0.00000  Uiso   1.00
H682   H     0.23924   0.03385   0.62527   0.00000  Uiso   1.00
H683   H     0.24326   0.09417   0.68818   0.00000  Uiso   1.00
H684   H     0.13620   0.14681   0.60618   0.00000  Uiso   1.00
H685   H     0.19702   0.18682   0.89389   0.00000  Uiso   1.00
H686   H     0.31796   0.20937   0.62981   0.00000  Uiso   1.00
H687   H     0.01547   0.12352   0.87006   0.00000  Uiso   1.00
H688   H     0.31765   0.10536   0.94342   0.00000  Uiso   1.00
H689   H     0.01587   0.22724   0.55636   0.00000  Uiso   1.00
H690   H     0.07739   0.12186   0.56226   0.00000  Uiso   1.00
N691   N     0.31506   0.18068   0.76212   0.00000  Uiso   1.00
N692   N     0.01827   0.15265   0.73788   0.00000  Uiso   1.00
O693   O     0.12815   0.23809   0.74686   0.00000  Uiso   1.00
O694   O     0.20518   0.09524   0.75314   0.00000  Uiso   1.00
O695   O     0.22829   0.24753   0.75502   0.00000  Uiso   1.00
O696   O     0.10504   0.08580   0.74497   0.00000  Uiso   1.00
O697   O     0.08851   0.15930   0.80854   0.00000  Uiso   1.00
O698   O     0.24482   0.17403   0.69145   0.00000  Uiso   1.00
O699   O     0.18866   0.16874   0.81671   0.00000  Uiso   1.00
O700   O     0.14468   0.16460   0.68329   0.00000  Uiso   1.00
C701   C     0.51554   0.26683   0.75132   0.00000  Uiso   1.00
C702   C     0.53673   0.17069   0.66778   0.00000  Uiso   1.00
C703   C     0.44263   0.15638   0.87768   0.00000  Uiso   1.00
C704   C     0.55738   0.17682   0.62228   0.00000  Uiso   1.00
C705   C     0.36442   0.12369   0.93353   0.00000  Uiso   1.00
C706   C     0.63572   0.20907   0.56630   0.00000  Uiso   1.00
C707   C     0.38211   0.13425   0.89176   0.00000  Uiso   1.00
C708   C     0.61797   0.19869   0.60812   0.00000  Uiso   1.00
C709   C     0.48464   0.16981   0.90634   0.00000  Uiso   1.00
C710   C     0.51536   0.16346   0.59364   0.00000  Uiso   1.00
C711   C     0.46784   0.16014   0.94906   0.00000  Uiso   1.00
C712   C     0.48446   0.06650   0.74868   0.00000  Uiso   1.00
C713   C     0.53226   0.17279   0.55081   0.00000  Uiso   1.00
C714   C     0.40676   0.13576   0.96199   0.00000  Uiso   1.00
C715   C     0.59339   0.19700   0.53784   0.00000  Uiso   1.00
C716   C     0.50996   0.17293   0.97885   0.00000  Uiso   1.00
C717   C     0.49019   0.15990   0.52098   0.00000  Uiso   1.00
C718   C     0.66044   0.22552   0.80253   0.00000  Uiso   1.00
C719   C     0.61349   0.25371   0.82745   0.00000  Uiso   1.00
C720   C     0.61723   0.29252   0.86689   0.00000  Uiso   1.00
C721   C     0.33630   0.30816   0.88455   0.00000  Uiso   1.00
C722   C     0.38509   0.28598   0.86186   0.00000  Uiso   1.00
C723   C     0.42913   0.13424   0.53177   0.00000  Uiso   1.00
C724   C     0.38080   0.24717   0.82232   0.00000  Uiso   1.00
C725   C     0.33954   0.10778   0.69749   0.00000  Uiso   1.00
C726   C     0.38649   0.07956   0.67259   0.00000  Uiso   1.00
C727   C     0.38268   0.04063   0.63322   0.00000  Uiso   1.00
C728   C     0.66357   0.02490   0.61561   0.00000  Uiso   1.00
C729   C     0.61482   0.04716   0.63826   0.00000  Uiso   1.00
C730   C     0.61917   0.08611   0.67771   0.00000  Uiso   1.00
C731   C     0.57108   0.19838   0.96800   0.00000  Uiso   1.00
C732   C     0.38842   0.12285   0.50290   0.00000  Uiso   1.00
C733   C     0.61179   0.20974   0.99686   0.00000  Uiso   1.00
C734   C     0.52339   0.32330   0.75184   0.00000  Uiso   1.00
C735   C     0.47661   0.01003   0.74816   0.00000  Uiso   1.00
C736   C     0.46327   0.16264   0.83222   0.00000  Uiso   1.00
Cu737  Cu    0.44071   0.16108   0.74516   0.00000  Uiso   1.00
Cu738  Cu    0.55929   0.17225   0.75483   0.00000  Uiso   1.00
H739   H     0.34203   0.10348   0.51272   0.00000  Uiso   1.00
H740   H     0.58959   0.21054   0.93743   0.00000  Uiso   1.00
H741   H     0.56785   0.01508   0.75520   0.00000  Uiso   1.00
H742   H     0.43215   0.31825   0.74480   0.00000  Uiso   1.00
H743   H     0.57067   0.24898   0.81975   0.00000  Uiso   1.00
H744   H     0.57874   0.31067   0.88377   0.00000  Uiso   1.00
H745   H     0.33947   0.00463   0.91513   0.00000  Uiso   1.00
H746   H     0.42732   0.29926   0.87487   0.00000  Uiso   1.00
H747   H     0.42340   0.23917   0.81182   0.00000  Uiso   1.00
H748   H     0.42934   0.08436   0.68025   0.00000  Uiso   1.00
H749   H     0.42116   0.02245   0.61637   0.00000  Uiso   1.00
H750   H     0.65823   0.22895   0.98699   0.00000  Uiso   1.00
H751   H     0.66035   0.32832   0.58510   0.00000  Uiso   1.00
H752   H     0.57257   0.03385   0.62527   0.00000  Uiso   1.00
H753   H     0.57660   0.09417   0.68818   0.00000  Uiso   1.00
H754   H     0.46954   0.14681   0.60618   0.00000  Uiso   1.00
H755   H     0.53035   0.18682   0.89389   0.00000  Uiso   1.00
H756   H     0.65129   0.20937   0.62981   0.00000  Uiso   1.00
H757   H     0.34880   0.12352   0.87006   0.00000  Uiso   1.00
H758   H     0.65099   0.10536   0.94342   0.00000  Uiso   1.00
H759   H     0.34920   0.22724   0.55636   0.00000  Uiso   1.00
H760   H     0.41072   0.12186   0.56226   0.00000  Uiso   1.00
N761   N     0.64839   0.18068   0.76212   0.00000  Uiso   1.00
N762   N     0.35161   0.15265   0.73788   0.00000  Uiso   1.00
O763   O     0.46148   0.23809   0.74686   0.00000  Uiso   1.00
O764   O     0.53852   0.09524   0.75314   0.00000  Uiso   1.00
O765   O     0.56163   0.24753   0.75502   0.00000  Uiso   1.00
O766   O     0.43837   0.08580   0.74497   0.00000  Uiso   1.00
O767   O     0.42185   0.15930   0.80854   0.00000  Uiso   1.00
O768   O     0.57815   0.17403   0.69145   0.00000  Uiso   1.00
O769   O     0.52199   0.16874   0.81671   0.00000  Uiso   1.00
O770   O     0.47801   0.16460   0.68329   0.00000  Uiso   1.00
C771   C     0.84887   0.26683   0.75132   0.00000  Uiso   1.00
C772   C     0.87006   0.17069   0.66778   0.00000  Uiso   1.00
C773   C     0.77596   0.15638   0.87768   0.00000  Uiso   1.00
C774   C     0.89071   0.17682   0.62228   0.00000  Uiso   1.00
C775   C     0.69776   0.12369   0.93353   0.00000  Uiso   1.00
C776   C     0.96905   0.20907   0.56630   0.00000  Uiso   1.00
C777   C     0.71544   0.13425   0.89176   0.00000  Uiso   1.00
C778   C     0.95130   0.19869   0.60812   0.00000  Uiso   1.00
C779   C     0.81797   0.16981   0.90634   0.00000  Uiso   1.00
C780   C     0.84869   0.16346   0.59364   0.00000  Uiso   1.00
C781   C     0.80117   0.16014   0.94906   0.00000  Uiso   1.00
C782   C     0.81779   0.06650   0.74868   0.00000  Uiso   1.00
C783   C     0.86560   0.17279   0.55081   0.00000  Uiso   1.00
C784   C     0.74009   0.13576   0.96199   0.00000  Uiso   1.00
C785   C     0.92672   0.19700   0.53784   0.00000  Uiso   1.00
C786   C     0.84329   0.17293   0.97885   0.00000  Uiso   1.00
C787   C     0.82352   0.15990   0.52098   0.00000  Uiso   1.00
C788   C     0.99378   0.22552   0.80253   0.00000  Uiso   1.00
C789   C     0.94682   0.25371   0.82745   0.00000  Uiso   1.00
C790   C     0.95056   0.29252   0.86689   0.00000  Uiso   1.00
C791   C     0.66963   0.30816   0.88455   0.00000  Uiso   1.00
C792   C     0.71843   0.28598   0.86186   0.00000  Uiso   1.00
C793   C     0.76246   0.13424   0.53177   0.00000  Uiso   1.00
C794   C     0.71414   0.24717   0.82232   0.00000  Uiso   1.00
C795   C     0.67287   0.10778   0.69749   0.00000  Uiso   1.00
C796   C     0.71982   0.07956   0.67259   0.00000  Uiso   1.00
C797   C     0.71601   0.04063   0.63322   0.00000  Uiso   1.00
C798   C     0.99691   0.02490   0.61561   0.00000  Uiso   1.00
C799   C     0.94815   0.04716   0.63826   0.00000  Uiso   1.00
C800   C     0.95250   0.08611   0.67771   0.00000  Uiso   1.00
C801   C     0.90442   0.19838   0.96800   0.00000  Uiso   1.00
C802   C     0.72176   0.12285   0.50290   0.00000  Uiso   1.00
C803   C     0.94512   0.20974   0.99686   0.00000  Uiso   1.00
C804   C     0.85672   0.32330   0.75184   0.00000  Uiso   1.00
C805   C     0.80994   0.01003   0.74816   0.00000  Uiso   1.00
C806   C     0.79661   0.16264   0.83222   0.00000  Uiso   1.00
Cu807  Cu    0.77404   0.16108   0.74516   0.00000  Uiso   1.00
Cu808  Cu    0.89263   0.17225   0.75483   0.00000  Uiso   1.00
H809   H     0.67536   0.10348   0.51272   0.00000  Uiso   1.00
H810   H     0.92293   0.21054   0.93743   0.00000  Uiso   1.00
H811   H     0.90118   0.01508   0.75520   0.00000  Uiso   1.00
H812   H     0.76548   0.31825   0.74480   0.00000  Uiso   1.00
H813   H     0.90400   0.24898   0.81975   0.00000  Uiso   1.00
H814   H     0.91207   0.31067   0.88377   0.00000  Uiso   1.00
H815   H     0.67280   0.00463   0.91513   0.00000  Uiso   1.00
H816   H     0.76066   0.29926   0.87487   0.00000  Uiso   1.00
H817   H     0.75674   0.23917   0.81182   0.00000  Uiso   1.00
H818   H     0.76268   0.08436   0.68025   0.00000  Uiso   1.00
H819   H     0.75450   0.02245   0.61637   0.00000  Uiso   1.00
H820   H     0.99157   0.22895   0.98699   0.00000  Uiso   1.00
H821   H     0.99368   0.32832   0.58510   0.00000  Uiso   1.00
H822   H     0.90590   0.03385   0.62527   0.00000  Uiso   1.00
H823   H     0.90993   0.09417   0.68818   0.00000  Uiso   1.00
H824   H     0.80287   0.14681   0.60618   0.00000  Uiso   1.00
H825   H     0.86369   0.18682   0.89389   0.00000  Uiso   1.00
H826   H     0.98462   0.20937   0.62981   0.00000  Uiso   1.00
H827   H     0.68213   0.12352   0.87006   0.00000  Uiso   1.00
H828   H     0.98432   0.10536   0.94342   0.00000  Uiso   1.00
H829   H     0.68253   0.22724   0.55636   0.00000  Uiso   1.00
H830   H     0.74406   0.12186   0.56226   0.00000  Uiso   1.00
N831   N     0.98173   0.18068   0.76212   0.00000  Uiso   1.00
N832   N     0.68494   0.15265   0.73788   0.00000  Uiso   1.00
O833   O     0.79482   0.23809   0.74686   0.00000  Uiso   1.00
O834   O     0.87185   0.09524   0.75314   0.00000  Uiso   1.00
O835   O     0.89496   0.24753   0.75502   0.00000  Uiso   1.00
O836   O     0.77171   0.08580   0.74497   0.00000  Uiso   1.00
O837   O     0.75518   0.15930   0.80854   0.00000  Uiso   1.00
O838   O     0.91149   0.17403   0.69145   0.00000  Uiso   1.00
O839   O     0.85532   0.16874   0.81671   0.00000  Uiso   1.00
O840   O     0.81134   0.16460   0.68329   0.00000  Uiso   1.00
C841   C     0.18221   0.60016   0.75132   0.00000  Uiso   1.00
C842   C     0.20339   0.50402   0.66778   0.00000  Uiso   1.00
C843   C     0.10929   0.48972   0.87768   0.00000  Uiso   1.00
C844   C     0.22405   0.51015   0.62228   0.00000  Uiso   1.00
C845   C     0.03109   0.45702   0.93353   0.00000  Uiso   1.00
C846   C     0.30239   0.54240   0.56630   0.00000  Uiso   1.00
C847   C     0.04878   0.46759   0.89176   0.00000  Uiso   1.00
C848   C     0.28463   0.53202   0.60812   0.00000  Uiso   1.00
C849   C     0.15130   0.50314   0.90634   0.00000  Uiso   1.00
C850   C     0.18203   0.49679   0.59364   0.00000  Uiso   1.00
C851   C     0.13451   0.49348   0.94906   0.00000  Uiso   1.00
C852   C     0.15113   0.39984   0.74868   0.00000  Uiso   1.00
C853   C     0.19893   0.50613   0.55081   0.00000  Uiso   1.00
C854   C     0.07343   0.46910   0.96199   0.00000  Uiso   1.00
C855   C     0.26006   0.53034   0.53784   0.00000  Uiso   1.00
C856   C     0.17662   0.50626   0.97885   0.00000  Uiso   1.00
C857   C     0.15685   0.49323   0.52098   0.00000  Uiso   1.00
C858   C     0.32711   0.55885   0.80253   0.00000  Uiso   1.00
C859   C     0.28015   0.58705   0.82745   0.00000  Uiso   1.00
C860   C     0.28390   0.62585   0.86689   0.00000  Uiso   1.00
C861   C     0.00297   0.64149   0.88455   0.00000  Uiso   1.00
C862   C     0.05176   0.61931   0.86186   0.00000  Uiso   1.00
C863   C     0.09580   0.46758   0.53177   0.00000  Uiso   1.00
C864   C     0.04747   0.58050   0.82232   0.00000  Uiso   1.00
C865   C     0.00620   0.44111   0.69749   0.00000  Uiso   1.00
C866   C     0.05316   0.41289   0.67259   0.00000  Uiso   1.00
C867   C     0.04935   0.37396   0.63322   0.00000  Uiso   1.00
C868   C     0.33024   0.35823   0.61561   0.00000  Uiso   1.00
C869   C     0.28148   0.38050   0.63826   0.00000  Uiso   1.00
C870   C     0.28583   0.41944   0.67771   0.00000  Uiso   1.00
C871   C     0.23775   0.53172   0.96800   0.00000  Uiso   1.00
C872   C     0.05509   0.45619   0.50290   0.00000  Uiso   1.00
C873   C     0.27846   0.54307   0.99686   0.00000  Uiso   1.00
C874   C     0.19006   0.65663   0.75184   0.00000  Uiso   1.00
C875   C     0.14328   0.34337   0.74816   0.00000  Uiso   1.00
C876   C     0.12994   0.49597   0.83222   0.00000  Uiso   1.00
Cu877  Cu    0.10737   0.49441   0.74516   0.00000  Uiso   1.00
Cu878  Cu    0.22596   0.50559   0.75483   0.00000  Uiso   1.00
H879   H     0.00870   0.43682   0.51272   0.00000  Uiso   1.00
H880   H     0.25626   0.54387   0.93743   0.00000  Uiso   1.00
H881   H     0.23452   0.34842   0.75520   0.00000  Uiso   1.00
H882   H     0.09882   0.65158   0.74480   0.00000  Uiso   1.00
H883   H     0.23734   0.58232   0.81975   0.00000  Uiso   1.00
H884   H     0.24540   0.64401   0.88377   0.00000  Uiso   1.00
H885   H     0.00613   0.33796   0.91513   0.00000  Uiso   1.00
H886   H     0.09399   0.63259   0.87487   0.00000  Uiso   1.00
H887   H     0.09007   0.57250   0.81182   0.00000  Uiso   1.00
H888   H     0.09601   0.41770   0.68025   0.00000  Uiso   1.00
H889   H     0.08783   0.35578   0.61637   0.00000  Uiso   1.00
H890   H     0.32490   0.56228   0.98699   0.00000  Uiso   1.00
H891   H     0.32702   0.66165   0.58510   0.00000  Uiso   1.00
H892   H     0.23924   0.36718   0.62527   0.00000  Uiso   1.00
H893   H     0.24326   0.42751   0.68818   0.00000  Uiso   1.00
H894   H     0.13620   0.48015   0.60618   0.00000  Uiso   1.00
H895   H     0.19702   0.52016   0.89389   0.00000  Uiso   1.00
H896   H     0.31796   0.54271   0.62981   0.00000  Uiso   1.00
H897   H     0.01547   0.45685   0.87006   0.00000  Uiso   1.00
H898   H     0.31765   0.43869   0.94342   0.00000  Uiso   1.00
H899   H     0.01587   0.56057   0.55636   0.00000  Uiso   1.00
H900   H     0.07739   0.45519   0.56226   0.00000  Uiso   1.00
N901   N     0.31506   0.51401   0.76212   0.00000  Uiso   1.00
N902   N     0.01827   0.48599   0.73788   0.00000  Uiso   1.00
O903   O     0.12815   0.57142   0.74686   0.00000  Uiso   1.00
O904   O     0.20518   0.42858   0.75314   0.00000  Uiso   1.00
O905   O     0.22829   0.58086   0.75502   0.00000  Uiso   1.00
O906   O     0.10504   0.41914   0.74497   0.00000  Uiso   1.00
O907   O     0.08851   0.49263   0.80854   0.00000  Uiso   1.00
O908   O     0.24482   0.50737   0.69145   0.00000  Uiso   1.00
O909   O     0.18866   0.50207   0.81671   0.00000  Uiso   1.00
O910   O     0.14468   0.49793   0.68329   0.00000  Uiso   1.00
C911   C     0.51554   0.60016   0.75132   0.00000  Uiso   1.00
C912   C     0.53673   0.50402   0.66778   0.00000  Uiso   1.00
C913   C     0.44263   0.48972   0.87768   0.00000  Uiso   1.00
C914   C     0.55738   0.51015   0.62228   0.00000  Uiso   1.00
C915   C     0.36442   0.45702   0.93353   0.00000  Uiso   1.00
C916   C     0.63572   0.54240   0.56630   0.00000  Uiso   1.00
C917   C     0.38211   0.46759   0.89176   0.00000  Uiso   1.00
C918   C     0.61797   0.53202   0.60812   0.00000  Uiso   1.00
C919   C     0.48464   0.50314   0.90634   0.00000  Uiso   1.00
C920   C     0.51536   0.49679   0.59364   0.00000  Uiso   1.00
C921   C     0.46784   0.49348   0.94906   0.00000  Uiso   1.00
C922   C     0.48446   0.39984   0.74868   0.00000  Uiso   1.00
C923   C     0.53226   0.50613   0.55081   0.00000  Uiso   1.00
C924   C     0.40676   0.46910   0.96199   0.00000  Uiso   1.00
C925   C     0.59339   0.53034   0.53784   0.00000  Uiso   1.00
C926   C     0.50996   0.50626   0.97885   0.00000  Uiso   1.00
C927   C     0.49019   0.49323   0.52098   0.00000  Uiso   1.00
C928   C     0.66044   0.55885   0.80253   0.00000  Uiso   1.00
C929   C     0.61349   0.58705   0.82745   0.00000  Uiso   1.00
C930   C     0.61723   0.62585   0.86689   0.00000  Uiso   1.00
C931   C     0.33630   0.64149   0.88455   0.00000  Uiso   1.00
C932   C     0.38509   0.61931   0.86186   0.00000  Uiso   1.00
C933   C     0.42913   0.46758   0.53177   0.00000  Uiso   1.00
C934   C     0.38080   0.58050   0.82232   0.00000  Uiso   1.00
C935   C     0.33954   0.44111   0.69749   0.00000  Uiso   1.00
C936   C     0.38649   0.41289   0.67259   0.00000  Uiso   1.00
C937   C     0.38268   0.37396   0.63322   0.00000  Uiso   1.00
C938   C     0.66357   0.35823   0.61561   0.00000  Uiso   1.00
C939   C     0.61482   0.38050   0.63826   0.00000  Uiso   1.00
C940   C     0.61917   0.41944   0.67771   0.00000  Uiso   1.00
C941   C     0.57108   0.53172   0.96800   0.00000  Uiso   1.00
C942   C     0.38842   0.45619   0.50290   0.00000  Uiso   1.00
C943   C     0.61179   0.54307   0.99686   0.00000  Uiso   1.00
C944   C     0.52339   0.65663   0.75184   0.00000  Uiso   1.00
C945   C     0.47661   0.34337   0.74816   0.00000  Uiso   1.00
C946   C     0.46327   0.49597   0.83222   0.00000  Uiso   1.00
Cu947  Cu    0.44071   0.49441   0.74516   0.00000  Uiso   1.00
Cu948  Cu    0.55929   0.50559   0.75483   0.00000  Uiso   1.00
H949   H     0.34203   0.43682   0.51272   0.00000  Uiso   1.00
H950   H     0.58959   0.54387   0.93743   0.00000  Uiso   1.00
H951   H     0.56785   0.34842   0.75520   0.00000  Uiso   1.00
H952   H     0.43215   0.65158   0.74480   0.00000  Uiso   1.00
H953   H     0.57067   0.58232   0.81975   0.00000  Uiso   1.00
H954   H     0.57874   0.64401   0.88377   0.00000  Uiso   1.00
H955   H     0.33947   0.33796   0.91513   0.00000  Uiso   1.00
H956   H     0.42732   0.63259   0.87487   0.00000  Uiso   1.00
H957   H     0.42340   0.57250   0.81182   0.00000  Uiso   1.00
H958   H     0.42934   0.41770   0.68025   0.00000  Uiso   1.00
H959   H     0.42116   0.35578   0.61637   0.00000  Uiso   1.00
H960   H     0.65823   0.56228   0.98699   0.00000  Uiso   1.00
H961   H     0.66035   0.66165   0.58510   0.00000  Uiso   1.00
H962   H     0.57257   0.36718   0.62527   0.00000  Uiso   1.00
H963   H     0.57660   0.42751   0.68818   0.00000  Uiso   1.00
H964   H     0.46954   0.48015   0.60618   0.00000  Uiso   1.00
H965   H     0.53035   0.52016   0.89389   0.00000  Uiso   1.00
H966   H     0.65129   0.54271   0.62981   0.00000  Uiso   1.00
H967   H     0.34880   0.45685   0.87006   0.00000  Uiso   1.00
H968   H     0.65099   0.43869   0.94342   0.00000  Uiso   1.00
H969   H     0.34920   0.56057   0.55636   0.00000  Uiso   1.00
H970   H     0.41072   0.45519   0.56226   0.00000  Uiso   1.00
N971   N     0.64839   0.51401   0.76212   0.00000  Uiso   1.00
N972   N     0.35161   0.48599   0.73788   0.00000  Uiso   1.00
O973   O     0.46148   0.57142   0.74686   0.00000  Uiso   1.00
O974   O     0.53852   0.42858   0.75314   0.00000  Uiso   1.00
O975   O     0.56163   0.58086   0.75502   0.00000  Uiso   1.00
O976   O     0.43837   0.41914   0.74497   0.00000  Uiso   1.00
O977   O     0.42185   0.49263   0.80854   0.00000  Uiso   1.00
O978   O     0.57815   0.50737   0.69145   0.00000  Uiso   1.00
O979   O     0.52199   0.50207   0.81671   0.00000  Uiso   1.00
O980   O     0.47801   0.49793   0.68329   0.00000  Uiso   1.00
C981   C     0.84887   0.60016   0.75132   0.00000  Uiso   1.00
C982   C     0.87006   0.50402   0.66778   0.00000  Uiso   1.00
C983   C     0.77596   0.48972   0.87768   0.00000  Uiso   1.00
C984   C     0.89071   0.51015   0.62228   0.00000  Uiso   1.00
C985   C     0.69776   0.45702   0.93353   0.00000  Uiso   1.00
C986   C     0.96905   0.54240   0.56630   0.00000  Uiso   1.00
C987   C     0.71544   0.46759   0.89176   0.00000  Uiso   1.00
C988   C     0.95130   0.53202   0.60812   0.00000  Uiso   1.00
C989   C     0.81797   0.50314   0.90634   0.00000  Uiso   1.00
C990   C     0.84869   0.49679   0.59364   0.00000  Uiso   1.00
C991   C     0.80117   0.49348   0.94906   0.00000  Uiso   1.00
C992   C     0.81779   0.39984   0.74868   0.00000  Uiso   1.00
C993   C     0.86560   0.50613   0.55081   0.00000  Uiso   1.00
C994   C     0.74009   0.46910   0.96199   0.00000  Uiso   1.00
C995   C     0.92672   0.53034   0.53784   0.00000  Uiso   1.00
C996   C     0.84329   0.50626   0.97885   0.00000  Uiso   1.00
C997   C     0.82352   0.49323   0.52098   0.00000  Uiso   1.00
C998   C     0.99378   0.55885   0.80253   0.00000  Uiso   1.00
C999   C     0.94682   0.58705   0.82745   0.00000  Uiso   1.00
C1000  C     0.95056   0.62585   0.86689   0.00000  Uiso   1.00
C1001  C     0.66963   0.64149   0.88455   0.00000  Uiso   1.00
C1002  C     0.71843   0.61931   0.86186   0.00000  Uiso   1.00
C1003  C     0.76246   0.46758   0.53177   0.00000  Uiso   1.00
C1004  C     0.71414   0.58050   0.82232   0.00000  Uiso   1.00
C1005  C     0.67287   0.44111   0.69749   0.00000  Uiso   1.00
C1006  C     0.71982   0.41289   0.67259   0.00000  Uiso   1.00
C1007  C     0.71601   0.37396   0.63322   0.00000  Uiso   1.00
C1008  C     0.99691   0.35823   0.61561   0.00000  Uiso   1.00
C1009  C     0.94815   0.38050   0.63826   0.00000  Uiso   1.00
C1010  C     0.95250   0.41944   0.67771   0.00000  Uiso   1.00
C1011  C     0.90442   0.53172   0.96800   0.00000  Uiso   1.00
C1012  C     0.72176   0.45619   0.50290   0.00000  Uiso   1.00
C1013  C     0.94512   0.54307   0.99686   0.00000  Uiso   1.00
C1014  C     0.85672   0.65663   0.75184   0.00000  Uiso   1.00
C1015  C     0.80994   0.34337   0.74816   0.00000  Uiso   1.00
C1016  C     0.79661   0.49597   0.83222   0.00000  Uiso   1.00
Cu1017 Cu    0.77404   0.49441   0.74516   0.00000  Uiso   1.00
Cu1018 Cu    0.89263   0.50559   0.75483   0.00000  Uiso   1.00
H1019  H     0.67536   0.43682   0.51272   0.00000  Uiso   1.00
H1020  H     0.92293   0.54387   0.93743   0.00000  Uiso   1.00
H1021  H     0.90118   0.34842   0.75520   0.00000  Uiso   1.00
H1022  H     0.76548   0.65158   0.74480   0.00000  Uiso   1.00
H1023  H     0.90400   0.58232   0.81975   0.00000  Uiso   1.00
H1024  H     0.91207   0.64401   0.88377   0.00000  Uiso   1.00
H1025  H     0.67280   0.33796   0.91513   0.00000  Uiso   1.00
H1026  H     0.76066   0.63259   0.87487   0.00000  Uiso   1.00
H1027  H     0.75674   0.57250   0.81182   0.00000  Uiso   1.00
H1028  H     0.76268   0.41770   0.68025   0.00000  Uiso   1.00
H1029  H     0.75450   0.35578   0.61637   0.00000  Uiso   1.00
H1030  H     0.99157   0.56228   0.98699   0.00000  Uiso   1.00
H1031  H     0.99368   0.66165   0.58510   0.00000  Uiso   1.00
H1032  H     0.90590   0.36718   0.62527   0.00000  Uiso   1.00
H1033  H     0.90993   0.42751   0.68818   0.00000  Uiso   1.00
H1034  H     0.80287   0.48015   0.60618   0.00000  Uiso   1.00
H1035  H     0.86369   0.52016   0.89389   0.00000  Uiso   1.00
H1036  H     0.98462   0.54271   0.62981   0.00000  Uiso   1.00
H1037  H     0.68213   0.45685   0.87006   0.00000  Uiso   1.00
H1038  H     0.98432   0.43869   0.94342   0.00000  Uiso   1.00
H1039  H     0.68253   0.56057   0.55636   0.00000  Uiso   1.00
H1040  H     0.74406   0.45519   0.56226   0.00000  Uiso   1.00
N1041  N     0.98173   0.51401   0.76212   0.00000  Uiso   1.00
N1042  N     0.68494   0.48599   0.73788   0.00000  Uiso   1.00
O1043  O     0.79482   0.57142   0.74686   0.00000  Uiso   1.00
O1044  O     0.87185   0.42858   0.75314   0.00000  Uiso   1.00
O1045  O     0.89496   0.58086   0.75502   0.00000  Uiso   1.00
O1046  O     0.77171   0.41914   0.74497   0.00000  Uiso   1.00
O1047  O     0.75518   0.49263   0.80854   0.00000  Uiso   1.00
O1048  O     0.91149   0.50737   0.69145   0.00000  Uiso   1.00
O1049  O     0.85532   0.50207   0.81671   0.00000  Uiso   1.00
O1050  O     0.81134   0.49793   0.68329   0.00000  Uiso   1.00
C1051  C     0.18221   0.93350   0.75132   0.00000  Uiso   1.00
C1052  C     0.20339   0.83735   0.66778   0.00000  Uiso   1.00
C1053  C     0.10929   0.82305   0.87768   0.00000  Uiso   1.00
C1054  C     0.22405   0.84348   0.62228   0.00000  Uiso   1.00
C1055  C     0.03109   0.79035   0.93353   0.00000  Uiso   1.00
C1056  C     0.30239   0.87574   0.56630   0.00000  Uiso   1.00
C1057  C     0.04878   0.80092   0.89176   0.00000  Uiso   1.00
C1058  C     0.28463   0.86535   0.60812   0.00000  Uiso   1.00
C1059  C     0.15130   0.83647   0.90634   0.00000  Uiso   1.00
C1060  C     0.18203   0.83012   0.59364   0.00000  Uiso   1.00
C1061  C     0.13451   0.82681   0.94906   0.00000  Uiso   1.00
C1062  C     0.15113   0.73317   0.74868   0.00000  Uiso   1.00
C1063  C     0.19893   0.83946   0.55081   0.00000  Uiso   1.00
C1064  C     0.07343   0.80243   0.96199   0.00000  Uiso   1.00
C1065  C     0.26006   0.86367   0.53784   0.00000  Uiso   1.00
C1066  C     0.17662   0.83959   0.97885   0.00000  Uiso   1.00
C1067  C     0.15685   0.82657   0.52098   0.00000  Uiso   1.00
C1068  C     0.32711   0.89219   0.80253   0.00000  Uiso   1.00
C1069  C     0.28015   0.92038   0.82745   0.00000  Uiso   1.00
C1070  C     0.28390   0.95918   0.86689   0.00000  Uiso   1.00
C1071  C     0.00297   0.97483   0.88455   0.00000  Uiso   1.00
C1072  C     0.05176   0.95264   0.86186   0.00000  Uiso   1.00
C1073  C     0.09580   0.80091   0.53177   0.00000  Uiso   1.00
C1074  C     0.04747   0.91383   0.82232   0.00000  Uiso   1.00
C1075  C     0.00620   0.77444   0.69749   0.00000  Uiso   1.00
C1076  C     0.05316   0.74623   0.67259   0.00000  Uiso   1.00
C1077  C     0.04935   0.70730   0.63322   0.00000  Uiso   1.00
C1078  C     0.33024   0.69156   0.61561   0.00000  Uiso   1.00
C1079  C     0.28148   0.71383   0.63826   0.00000  Uiso   1.00
C1080  C     0.28583   0.75277   0.67771   0.00000  Uiso   1.00
C1081  C     0.23775   0.86505   0.96800   0.00000  Uiso   1.00
C1082  C     0.05509   0.78952   0.50290   0.00000  Uiso   1.00
C1083  C     0.27846   0.87640   0.99686   0.00000  Uiso   1.00
C1084  C     0.19006   0.98996   0.75184   0.00000  Uiso   1.00
C1085  C     0.14328   0.67670   0.74816   0.00000  Uiso   1.00
C1086  C     0.12994   0.82930   0.83222   0.00000  Uiso   1.00
Cu1087 Cu    0.10737   0.82775   0.74516   0.00000  Uiso   1.00
Cu1088 Cu    0.22596   0.83892   0.75483   0.00000  Uiso   1.00
H1089  H     0.00870   0.77015   0.51272   0.00000  Uiso   1.00
H1090  H     0.25626   0.87720   0.93743   0.00000  Uiso   1.00
H1091  H     0.23452   0.68175   0.75520   0.00000  Uiso   1.00
H1092  H     0.09882   0.98492   0.74480   0.00000  Uiso   1.00
H1093  H     0.23734   0.91565   0.81975   0.00000  Uiso   1.00
H1094  H     0.24540   0.97734   0.88377   0.00000  Uiso   1.00
H1095  H     0.00613   0.67129   0.91513   0.00000  Uiso   1.00
H1096  H     0.09399   0.96592   0.87487   0.00000  Uiso   1.00
H1097  H     0.09007   0.90584   0.81182   0.00000  Uiso   1.00
H1098  H     0.09601   0.75103   0.68025   0.00000  Uiso   1.00
H1099  H     0.08783   0.68911   0.61637   0.00000  Uiso   1.00
H1100  H     0.32490   0.89561   0.98699   0.00000  Uiso   1.00
H1101  H     0.32702   0.99498   0.58510   0.00000  Uiso   1.00
H1102  H     0.23924   0.70052   0.62527   0.00000  Uiso   1.00
H1103  H     0.24326   0.76084   0.68818   0.00000  Uiso   1.00
H1104  H     0.13620   0.81348   0.60618   0.00000  Uiso   1.00
H1105  H     0.19702   0.85349   0.89389   0.00000  Uiso   1.00
H1106  H     0.31796   0.87604   0.62981   0.00000  Uiso   1.00
H1107  H     0.01547   0.79019   0.87006   0.00000  Uiso   1.00
H1108  H     0.31765   0.77203   0.94342   0.00000  Uiso   1.00
H1109  H     0.01587   0.89391   0.55636   0.00000  Uiso   1.00
H1110  H     0.07739   0.78852   0.56226   0.00000  Uiso   1.00
N1111  N     0.31506   0.84735   0.76212   0.00000  Uiso   1.00
N1112  N     0.01827   0.81932   0.73788   0.00000  Uiso   1.00
O1113  O     0.12815   0.90476   0.74686   0.00000  Uiso   1.00
O1114  O     0.20518   0.76191   0.75314   0.00000  Uiso   1.00
O1115  O     0.22829   0.91420   0.75502   0.00000  Uiso   1.00
O1116  O     0.10504   0.75247   0.74497   0.00000  Uiso   1.00
O1117  O     0.08851   0.82597   0.80854   0.00000  Uiso   1.00
O1118  O     0.24482   0.84070   0.69145   0.00000  Uiso   1.00
O1119  O     0.18866   0.83540   0.81671   0.00000  Uiso   1.00
O1120  O     0.14468   0.83126   0.68329   0.00000  Uiso   1.00
C1121  C     0.51554   0.93350   0.75132   0.00000  Uiso   1.00
C1122  C     0.53673   0.83735   0.66778   0.00000  Uiso   1.00
C1123  C     0.44263   0.82305   0.87768   0.00000  Uiso   1.00
C1124  C     0.55738   0.84348   0.62228   0.00000  Uiso   1.00
C1125  C     0.36442   0.79035   0.93353   0.00000  Uiso   1.00
C1126  C     0.63572   0.87574   0.56630   0.00000  Uiso   1.00
C1127  C     0.38211   0.80092   0.89176   0.00000  Uiso   1.00
C1128  C     0.61797   0.86535   0.60812   0.00000  Uiso   1.00
C1129  C     0.48464   0.83647   0.90634   0.00000  Uiso   1.00
C1130  C     0.51536   0.83012   0.59364   0.00000  Uiso   1.00
C1131  C     0.46784   0.82681   0.94906   0.00000  Uiso   1.00
C1132  C     0.48446   0.73317   0.74868   0.00000  Uiso   1.00
C1133  C     0.53226   0.83946   0.55081   0.00000  Uiso   1.00
C1134  C     0.40676   0.80243   0.96199   0.00000  Uiso   1.00
C1135  C     0.59339   0.86367   0.53784   0.00000  Uiso   1.00
C1136  C     0.50996   0.83959   0.97885   0.00000  Uiso   1.00
C1137  C     0.49019   0.82657   0.52098   0.00000  Uiso   1.00
C1138  C     0.66044   0.89219   0.80253   0.00000  Uiso   1.00
C1139  C     0.61349   0.92038   0.82745   0.00000  Uiso   1.00
C1140  C     0.61723   0.95918   0.86689   0.00000  Uiso   1.00
C1141  C     0.33630   0.97483   0.88455   0.00000  Uiso   1.00
C1142  C     0.38509   0.95264   0.86186   0.00000  Uiso   1.00
C1143  C     0.42913   0.80091   0.53177   0.00000  Uiso   1.00
C1144  C     0.38080   0.91383   0.82232   0.00000  Uiso   1.00
C1145  C     0.33954   0.77444   0.69749   0.00000  Uiso   1.00
C1146  C     0.38649   0.74623   0.67259   0.00000  Uiso   1.00
C1147  C     0.38268   0.70730   0.63322   0.00000  Uiso   1.00
C1148  C     0.66357   0.69156   0.61561   0.00000  Uiso   1.00
C1149  C     0.61482   0.71383   0.63826   0.00000  Uiso   1.00
C1150  C     0.61917   0.75277   0.67771   0.00000  Uiso   1.00
C1151  C     0.57108   0.86505   0.96800   0.00000  Uiso   1.00
C1152  C     0.38842   0.78952   0.50290   0.00000  Uiso   1.00
C1153  C     0.61179   0.87640   0.99686   0.00000  Uiso   1.00
C1154  C     0.52339   0.98996   0.75184   0.00000  Uiso   1.00
C1155  C     0.47661   0.67670   0.74816   0.00000  Uiso   1.00
C1156  C     0.46327   0.82930   0.83222   0.00000  Uiso   1.00
Cu1157 Cu    0.44071   0.82775   0.74516   0.00000  Uiso   1.00
Cu1158 Cu    0.55929   0.83892   0.75483   0.00000  Uiso   1.00
H1159  H     0.34203   0.77015   0.51272   0.00000  Uiso   1.00
H1160  H     0.58959   0.87720   0.93743   0.00000  Uiso   1.00
H1161  H     0.56785   0.68175   0.75520   0.00000  Uiso   1.00
H1162  H     0.43215   0.98492   0.74480   0.00000  Uiso   1.00
H1163  H     0.57067   0.91565   0.81975   0.00000  Uiso   1.00
H1164  H     0.57874   0.97734   0.88377   0.00000  Uiso   1.00
H1165  H     0.33947   0.67129   0.91513   0.00000  Uiso   1.00
H1166  H     0.42732   0.96592   0.87487   0.00000  Uiso   1.00
H1167  H     0.42340   0.90584   0.81182   0.00000  Uiso   1.00
H1168  H     0.42934   0.75103   0.68025   0.00000  Uiso   1.00
H1169  H     0.42116   0.68911   0.61637   0.00000  Uiso   1.00
H1170  H     0.65823   0.89561   0.98699   0.00000  Uiso   1.00
H1171  H     0.66035   0.99498   0.58510   0.00000  Uiso   1.00
H1172  H     0.57257   0.70052   0.62527   0.00000  Uiso   1.00
H1173  H     0.57660   0.76084   0.68818   0.00000  Uiso   1.00
H1174  H     0.46954   0.81348   0.60618   0.00000  Uiso   1.00
H1175  H     0.53035   0.85349   0.89389   0.00000  Uiso   1.00
H1176  H     0.65129   0.87604   0.62981   0.00000  Uiso   1.00
H1177  H     0.34880   0.79019   0.87006   0.00000  Uiso   1.00
H1178  H     0.65099   0.77203   0.94342   0.00000  Uiso   1.00
H1179  H     0.34920   0.89391   0.55636   0.00000  Uiso   1.00
H1180  H     0.41072   0.78852   0.56226   0.00000  Uiso   1.00
N1181  N     0.64839   0.84735   0.76212   0.00000  Uiso   1.00
N1182  N     0.35161   0.81932   0.73788   0.00000  Uiso   1.00
O1183  O     0.46148   0.90476   0.74686   0.00000  Uiso   1.00
O1184  O     0.53852   0.76191   0.75314   0.00000  Uiso   1.00
O1185  O     0.56163   0.91420   0.75502   0.00000  Uiso   1.00
O1186  O     0.43837   0.75247   0.74497   0.00000  Uiso   1.00
O1187  O     0.42185   0.82597   0.80854   0.00000  Uiso   1.00
O1188  O     0.57815   0.84070   0.69145   0.00000  Uiso   1.00
O1189  O     0.52199   0.83540   0.81671   0.00000  Uiso   1.00
O1190  O     0.47801   0.83126   0.68329   0.00000  Uiso   1.00
C1191  C     0.84887   0.93350   0.75132   0.00000  Uiso   1.00
C1192  C     0.87006   0.83735   0.66778   0.00000  Uiso   1.00
C1193  C     0.77596   0.82305   0.87768   0.00000  Uiso   1.00
C1194  C     0.89071   0.84348   0.62228   0.00000  Uiso   1.00
C1195  C     0.69776   0.79035   0.93353   0.00000  Uiso   1.00
C1196  C     0.96905   0.87574   0.56630   0.00000  Uiso   1.00
C1197  C     0.71544   0.80092   0.89176   0.00000  Uiso   1.00
C1198  C     0.95130   0.86535   0.60812   0.00000  Uiso   1.00
C1199  C     0.81797   0.83647   0.90634   0.00000  Uiso   1.00
C1200  C     0.84869   0.83012   0.59364   0.00000  Uiso   1.00
C1201  C     0.80117   0.82681   0.94906   0.00000  Uiso   1.00
C1202  C     0.81779   0.73317   0.74868   0.00000  Uiso   1.00
C1203  C     0.86560   0.83946   0.55081   0.00000  Uiso   1.00
C1204  C     0.74009   0.80243   0.96199   0.00000  Uiso   1.00
C1205  C     0.92672   0.86367   0.53784   0.00000  Uiso   1.00
C1206  C     0.84329   0.83959   0.97885   0.00000  Uiso   1.00
C1207  C     0.82352   0.82657   0.52098   0.00000  Uiso   1.00
C1208  C     0.99378   0.89219   0.80253   0.00000  Uiso   1.00
C1209  C     0.94682   0.92038   0.82745   0.00000  Uiso   1.00
C1210  C     0.95056   0.95918   0.86689   0.00000  Uiso   1.00
C1211  C     0.66963   0.97483   0.88455   0.00000  Uiso   1.00
C1212  C     0.71843   0.95264   0.86186   0.00000  Uiso   1.00
C1213  C     0.76246   0.80091   0.53177   0.00000  Uiso   1.00
C1214  C     0.71414   0.91383   0.82232   0.00000  Uiso   1.00
C1215  C     0.67287   0.77444   0.69749   0.00000  Uiso   1.00
C1216  C     0.71982   0.74623   0.67259   0.00000  Uiso   1.00
C1217  C     0.71601   0.70730   0.63322   0.00000  Uiso   1.00
C1218  C     0.99691   0.69156   0.61561   0.00000  Uiso   1.00
C1219  C     0.94815   0.71383   0.63826   0.00000  Uiso   1.00
C1220  C     0.95250   0.75277   0.67771   0.00000  Uiso   1.00
C1221  C     0.90442   0.86505   0.96800   0.00000  Uiso   1.00
C1222  C     0.72176   0.78952   0.50290   0.00000  Uiso   1.00
C1223  C     0.94512   0.87640   0.99686   0.00000  Uiso   1.00
C1224  C     0.85672   0.98996   0.75184   0.00000  Uiso   1.00
C1225  C     0.80994   0.67670   0.74816   0.00000  Uiso   1.00
C1226  C     0.79661   0.82930   0.83222   0.00000  Uiso   1.00
Cu1227 Cu    0.77404   0.82775   0.74516   0.00000  Uiso   1.00
Cu1228 Cu    0.89263   0.83892   0.75483   0.00000  Uiso   1.00
H1229  H     0.67536   0.77015   0.51272   0.00000  Uiso   1.00
H1230  H     0.92293   0.87720   0.93743   0.00000  Uiso   1.00
H1231  H     0.90118   0.68175   0.75520   0.00000  Uiso   1.00
H1232  H     0.76548   0.98492   0.74480   0.00000  Uiso   1.00
H1233  H     0.90400   0.91565   0.81975   0.00000  Uiso   1.00
H1234  H     0.91207   0.97734   0.88377   0.00000  Uiso   1.00
H1235  H     0.67280   0.67129   0.91513   0.00000  Uiso   1.00
H1236  H     0.76066   0.96592   0.87487   0.00000  Uiso   1.00
H1237  H     0.75674   0.90584   0.81182   0.00000  Uiso   1.00
H1238  H     0.76268   0.75103   0.68025   0.00000  Uiso   1.00
H1239  H     0.75450   0.68911   0.61637   0.00000  Uiso   1.00
H1240  H     0.99157   0.89561   0.98699   0.00000  Uiso   1.00
H1241  H     0.99368   0.99498   0.58510   0.00000  Uiso   1.00
H1242  H     0.90590   0.70052   0.62527   0.00000  Uiso   1.00
H1243  H     0.90993   0.76084   0.68818   0.00000  Uiso   1.00
H1244  H     0.80287   0.81348   0.60618   0.00000  Uiso   1.00
H1245  H     0.86369   0.85349   0.89389   0.00000  Uiso   1.00
H1246  H     0.98462   0.87604   0.62981   0.00000  Uiso   1.00
H1247  H     0.68213   0.79019   0.87006   0.00000  Uiso   1.00
H1248  H     0.98432   0.77203   0.94342   0.00000  Uiso   1.00
H1249  H     0.68253   0.89391   0.55636   0.00000  Uiso   1.00
H1250  H     0.74406   0.78852   0.56226   0.00000  Uiso   1.00
N1251  N     0.98173   0.84735   0.76212   0.00000  Uiso   1.00
N1252  N     0.68494   0.81932   0.73788   0.00000  Uiso   1.00
O1253  O     0.79482   0.90476   0.74686   0.00000  Uiso   1.00
O1254  O     0.87185   0.76191   0.75314   0.00000  Uiso   1.00
O1255  O     0.89496   0.91420   0.75502   0.00000  Uiso   1.00
O1256  O     0.77171   0.75247   0.74497   0.00000  Uiso   1.00
O1257  O     0.75518   0.82597   0.80854   0.00000  Uiso   1.00
O1258  O     0.91149   0.84070   0.69145   0.00000  Uiso   1.00
O1259  O     0.85532   0.83540   0.81671   0.00000  Uiso   1.00
O1260  O     0.81134   0.83126   0.68329   0.00000  Uiso   1.00
loop_
_geom_bond_atom_site_label_1
_geom_bond_atom_site_label_2
_geom_bond_distance
_geom_bond_site_symmetry_2
_ccdc_geom_bond_type
C1     O65     1.328   .     A
C1     C34     1.455   .     S
C1     O63     1.307   .     A
C2     C4      1.466   .     S
C2     O70     1.324   .     A
C2     O68     1.317   .     A
C3     C9      1.396   .     A
C3     C36     1.466   .     S
C3     C7      1.400   .     A
C4     C8      1.400   .     A
C4     C10     1.396   .     A
C5     C14     1.401   .     A
C5     C7      1.389   .     A
C5     H198    1.084   1_455 S
C6     C15     1.401   .     A
C6     C8      1.389   .     A
C6     H129    1.084   .     S
C7     H57     1.083   .     S
C8     H56     1.083   .     S
C9     C11     1.408   .     A
C9     H55     1.074   .     S
C10    C13     1.408   .     A
C10    H54     1.074   .     S
C11    C16     1.427   .     A
C11    C14     1.419   .     A
C12    C35     1.455   .     S
C12    O64     1.307   .     A
C12    O66     1.328   .     A
C13    C17     1.427   .     A
C13    C15     1.419   .     A
C14    C662    1.388   .     S
C15    C663    1.388   1_554 S
C16    C31     1.417   .     A
C16    C647    1.428   .     S
C17    C23     1.417   .     A
C17    C646    1.428   1_554 S
C18    N61     1.525   .     S
C18    C19     1.439   .     A
C18    C94     1.437   .     S
C19    C20     1.400   .     A
C19    H43     1.041   .     S
C20    H44     1.084   .     S
C20    C91     1.372   .     S
C21    C22     1.372   .     A
C21    C160    1.372   1_455 S
C21    H255    1.082   .     S
C22    H46     1.085   .     S
C22    C24     1.403   .     A
C23    C32     1.384   .     A
C23    H60     1.075   .     S
C24    H47     1.023   .     S
C24    C158    1.437   1_455 S
C25    N62     1.525   .     S
C25    C26     1.440   .     A
C25    C170    1.437   1_455 S
C26    H48     1.041   .     S
C26    C27     1.400   .     A
C27    H49     1.084   .     S
C27    C168    1.372   1_455 S
C28    C29     1.372   .     A
C28    C97     1.372   .     S
C28    H471    1.082   1_545 S
C29    C30     1.403   .     A
C29    H52     1.085   .     S
C30    H53     1.023   .     S
C30    C95     1.437   .     S
C31    C33     1.384   .     A
C31    H40     1.075   .     S
C32    H39     1.085   .     S
C32    C644    1.388   1_554 S
C33    H50     1.085   .     S
C33    C645    1.388   .     S
C34    C245    1.355   .     S
C34    H251    1.086   .     S
C35    C454    1.355   1_545 S
C35    H462    1.086   1_545 S
C36    O67     1.317   .     A
C36    O69     1.324   .     A
Cu37   Cu38    2.759   .     S
Cu37   O70     1.992   .     S
Cu37   N62     2.073   .     S
Cu37   O66     1.976   .     S
Cu37   O67     1.986   .     S
Cu37   O63     1.962   .     S
Cu38   O65     1.976   .     S
Cu38   N61     2.073   .     S
Cu38   O69     1.992   .     S
Cu38   O64     1.962   .     S
Cu38   O68     1.986   .     S
H41    C454    1.086   1_545 S
H42    C245    1.086   .     S
H45    C441    1.082   1_545 S
H51    C238    1.082   .     S
H58    C75     1.084   .     S
H59    C146    1.084   1_455 S
N61    N132    1.256   .     S
N62    N201    1.256   1_455 S
C71    O135    1.328   .     A
C71    C104    1.455   .     S
C71    O133    1.307   .     A
C72    C74     1.466   .     S
C72    O140    1.324   .     A
C72    O138    1.317   .     A
C73    C79     1.396   .     A
C73    C106    1.466   .     S
C73    C77     1.400   .     A
C74    C78     1.400   .     A
C74    C80     1.396   .     A
C75    C84     1.401   .     A
C75    C77     1.389   .     A
C76    C85     1.401   .     A
C76    C78     1.389   .     A
C76    H199    1.084   .     S
C77    H127    1.083   .     S
C78    H126    1.083   .     S
C79    C81     1.408   .     A
C79    H125    1.074   .     S
C80    C83     1.408   .     A
C80    H124    1.074   .     S
C81    C86     1.427   .     A
C81    C84     1.419   .     A
C82    C105    1.455   .     S
C82    O134    1.307   .     A
C82    O136    1.328   .     A
C83    C87     1.427   .     A
C83    C85     1.419   .     A
C84    C732    1.388   .     S
C85    C733    1.388   1_554 S
C86    C101    1.417   .     A
C86    C717    1.428   .     S
C87    C93     1.417   .     A
C87    C716    1.428   1_554 S
C88    N131    1.525   .     S
C88    C89     1.439   .     A
C88    C164    1.437   .     S
C89    C90     1.400   .     A
C89    H113    1.041   .     S
C90    H114    1.084   .     S
C90    C161    1.372   .     S
C91    C92     1.372   .     A
C91    H325    1.082   .     S
C92    H116    1.085   .     S
C92    C94     1.403   .     A
C93    C102    1.384   .     A
C93    H130    1.075   .     S
C94    H117    1.023   .     S
C95    N132    1.525   .     S
C95    C96     1.440   .     A
C96    H118    1.041   .     S
C96    C97     1.400   .     A
C97    H119    1.084   .     S
C98    C99     1.372   .     A
C98    C167    1.372   .     S
C98    H541    1.082   1_545 S
C99    C100    1.403   .     A
C99    H122    1.085   .     S
C100   H123    1.023   .     S
C100   C165    1.437   .     S
C101   C103    1.384   .     A
C101   H110    1.075   .     S
C102   H109    1.085   .     S
C102   C714    1.388   1_554 S
C103   H120    1.085   .     S
C103   C715    1.388   .     S
C104   C315    1.355   .     S
C104   H321    1.086   .     S
C105   C524    1.355   1_545 S
C105   H532    1.086   1_545 S
C106   O137    1.317   .     A
C106   O139    1.324   .     A
Cu107  Cu108   2.759   .     S
Cu107  O140    1.992   .     S
Cu107  N132    2.073   .     S
Cu107  O136    1.976   .     S
Cu107  O137    1.986   .     S
Cu107  O133    1.962   .     S
Cu108  O135    1.976   .     S
Cu108  N131    2.073   .     S
Cu108  O139    1.992   .     S
Cu108  O134    1.962   .     S
Cu108  O138    1.986   .     S
H111   C524    1.086   1_545 S
H112   C315    1.086   .     S
H115   C511    1.082   1_545 S
H121   C308    1.082   .     S
H128   C145    1.084   .     S
N131   N202    1.256   .     S
C141   O205    1.328   .     A
C141   C174    1.455   .     S
C141   O203    1.307   .     A
C142   C144    1.466   .     S
C142   O210    1.324   .     A
C142   O208    1.317   .     A
C143   C149    1.396   .     A
C143   C176    1.466   .     S
C143   C147    1.400   .     A
C144   C148    1.400   .     A
C144   C150    1.396   .     A
C145   C154    1.401   .     A
C145   C147    1.389   .     A
C146   C155    1.401   .     A
C146   C148    1.389   .     A
C146   H59     1.084   1_655 S
C147   H197    1.083   .     S
C148   H196    1.083   .     S
C149   C151    1.408   .     A
C149   H195    1.074   .     S
C150   C153    1.408   .     A
C150   H194    1.074   .     S
C151   C156    1.427   .     A
C151   C154    1.419   .     A
C152   C175    1.455   .     S
C152   O204    1.307   .     A
C152   O206    1.328   .     A
C153   C157    1.427   .     A
C153   C155    1.419   .     A
C154   C802    1.388   .     S
C155   C803    1.388   1_554 S
C156   C171    1.417   .     A
C156   C787    1.428   .     S
C157   C163    1.417   .     A
C157   C786    1.428   1_554 S
C158   N201    1.525   .     S
C158   C159    1.439   .     A
C158   C24     1.437   1_655 S
C159   C160    1.400   .     A
C159   H183    1.041   .     S
C160   H184    1.084   .     S
C160   C21     1.372   1_655 S
C161   C162    1.372   .     A
C161   H395    1.082   .     S
C162   H186    1.085   .     S
C162   C164    1.403   .     A
C163   C172    1.384   .     A
C163   H200    1.075   .     S
C164   H187    1.023   .     S
C165   N202    1.525   .     S
C165   C166    1.440   .     A
C166   H188    1.041   .     S
C166   C167    1.400   .     A
C167   H189    1.084   .     S
C168   C169    1.372   .     A
C168   C27     1.372   1_655 S
C168   H611    1.082   1_545 S
C169   C170    1.403   .     A
C169   H192    1.085   .     S
C170   H193    1.023   .     S
C170   C25     1.437   1_655 S
C171   C173    1.384   .     A
C171   H180    1.075   .     S
C172   H179    1.085   .     S
C172   C784    1.388   1_554 S
C173   H190    1.085   .     S
C173   C785    1.388   .     S
C174   C385    1.355   .     S
C174   H391    1.086   .     S
C175   C594    1.355   1_545 S
C175   H602    1.086   1_545 S
C176   O207    1.317   .     A
C176   O209    1.324   .     A
Cu177  Cu178   2.759   .     S
Cu177  O210    1.992   .     S
Cu177  N202    2.073   .     S
Cu177  O206    1.976   .     S
Cu177  O207    1.986   .     S
Cu177  O203    1.962   .     S
Cu178  O205    1.976   .     S
Cu178  N201    2.073   .     S
Cu178  O209    1.992   .     S
Cu178  O204    1.962   .     S
Cu178  O208    1.986   .     S
H181   C594    1.086   1_545 S
H182   C385    1.086   .     S
H185   C581    1.082   1_545 S
H191   C378    1.082   .     S
H198   C5      1.084   1_655 S
N201   N62     1.256   1_655 S
C211   O275    1.328   .     A
C211   C244    1.455   .     S
C211   O273    1.307   .     A
C212   C214    1.466   .     S
C212   O280    1.324   .     A
C212   O278    1.317   .     A
C213   C219    1.396   .     A
C213   C246    1.466   .     S
C213   C217    1.400   .     A
C214   C218    1.400   .     A
C214   C220    1.396   .     A
C215   C224    1.401   .     A
C215   C217    1.389   .     A
C215   H408    1.084   1_455 S
C216   C225    1.401   .     A
C216   C218    1.389   .     A
C216   H339    1.084   .     S
C217   H267    1.083   .     S
C218   H266    1.083   .     S
C219   C221    1.408   .     A
C219   H265    1.074   .     S
C220   C223    1.408   .     A
C220   H264    1.074   .     S
C221   C226    1.427   .     A
C221   C224    1.419   .     A
C222   C245    1.455   .     S
C222   O274    1.307   .     A
C222   O276    1.328   .     A
C223   C227    1.427   .     A
C223   C225    1.419   .     A
C224   C872    1.388   .     S
C225   C873    1.388   1_554 S
C226   C241    1.417   .     A
C226   C857    1.428   .     S
C227   C233    1.417   .     A
C227   C856    1.428   1_554 S
C228   N271    1.525   .     S
C228   C229    1.439   .     A
C228   C304    1.437   .     S
C229   C230    1.400   .     A
C229   H253    1.041   .     S
C230   H254    1.084   .     S
C230   C301    1.372   .     S
C231   C232    1.372   .     A
C231   C370    1.372   1_455 S
C231   H465    1.082   .     S
C232   H256    1.085   .     S
C232   C234    1.403   .     A
C233   C242    1.384   .     A
C233   H270    1.075   .     S
C234   H257    1.023   .     S
C234   C368    1.437   1_455 S
C235   N272    1.525   .     S
C235   C236    1.440   .     A
C235   C380    1.437   1_455 S
C236   H258    1.041   .     S
C236   C237    1.400   .     A
C237   H259    1.084   .     S
C237   C378    1.372   1_455 S
C238   C239    1.372   .     A
C238   C307    1.372   .     S
C239   C240    1.403   .     A
C239   H262    1.085   .     S
C240   H263    1.023   .     S
C240   C305    1.437   .     S
C241   C243    1.384   .     A
C241   H250    1.075   .     S
C242   H249    1.085   .     S
C242   C854    1.388   1_554 S
C243   H260    1.085   .     S
C243   C855    1.388   .     S
C244   C455    1.355   .     S
C244   H461    1.086   .     S
C246   O277    1.317   .     A
C246   O279    1.324   .     A
Cu247  Cu248   2.759   .     S
Cu247  O280    1.992   .     S
Cu247  N272    2.073   .     S
Cu247  O276    1.976   .     S
Cu247  O277    1.986   .     S
Cu247  O273    1.962   .     S
Cu248  O275    1.976   .     S
Cu248  N271    2.073   .     S
Cu248  O279    1.992   .     S
Cu248  O274    1.962   .     S
Cu248  O278    1.986   .     S
H252   C455    1.086   .     S
H261   C448    1.082   .     S
H268   C285    1.084   .     S
H269   C356    1.084   1_455 S
N271   N342    1.256   .     S
N272   N411    1.256   1_455 S
C281   O345    1.328   .     A
C281   C314    1.455   .     S
C281   O343    1.307   .     A
C282   C284    1.466   .     S
C282   O350    1.324   .     A
C282   O348    1.317   .     A
C283   C289    1.396   .     A
C283   C316    1.466   .     S
C283   C287    1.400   .     A
C284   C288    1.400   .     A
C284   C290    1.396   .     A
C285   C294    1.401   .     A
C285   C287    1.389   .     A
C286   C295    1.401   .     A
C286   C288    1.389   .     A
C286   H409    1.084   .     S
C287   H337    1.083   .     S
C288   H336    1.083   .     S
C289   C291    1.408   .     A
C289   H335    1.074   .     S
C290   C293    1.408   .     A
C290   H334    1.074   .     S
C291   C296    1.427   .     A
C291   C294    1.419   .     A
C292   C315    1.455   .     S
C292   O344    1.307   .     A
C292   O346    1.328   .     A
C293   C297    1.427   .     A
C293   C295    1.419   .     A
C294   C942    1.388   .     S
C295   C943    1.388   1_554 S
C296   C311    1.417   .     A
C296   C927    1.428   .     S
C297   C303    1.417   .     A
C297   C926    1.428   1_554 S
C298   N341    1.525   .     S
C298   C299    1.439   .     A
C298   C374    1.437   .     S
C299   C300    1.400   .     A
C299   H323    1.041   .     S
C300   H324    1.084   .     S
C300   C371    1.372   .     S
C301   C302    1.372   .     A
C301   H535    1.082   .     S
C302   H326    1.085   .     S
C302   C304    1.403   .     A
C303   C312    1.384   .     A
C303   H340    1.075   .     S
C304   H327    1.023   .     S
C305   N342    1.525   .     S
C305   C306    1.440   .     A
C306   H328    1.041   .     S
C306   C307    1.400   .     A
C307   H329    1.084   .     S
C308   C309    1.372   .     A
C308   C377    1.372   .     S
C309   C310    1.403   .     A
C309   H332    1.085   .     S
C310   H333    1.023   .     S
C310   C375    1.437   .     S
C311   C313    1.384   .     A
C311   H320    1.075   .     S
C312   H319    1.085   .     S
C312   C924    1.388   1_554 S
C313   H330    1.085   .     S
C313   C925    1.388   .     S
C314   C525    1.355   .     S
C314   H531    1.086   .     S
C316   O347    1.317   .     A
C316   O349    1.324   .     A
Cu317  Cu318   2.759   .     S
Cu317  O350    1.992   .     S
Cu317  N342    2.073   .     S
Cu317  O346    1.976   .     S
Cu317  O347    1.986   .     S
Cu317  O343    1.962   .     S
Cu318  O345    1.976   .     S
Cu318  N341    2.073   .     S
Cu318  O349    1.992   .     S
Cu318  O344    1.962   .     S
Cu318  O348    1.986   .     S
H322   C525    1.086   .     S
H331   C518    1.082   .     S
H338   C355    1.084   .     S
N341   N412    1.256   .     S
C351   O415    1.328   .     A
C351   C384    1.455   .     S
C351   O413    1.307   .     A
C352   C354    1.466   .     S
C352   O420    1.324   .     A
C352   O418    1.317   .     A
C353   C359    1.396   .     A
C353   C386    1.466   .     S
C353   C357    1.400   .     A
C354   C358    1.400   .     A
C354   C360    1.396   .     A
C355   C364    1.401   .     A
C355   C357    1.389   .     A
C356   C365    1.401   .     A
C356   C358    1.389   .     A
C356   H269    1.084   1_655 S
C357   H407    1.083   .     S
C358   H406    1.083   .     S
C359   C361    1.408   .     A
C359   H405    1.074   .     S
C360   C363    1.408   .     A
C360   H404    1.074   .     S
C361   C366    1.427   .     A
C361   C364    1.419   .     A
C362   C385    1.455   .     S
C362   O414    1.307   .     A
C362   O416    1.328   .     A
C363   C367    1.427   .     A
C363   C365    1.419   .     A
C364   C1012   1.388   .     S
C365   C1013   1.388   1_554 S
C366   C381    1.417   .     A
C366   C997    1.428   .     S
C367   C373    1.417   .     A
C367   C996    1.428   1_554 S
C368   N411    1.525   .     S
C368   C369    1.439   .     A
C368   C234    1.437   1_655 S
C369   C370    1.400   .     A
C369   H393    1.041   .     S
C370   H394    1.084   .     S
C370   C231    1.372   1_655 S
C371   C372    1.372   .     A
C371   H605    1.082   .     S
C372   H396    1.085   .     S
C372   C374    1.403   .     A
C373   C382    1.384   .     A
C373   H410    1.075   .     S
C374   H397    1.023   .     S
C375   N412    1.525   .     S
C375   C376    1.440   .     A
C376   H398    1.041   .     S
C376   C377    1.400   .     A
C377   H399    1.084   .     S
C378   C379    1.372   .     A
C378   C237    1.372   1_655 S
C379   C380    1.403   .     A
C379   H402    1.085   .     S
C380   H403    1.023   .     S
C380   C235    1.437   1_655 S
C381   C383    1.384   .     A
C381   H390    1.075   .     S
C382   H389    1.085   .     S
C382   C994    1.388   1_554 S
C383   H400    1.085   .     S
C383   C995    1.388   .     S
C384   C595    1.355   .     S
C384   H601    1.086   .     S
C386   O417    1.317   .     A
C386   O419    1.324   .     A
Cu387  Cu388   2.759   .     S
Cu387  O420    1.992   .     S
Cu387  N412    2.073   .     S
Cu387  O416    1.976   .     S
Cu387  O417    1.986   .     S
Cu387  O413    1.962   .     S
Cu388  O415    1.976   .     S
Cu388  N411    2.073   .     S
Cu388  O419    1.992   .     S
Cu388  O414    1.962   .     S
Cu388  O418    1.986   .     S
H392   C595    1.086   .     S
H401   C588    1.082   .     S
H408   C215    1.084   1_655 S
N411   N272    1.256   1_655 S
C421   O485    1.328   .     A
C421   C454    1.455   .     S
C421   O483    1.307   .     A
C422   C424    1.466   .     S
C422   O490    1.324   .     A
C422   O488    1.317   .     A
C423   C429    1.396   .     A
C423   C456    1.466   .     S
C423   C427    1.400   .     A
C424   C428    1.400   .     A
C424   C430    1.396   .     A
C425   C434    1.401   .     A
C425   C427    1.389   .     A
C425   H618    1.084   1_455 S
C426   C435    1.401   .     A
C426   C428    1.389   .     A
C426   H549    1.084   .     S
C427   H477    1.083   .     S
C428   H476    1.083   .     S
C429   C431    1.408   .     A
C429   H475    1.074   .     S
C430   C433    1.408   .     A
C430   H474    1.074   .     S
C431   C436    1.427   .     A
C431   C434    1.419   .     A
C432   C455    1.455   .     S
C432   O484    1.307   .     A
C432   O486    1.328   .     A
C433   C437    1.427   .     A
C433   C435    1.419   .     A
C434   C1082   1.388   .     S
C435   C1083   1.388   1_554 S
C436   C451    1.417   .     A
C436   C1067   1.428   .     S
C437   C443    1.417   .     A
C437   C1066   1.428   1_554 S
C438   N481    1.525   .     S
C438   C439    1.439   .     A
C438   C514    1.437   .     S
C439   C440    1.400   .     A
C439   H463    1.041   .     S
C440   H464    1.084   .     S
C440   C511    1.372   .     S
C441   C442    1.372   .     A
C441   C580    1.372   1_455 S
C441   H45     1.082   1_565 S
C442   H466    1.085   .     S
C442   C444    1.403   .     A
C443   C452    1.384   .     A
C443   H480    1.075   .     S
C444   H467    1.023   .     S
C444   C578    1.437   1_455 S
C445   N482    1.525   .     S
C445   C446    1.440   .     A
C445   C590    1.437   1_455 S
C446   H468    1.041   .     S
C446   C447    1.400   .     A
C447   H469    1.084   .     S
C447   C588    1.372   1_455 S
C448   C449    1.372   .     A
C448   C517    1.372   .     S
C449   C450    1.403   .     A
C449   H472    1.085   .     S
C450   H473    1.023   .     S
C450   C515    1.437   .     S
C451   C453    1.384   .     A
C451   H460    1.075   .     S
C452   H459    1.085   .     S
C452   C1064   1.388   1_554 S
C453   H470    1.085   .     S
C453   C1065   1.388   .     S
C454   C35     1.355   1_565 S
C454   H41     1.086   1_565 S
C456   O487    1.317   .     A
C456   O489    1.324   .     A
Cu457  Cu458   2.759   .     S
Cu457  O490    1.992   .     S
Cu457  N482    2.073   .     S
Cu457  O486    1.976   .     S
Cu457  O487    1.986   .     S
Cu457  O483    1.962   .     S
Cu458  O485    1.976   .     S
Cu458  N481    2.073   .     S
Cu458  O489    1.992   .     S
Cu458  O484    1.962   .     S
Cu458  O488    1.986   .     S
H462   C35     1.086   1_565 S
H471   C28     1.082   1_565 S
H478   C495    1.084   .     S
H479   C566    1.084   1_455 S
N481   N552    1.256   .     S
N482   N621    1.256   1_455 S
C491   O555    1.328   .     A
C491   C524    1.455   .     S
C491   O553    1.307   .     A
C492   C494    1.466   .     S
C492   O560    1.324   .     A
C492   O558    1.317   .     A
C493   C499    1.396   .     A
C493   C526    1.466   .     S
C493   C497    1.400   .     A
C494   C498    1.400   .     A
C494   C500    1.396   .     A
C495   C504    1.401   .     A
C495   C497    1.389   .     A
C496   C505    1.401   .     A
C496   C498    1.389   .     A
C496   H619    1.084   .     S
C497   H547    1.083   .     S
C498   H546    1.083   .     S
C499   C501    1.408   .     A
C499   H545    1.074   .     S
C500   C503    1.408   .     A
C500   H544    1.074   .     S
C501   C506    1.427   .     A
C501   C504    1.419   .     A
C502   C525    1.455   .     S
C502   O554    1.307   .     A
C502   O556    1.328   .     A
C503   C507    1.427   .     A
C503   C505    1.419   .     A
C504   C1152   1.388   .     S
C505   C1153   1.388   1_554 S
C506   C521    1.417   .     A
C506   C1137   1.428   .     S
C507   C513    1.417   .     A
C507   C1136   1.428   1_554 S
C508   N551    1.525   .     S
C508   C509    1.439   .     A
C508   C584    1.437   .     S
C509   C510    1.400   .     A
C509   H533    1.041   .     S
C510   H534    1.084   .     S
C510   C581    1.372   .     S
C511   C512    1.372   .     A
C511   H115    1.082   1_565 S
C512   H536    1.085   .     S
C512   C514    1.403   .     A
C513   C522    1.384   .     A
C513   H550    1.075   .     S
C514   H537    1.023   .     S
C515   N552    1.525   .     S
C515   C516    1.440   .     A
C516   H538    1.041   .     S
C516   C517    1.400   .     A
C517   H539    1.084   .     S
C518   C519    1.372   .     A
C518   C587    1.372   .     S
C519   C520    1.403   .     A
C519   H542    1.085   .     S
C520   H543    1.023   .     S
C520   C585    1.437   .     S
C521   C523    1.384   .     A
C521   H530    1.075   .     S
C522   H529    1.085   .     S
C522   C1134   1.388   1_554 S
C523   H540    1.085   .     S
C523   C1135   1.388   .     S
C524   C105    1.355   1_565 S
C524   H111    1.086   1_565 S
C526   O557    1.317   .     A
C526   O559    1.324   .     A
Cu527  Cu528   2.759   .     S
Cu527  O560    1.992   .     S
Cu527  N552    2.073   .     S
Cu527  O556    1.976   .     S
Cu527  O557    1.986   .     S
Cu527  O553    1.962   .     S
Cu528  O555    1.976   .     S
Cu528  N551    2.073   .     S
Cu528  O559    1.992   .     S
Cu528  O554    1.962   .     S
Cu528  O558    1.986   .     S
H532   C105    1.086   1_565 S
H541   C98     1.082   1_565 S
H548   C565    1.084   .     S
N551   N622    1.256   .     S
C561   O625    1.328   .     A
C561   C594    1.455   .     S
C561   O623    1.307   .     A
C562   C564    1.466   .     S
C562   O630    1.324   .     A
C562   O628    1.317   .     A
C563   C569    1.396   .     A
C563   C596    1.466   .     S
C563   C567    1.400   .     A
C564   C568    1.400   .     A
C564   C570    1.396   .     A
C565   C574    1.401   .     A
C565   C567    1.389   .     A
C566   C575    1.401   .     A
C566   C568    1.389   .     A
C566   H479    1.084   1_655 S
C567   H617    1.083   .     S
C568   H616    1.083   .     S
C569   C571    1.408   .     A
C569   H615    1.074   .     S
C570   C573    1.408   .     A
C570   H614    1.074   .     S
C571   C576    1.427   .     A
C571   C574    1.419   .     A
C572   C595    1.455   .     S
C572   O624    1.307   .     A
C572   O626    1.328   .     A
C573   C577    1.427   .     A
C573   C575    1.419   .     A
C574   C1222   1.388   .     S
C575   C1223   1.388   1_554 S
C576   C591    1.417   .     A
C576   C1207   1.428   .     S
C577   C583    1.417   .     A
C577   C1206   1.428   1_554 S
C578   N621    1.525   .     S
C578   C579    1.439   .     A
C578   C444    1.437   1_655 S
C579   C580    1.400   .     A
C579   H603    1.041   .     S
C580   H604    1.084   .     S
C580   C441    1.372   1_655 S
C581   C582    1.372   .     A
C581   H185    1.082   1_565 S
C582   H606    1.085   .     S
C582   C584    1.403   .     A
C583   C592    1.384   .     A
C583   H620    1.075   .     S
C584   H607    1.023   .     S
C585   N622    1.525   .     S
C585   C586    1.440   .     A
C586   H608    1.041   .     S
C586   C587    1.400   .     A
C587   H609    1.084   .     S
C588   C589    1.372   .     A
C588   C447    1.372   1_655 S
C589   C590    1.403   .     A
C589   H612    1.085   .     S
C590   H613    1.023   .     S
C590   C445    1.437   1_655 S
C591   C593    1.384   .     A
C591   H600    1.075   .     S
C592   H599    1.085   .     S
C592   C1204   1.388   1_554 S
C593   H610    1.085   .     S
C593   C1205   1.388   .     S
C594   C175    1.355   1_565 S
C594   H181    1.086   1_565 S
C596   O627    1.317   .     A
C596   O629    1.324   .     A
Cu597  Cu598   2.759   .     S
Cu597  O630    1.992   .     S
Cu597  N622    2.073   .     S
Cu597  O626    1.976   .     S
Cu597  O627    1.986   .     S
Cu597  O623    1.962   .     S
Cu598  O625    1.976   .     S
Cu598  N621    2.073   .     S
Cu598  O629    1.992   .     S
Cu598  O624    1.962   .     S
Cu598  O628    1.986   .     S
H602   C175    1.086   1_565 S
H611   C168    1.082   1_565 S
H618   C425    1.084   1_655 S
N621   N482    1.256   1_655 S
C631   O695    1.328   .     A
C631   C664    1.455   .     S
C631   O693    1.307   .     A
C632   C634    1.466   .     S
C632   O700    1.324   .     A
C632   O698    1.317   .     A
C633   C639    1.396   .     A
C633   C666    1.466   .     S
C633   C637    1.400   .     A
C634   C638    1.400   .     A
C634   C640    1.396   .     A
C635   C644    1.401   .     A
C635   C637    1.389   .     A
C635   H828    1.084   1_455 S
C636   C645    1.401   .     A
C636   C638    1.389   .     A
C636   H759    1.084   .     S
C637   H687    1.083   .     S
C638   H686    1.083   .     S
C639   C641    1.408   .     A
C639   H685    1.074   .     S
C640   C643    1.408   .     A
C640   H684    1.074   .     S
C641   C646    1.427   .     A
C641   C644    1.419   .     A
C642   C665    1.455   .     S
C642   O694    1.307   .     A
C642   O696    1.328   .     A
C643   C647    1.427   .     A
C643   C645    1.419   .     A
C644   C32     1.388   1_556 S
C646   C661    1.417   .     A
C646   C17     1.428   1_556 S
C647   C653    1.417   .     A
C648   N691    1.525   .     S
C648   C649    1.439   .     A
C648   C724    1.437   .     S
C649   C650    1.400   .     A
C649   H673    1.041   .     S
C650   H674    1.084   .     S
C650   C721    1.372   .     S
C651   C652    1.372   .     A
C651   C790    1.372   1_455 S
C651   H885    1.082   .     S
C652   H676    1.085   .     S
C652   C654    1.403   .     A
C653   C662    1.384   .     A
C653   H690    1.075   .     S
C654   H677    1.023   .     S
C654   C788    1.437   1_455 S
C655   N692    1.525   .     S
C655   C656    1.440   .     A
C655   C800    1.437   1_455 S
C656   H678    1.041   .     S
C656   C657    1.400   .     A
C657   H679    1.084   .     S
C657   C798    1.372   1_455 S
C658   C659    1.372   .     A
C658   C727    1.372   .     S
C658   H1101   1.082   1_545 S
C659   C660    1.403   .     A
C659   H682    1.085   .     S
C660   H683    1.023   .     S
C660   C725    1.437   .     S
C661   C663    1.384   .     A
C661   H670    1.075   .     S
C662   H669    1.085   .     S
C663   H680    1.085   .     S
C663   C15     1.388   1_556 S
C664   C875    1.355   .     S
C664   H881    1.086   .     S
C665   C1084   1.355   1_545 S
C665   H1092   1.086   1_545 S
C666   O697    1.317   .     A
C666   O699    1.324   .     A
Cu667  Cu668   2.759   .     S
Cu667  O700    1.992   .     S
Cu667  N692    2.073   .     S
Cu667  O696    1.976   .     S
Cu667  O697    1.986   .     S
Cu667  O693    1.962   .     S
Cu668  O695    1.976   .     S
Cu668  N691    2.073   .     S
Cu668  O699    1.992   .     S
Cu668  O694    1.962   .     S
Cu668  O698    1.986   .     S
H671   C1084   1.086   1_545 S
H672   C875    1.086   .     S
H675   C1071   1.082   1_545 S
H681   C868    1.082   .     S
H688   C705    1.084   .     S
H689   C776    1.084   1_455 S
N691   N762    1.256   .     S
N692   N831    1.256   1_455 S
C701   O765    1.328   .     A
C701   C734    1.455   .     S
C701   O763    1.307   .     A
C702   C704    1.466   .     S
C702   O770    1.324   .     A
C702   O768    1.317   .     A
C703   C709    1.396   .     A
C703   C736    1.466   .     S
C703   C707    1.400   .     A
C704   C708    1.400   .     A
C704   C710    1.396   .     A
C705   C714    1.401   .     A
C705   C707    1.389   .     A
C706   C715    1.401   .     A
C706   C708    1.389   .     A
C706   H829    1.084   .     S
C707   H757    1.083   .     S
C708   H756    1.083   .     S
C709   C711    1.408   .     A
C709   H755    1.074   .     S
C710   C713    1.408   .     A
C710   H754    1.074   .     S
C711   C716    1.427   .     A
C711   C714    1.419   .     A
C712   C735    1.455   .     S
C712   O764    1.307   .     A
C712   O766    1.328   .     A
C713   C717    1.427   .     A
C713   C715    1.419   .     A
C714   C102    1.388   1_556 S
C716   C731    1.417   .     A
C716   C87     1.428   1_556 S
C717   C723    1.417   .     A
C718   N761    1.525   .     S
C718   C719    1.439   .     A
C718   C794    1.437   .     S
C719   C720    1.400   .     A
C719   H743    1.041   .     S
C720   H744    1.084   .     S
C720   C791    1.372   .     S
C721   C722    1.372   .     A
C721   H955    1.082   .     S
C722   H746    1.085   .     S
C722   C724    1.403   .     A
C723   C732    1.384   .     A
C723   H760    1.075   .     S
C724   H747    1.023   .     S
C725   N762    1.525   .     S
C725   C726    1.440   .     A
C726   H748    1.041   .     S
C726   C727    1.400   .     A
C727   H749    1.084   .     S
C728   C729    1.372   .     A
C728   C797    1.372   .     S
C728   H1171   1.082   1_545 S
C729   C730    1.403   .     A
C729   H752    1.085   .     S
C730   H753    1.023   .     S
C730   C795    1.437   .     S
C731   C733    1.384   .     A
C731   H740    1.075   .     S
C732   H739    1.085   .     S
C733   H750    1.085   .     S
C733   C85     1.388   1_556 S
C734   C945    1.355   .     S
C734   H951    1.086   .     S
C735   C1154   1.355   1_545 S
C735   H1162   1.086   1_545 S
C736   O767    1.317   .     A
C736   O769    1.324   .     A
Cu737  Cu738   2.759   .     S
Cu737  O770    1.992   .     S
Cu737  N762    2.073   .     S
Cu737  O766    1.976   .     S
Cu737  O767    1.986   .     S
Cu737  O763    1.962   .     S
Cu738  O765    1.976   .     S
Cu738  N761    2.073   .     S
Cu738  O769    1.992   .     S
Cu738  O764    1.962   .     S
Cu738  O768    1.986   .     S
H741   C1154   1.086   1_545 S
H742   C945    1.086   .     S
H745   C1141   1.082   1_545 S
H751   C938    1.082   .     S
H758   C775    1.084   .     S
N761   N832    1.256   .     S
C771   O835    1.328   .     A
C771   C804    1.455   .     S
C771   O833    1.307   .     A
C772   C774    1.466   .     S
C772   O840    1.324   .     A
C772   O838    1.317   .     A
C773   C779    1.396   .     A
C773   C806    1.466   .     S
C773   C777    1.400   .     A
C774   C778    1.400   .     A
C774   C780    1.396   .     A
C775   C784    1.401   .     A
C775   C777    1.389   .     A
C776   C785    1.401   .     A
C776   C778    1.389   .     A
C776   H689    1.084   1_655 S
C777   H827    1.083   .     S
C778   H826    1.083   .     S
C779   C781    1.408   .     A
C779   H825    1.074   .     S
C780   C783    1.408   .     A
C780   H824    1.074   .     S
C781   C786    1.427   .     A
C781   C784    1.419   .     A
C782   C805    1.455   .     S
C782   O834    1.307   .     A
C782   O836    1.328   .     A
C783   C787    1.427   .     A
C783   C785    1.419   .     A
C784   C172    1.388   1_556 S
C786   C801    1.417   .     A
C786   C157    1.428   1_556 S
C787   C793    1.417   .     A
C788   N831    1.525   .     S
C788   C789    1.439   .     A
C788   C654    1.437   1_655 S
C789   C790    1.400   .     A
C789   H813    1.041   .     S
C790   H814    1.084   .     S
C790   C651    1.372   1_655 S
C791   C792    1.372   .     A
C791   H1025   1.082   .     S
C792   H816    1.085   .     S
C792   C794    1.403   .     A
C793   C802    1.384   .     A
C793   H830    1.075   .     S
C794   H817    1.023   .     S
C795   N832    1.525   .     S
C795   C796    1.440   .     A
C796   H818    1.041   .     S
C796   C797    1.400   .     A
C797   H819    1.084   .     S
C798   C799    1.372   .     A
C798   C657    1.372   1_655 S
C798   H1241   1.082   1_545 S
C799   C800    1.403   .     A
C799   H822    1.085   .     S
C800   H823    1.023   .     S
C800   C655    1.437   1_655 S
C801   C803    1.384   .     A
C801   H810    1.075   .     S
C802   H809    1.085   .     S
C803   H820    1.085   .     S
C803   C155    1.388   1_556 S
C804   C1015   1.355   .     S
C804   H1021   1.086   .     S
C805   C1224   1.355   1_545 S
C805   H1232   1.086   1_545 S
C806   O837    1.317   .     A
C806   O839    1.324   .     A
Cu807  Cu808   2.759   .     S
Cu807  O840    1.992   .     S
Cu807  N832    2.073   .     S
Cu807  O836    1.976   .     S
Cu807  O837    1.986   .     S
Cu807  O833    1.962   .     S
Cu808  O835    1.976   .     S
Cu808  N831    2.073   .     S
Cu808  O839    1.992   .     S
Cu808  O834    1.962   .     S
Cu808  O838    1.986   .     S
H811   C1224   1.086   1_545 S
H812   C1015   1.086   .     S
H815   C1211   1.082   1_545 S
H821   C1008   1.082   .     S
H828   C635    1.084   1_655 S
N831   N692    1.256   1_655 S
C841   O905    1.328   .     A
C841   C874    1.455   .     S
C841   O903    1.307   .     A
C842   C844    1.466   .     S
C842   O910    1.324   .     A
C842   O908    1.317   .     A
C843   C849    1.396   .     A
C843   C876    1.466   .     S
C843   C847    1.400   .     A
C844   C848    1.400   .     A
C844   C850    1.396   .     A
C845   C854    1.401   .     A
C845   C847    1.389   .     A
C845   H1038   1.084   1_455 S
C846   C855    1.401   .     A
C846   C848    1.389   .     A
C846   H969    1.084   .     S
C847   H897    1.083   .     S
C848   H896    1.083   .     S
C849   C851    1.408   .     A
C849   H895    1.074   .     S
C850   C853    1.408   .     A
C850   H894    1.074   .     S
C851   C856    1.427   .     A
C851   C854    1.419   .     A
C852   C875    1.455   .     S
C852   O904    1.307   .     A
C852   O906    1.328   .     A
C853   C857    1.427   .     A
C853   C855    1.419   .     A
C854   C242    1.388   1_556 S
C856   C871    1.417   .     A
C856   C227    1.428   1_556 S
C857   C863    1.417   .     A
C858   N901    1.525   .     S
C858   C859    1.439   .     A
C858   C934    1.437   .     S
C859   C860    1.400   .     A
C859   H883    1.041   .     S
C860   H884    1.084   .     S
C860   C931    1.372   .     S
C861   C862    1.372   .     A
C861   C1000   1.372   1_455 S
C861   H1095   1.082   .     S
C862   H886    1.085   .     S
C862   C864    1.403   .     A
C863   C872    1.384   .     A
C863   H900    1.075   .     S
C864   H887    1.023   .     S
C864   C998    1.437   1_455 S
C865   N902    1.525   .     S
C865   C866    1.440   .     A
C865   C1010   1.437   1_455 S
C866   H888    1.041   .     S
C866   C867    1.400   .     A
C867   H889    1.084   .     S
C867   C1008   1.372   1_455 S
C868   C869    1.372   .     A
C868   C937    1.372   .     S
C869   C870    1.403   .     A
C869   H892    1.085   .     S
C870   H893    1.023   .     S
C870   C935    1.437   .     S
C871   C873    1.384   .     A
C871   H880    1.075   .     S
C872   H879    1.085   .     S
C873   H890    1.085   .     S
C873   C225    1.388   1_556 S
C874   C1085   1.355   .     S
C874   H1091   1.086   .     S
C876   O907    1.317   .     A
C876   O909    1.324   .     A
Cu877  Cu878   2.759   .     S
Cu877  O910    1.992   .     S
Cu877  N902    2.073   .     S
Cu877  O906    1.976   .     S
Cu877  O907    1.986   .     S
Cu877  O903    1.962   .     S
Cu878  O905    1.976   .     S
Cu878  N901    2.073   .     S
Cu878  O909    1.992   .     S
Cu878  O904    1.962   .     S
Cu878  O908    1.986   .     S
H882   C1085   1.086   .     S
H891   C1078   1.082   .     S
H898   C915    1.084   .     S
H899   C986    1.084   1_455 S
N901   N972    1.256   .     S
N902   N1041   1.256   1_455 S
C911   O975    1.328   .     A
C911   C944    1.455   .     S
C911   O973    1.307   .     A
C912   C914    1.466   .     S
C912   O980    1.324   .     A
C912   O978    1.317   .     A
C913   C919    1.396   .     A
C913   C946    1.466   .     S
C913   C917    1.400   .     A
C914   C918    1.400   .     A
C914   C920    1.396   .     A
C915   C924    1.401   .     A
C915   C917    1.389   .     A
C916   C925    1.401   .     A
C916   C918    1.389   .     A
C916   H1039   1.084   .     S
C917   H967    1.083   .     S
C918   H966    1.083   .     S
C919   C921    1.408   .     A
C919   H965    1.074   .     S
C920   C923    1.408   .     A
C920   H964    1.074   .     S
C921   C926    1.427   .     A
C921   C924    1.419   .     A
C922   C945    1.455   .     S
C922   O974    1.307   .     A
C922   O976    1.328   .     A
C923   C927    1.427   .     A
C923   C925    1.419   .     A
C924   C312    1.388   1_556 S
C926   C941    1.417   .     A
C926   C297    1.428   1_556 S
C927   C933    1.417   .     A
C928   N971    1.525   .     S
C928   C929    1.439   .     A
C928   C1004   1.437   .     S
C929   C930    1.400   .     A
C929   H953    1.041   .     S
C930   H954    1.084   .     S
C930   C1001   1.372   .     S
C931   C932    1.372   .     A
C931   H1165   1.082   .     S
C932   H956    1.085   .     S
C932   C934    1.403   .     A
C933   C942    1.384   .     A
C933   H970    1.075   .     S
C934   H957    1.023   .     S
C935   N972    1.525   .     S
C935   C936    1.440   .     A
C936   H958    1.041   .     S
C936   C937    1.400   .     A
C937   H959    1.084   .     S
C938   C939    1.372   .     A
C938   C1007   1.372   .     S
C939   C940    1.403   .     A
C939   H962    1.085   .     S
C940   H963    1.023   .     S
C940   C1005   1.437   .     S
C941   C943    1.384   .     A
C941   H950    1.075   .     S
C942   H949    1.085   .     S
C943   H960    1.085   .     S
C943   C295    1.388   1_556 S
C944   C1155   1.355   .     S
C944   H1161   1.086   .     S
C946   O977    1.317   .     A
C946   O979    1.324   .     A
Cu947  Cu948   2.759   .     S
Cu947  O980    1.992   .     S
Cu947  N972    2.073   .     S
Cu947  O976    1.976   .     S
Cu947  O977    1.986   .     S
Cu947  O973    1.962   .     S
Cu948  O975    1.976   .     S
Cu948  N971    2.073   .     S
Cu948  O979    1.992   .     S
Cu948  O974    1.962   .     S
Cu948  O978    1.986   .     S
H952   C1155   1.086   .     S
H961   C1148   1.082   .     S
H968   C985    1.084   .     S
N971   N1042   1.256   .     S
C981   O1045   1.328   .     A
C981   C1014   1.455   .     S
C981   O1043   1.307   .     A
C982   C984    1.466   .     S
C982   O1050   1.324   .     A
C982   O1048   1.317   .     A
C983   C989    1.396   .     A
C983   C1016   1.466   .     S
C983   C987    1.400   .     A
C984   C988    1.400   .     A
C984   C990    1.396   .     A
C985   C994    1.401   .     A
C985   C987    1.389   .     A
C986   C995    1.401   .     A
C986   C988    1.389   .     A
C986   H899    1.084   1_655 S
C987   H1037   1.083   .     S
C988   H1036   1.083   .     S
C989   C991    1.408   .     A
C989   H1035   1.074   .     S
C990   C993    1.408   .     A
C990   H1034   1.074   .     S
C991   C996    1.427   .     A
C991   C994    1.419   .     A
C992   C1015   1.455   .     S
C992   O1044   1.307   .     A
C992   O1046   1.328   .     A
C993   C997    1.427   .     A
C993   C995    1.419   .     A
C994   C382    1.388   1_556 S
C996   C1011   1.417   .     A
C996   C367    1.428   1_556 S
C997   C1003   1.417   .     A
C998   N1041   1.525   .     S
C998   C999    1.439   .     A
C998   C864    1.437   1_655 S
C999   C1000   1.400   .     A
C999   H1023   1.041   .     S
C1000  H1024   1.084   .     S
C1000  C861    1.372   1_655 S
C1001  C1002   1.372   .     A
C1001  H1235   1.082   .     S
C1002  H1026   1.085   .     S
C1002  C1004   1.403   .     A
C1003  C1012   1.384   .     A
C1003  H1040   1.075   .     S
C1004  H1027   1.023   .     S
C1005  N1042   1.525   .     S
C1005  C1006   1.440   .     A
C1006  H1028   1.041   .     S
C1006  C1007   1.400   .     A
C1007  H1029   1.084   .     S
C1008  C1009   1.372   .     A
C1008  C867    1.372   1_655 S
C1009  C1010   1.403   .     A
C1009  H1032   1.085   .     S
C1010  H1033   1.023   .     S
C1010  C865    1.437   1_655 S
C1011  C1013   1.384   .     A
C1011  H1020   1.075   .     S
C1012  H1019   1.085   .     S
C1013  H1030   1.085   .     S
C1013  C365    1.388   1_556 S
C1014  C1225   1.355   .     S
C1014  H1231   1.086   .     S
C1016  O1047   1.317   .     A
C1016  O1049   1.324   .     A
Cu1017 Cu1018  2.759   .     S
Cu1017 O1050   1.992   .     S
Cu1017 N1042   2.073   .     S
Cu1017 O1046   1.976   .     S
Cu1017 O1047   1.986   .     S
Cu1017 O1043   1.962   .     S
Cu1018 O1045   1.976   .     S
Cu1018 N1041   2.073   .     S
Cu1018 O1049   1.992   .     S
Cu1018 O1044   1.962   .     S
Cu1018 O1048   1.986   .     S
H1022  C1225   1.086   .     S
H1031  C1218   1.082   .     S
H1038  C845    1.084   1_655 S
N1041  N902    1.256   1_655 S
C1051  O1115   1.328   .     A
C1051  C1084   1.455   .     S
C1051  O1113   1.307   .     A
C1052  C1054   1.466   .     S
C1052  O1120   1.324   .     A
C1052  O1118   1.317   .     A
C1053  C1059   1.396   .     A
C1053  C1086   1.466   .     S
C1053  C1057   1.400   .     A
C1054  C1058   1.400   .     A
C1054  C1060   1.396   .     A
C1055  C1064   1.401   .     A
C1055  C1057   1.389   .     A
C1055  H1248   1.084   1_455 S
C1056  C1065   1.401   .     A
C1056  C1058   1.389   .     A
C1056  H1179   1.084   .     S
C1057  H1107   1.083   .     S
C1058  H1106   1.083   .     S
C1059  C1061   1.408   .     A
C1059  H1105   1.074   .     S
C1060  C1063   1.408   .     A
C1060  H1104   1.074   .     S
C1061  C1066   1.427   .     A
C1061  C1064   1.419   .     A
C1062  C1085   1.455   .     S
C1062  O1114   1.307   .     A
C1062  O1116   1.328   .     A
C1063  C1067   1.427   .     A
C1063  C1065   1.419   .     A
C1064  C452    1.388   1_556 S
C1066  C1081   1.417   .     A
C1066  C437    1.428   1_556 S
C1067  C1073   1.417   .     A
C1068  N1111   1.525   .     S
C1068  C1069   1.439   .     A
C1068  C1144   1.437   .     S
C1069  C1070   1.400   .     A
C1069  H1093   1.041   .     S
C1070  H1094   1.084   .     S
C1070  C1141   1.372   .     S
C1071  C1072   1.372   .     A
C1071  C1210   1.372   1_455 S
C1071  H675    1.082   1_565 S
C1072  H1096   1.085   .     S
C1072  C1074   1.403   .     A
C1073  C1082   1.384   .     A
C1073  H1110   1.075   .     S
C1074  H1097   1.023   .     S
C1074  C1208   1.437   1_455 S
C1075  N1112   1.525   .     S
C1075  C1076   1.440   .     A
C1075  C1220   1.437   1_455 S
C1076  H1098   1.041   .     S
C1076  C1077   1.400   .     A
C1077  H1099   1.084   .     S
C1077  C1218   1.372   1_455 S
C1078  C1079   1.372   .     A
C1078  C1147   1.372   .     S
C1079  C1080   1.403   .     A
C1079  H1102   1.085   .     S
C1080  H1103   1.023   .     S
C1080  C1145   1.437   .     S
C1081  C1083   1.384   .     A
C1081  H1090   1.075   .     S
C1082  H1089   1.085   .     S
C1083  H1100   1.085   .     S
C1083  C435    1.388   1_556 S
C1084  C665    1.355   1_565 S
C1084  H671    1.086   1_565 S
C1086  O1117   1.317   .     A
C1086  O1119   1.324   .     A
Cu1087 Cu1088  2.759   .     S
Cu1087 O1120   1.992   .     S
Cu1087 N1112   2.073   .     S
Cu1087 O1116   1.976   .     S
Cu1087 O1117   1.986   .     S
Cu1087 O1113   1.962   .     S
Cu1088 O1115   1.976   .     S
Cu1088 N1111   2.073   .     S
Cu1088 O1119   1.992   .     S
Cu1088 O1114   1.962   .     S
Cu1088 O1118   1.986   .     S
H1092  C665    1.086   1_565 S
H1101  C658    1.082   1_565 S
H1108  C1125   1.084   .     S
H1109  C1196   1.084   1_455 S
N1111  N1182   1.256   .     S
N1112  N1251   1.256   1_455 S
C1121  O1185   1.328   .     A
C1121  C1154   1.455   .     S
C1121  O1183   1.307   .     A
C1122  C1124   1.466   .     S
C1122  O1190   1.324   .     A
C1122  O1188   1.317   .     A
C1123  C1129   1.396   .     A
C1123  C1156   1.466   .     S
C1123  C1127   1.400   .     A
C1124  C1128   1.400   .     A
C1124  C1130   1.396   .     A
C1125  C1134   1.401   .     A
C1125  C1127   1.389   .     A
C1126  C1135   1.401   .     A
C1126  C1128   1.389   .     A
C1126  H1249   1.084   .     S
C1127  H1177   1.083   .     S
C1128  H1176   1.083   .     S
C1129  C1131   1.408   .     A
C1129  H1175   1.074   .     S
C1130  C1133   1.408   .     A
C1130  H1174   1.074   .     S
C1131  C1136   1.427   .     A
C1131  C1134   1.419   .     A
C1132  C1155   1.455   .     S
C1132  O1184   1.307   .     A
C1132  O1186   1.328   .     A
C1133  C1137   1.427   .     A
C1133  C1135   1.419   .     A
C1134  C522    1.388   1_556 S
C1136  C1151   1.417   .     A
C1136  C507    1.428   1_556 S
C1137  C1143   1.417   .     A
C1138  N1181   1.525   .     S
C1138  C1139   1.439   .     A
C1138  C1214   1.437   .     S
C1139  C1140   1.400   .     A
C1139  H1163   1.041   .     S
C1140  H1164   1.084   .     S
C1140  C1211   1.372   .     S
C1141  C1142   1.372   .     A
C1141  H745    1.082   1_565 S
C1142  H1166   1.085   .     S
C1142  C1144   1.403   .     A
C1143  C1152   1.384   .     A
C1143  H1180   1.075   .     S
C1144  H1167   1.023   .     S
C1145  N1182   1.525   .     S
C1145  C1146   1.440   .     A
C1146  H1168   1.041   .     S
C1146  C1147   1.400   .     A
C1147  H1169   1.084   .     S
C1148  C1149   1.372   .     A
C1148  C1217   1.372   .     S
C1149  C1150   1.403   .     A
C1149  H1172   1.085   .     S
C1150  H1173   1.023   .     S
C1150  C1215   1.437   .     S
C1151  C1153   1.384   .     A
C1151  H1160   1.075   .     S
C1152  H1159   1.085   .     S
C1153  H1170   1.085   .     S
C1153  C505    1.388   1_556 S
C1154  C735    1.355   1_565 S
C1154  H741    1.086   1_565 S
C1156  O1187   1.317   .     A
C1156  O1189   1.324   .     A
Cu1157 Cu1158  2.759   .     S
Cu1157 O1190   1.992   .     S
Cu1157 N1182   2.073   .     S
Cu1157 O1186   1.976   .     S
Cu1157 O1187   1.986   .     S
Cu1157 O1183   1.962   .     S
Cu1158 O1185   1.976   .     S
Cu1158 N1181   2.073   .     S
Cu1158 O1189   1.992   .     S
Cu1158 O1184   1.962   .     S
Cu1158 O1188   1.986   .     S
H1162  C735    1.086   1_565 S
H1171  C728    1.082   1_565 S
H1178  C1195   1.084   .     S
N1181  N1252   1.256   .     S
C1191  O1255   1.328   .     A
C1191  C1224   1.455   .     S
C1191  O1253   1.307   .     A
C1192  C1194   1.466   .     S
C1192  O1260   1.324   .     A
C1192  O1258   1.317   .     A
C1193  C1199   1.396   .     A
C1193  C1226   1.466   .     S
C1193  C1197   1.400   .     A
C1194  C1198   1.400   .     A
C1194  C1200   1.396   .     A
C1195  C1204   1.401   .     A
C1195  C1197   1.389   .     A
C1196  C1205   1.401   .     A
C1196  C1198   1.389   .     A
C1196  H1109   1.084   1_655 S
C1197  H1247   1.083   .     S
C1198  H1246   1.083   .     S
C1199  C1201   1.408   .     A
C1199  H1245   1.074   .     S
C1200  C1203   1.408   .     A
C1200  H1244   1.074   .     S
C1201  C1206   1.427   .     A
C1201  C1204   1.419   .     A
C1202  C1225   1.455   .     S
C1202  O1254   1.307   .     A
C1202  O1256   1.328   .     A
C1203  C1207   1.427   .     A
C1203  C1205   1.419   .     A
C1204  C592    1.388   1_556 S
C1206  C1221   1.417   .     A
C1206  C577    1.428   1_556 S
C1207  C1213   1.417   .     A
C1208  N1251   1.525   .     S
C1208  C1209   1.439   .     A
C1208  C1074   1.437   1_655 S
C1209  C1210   1.400   .     A
C1209  H1233   1.041   .     S
C1210  H1234   1.084   .     S
C1210  C1071   1.372   1_655 S
C1211  C1212   1.372   .     A
C1211  H815    1.082   1_565 S
C1212  H1236   1.085   .     S
C1212  C1214   1.403   .     A
C1213  C1222   1.384   .     A
C1213  H1250   1.075   .     S
C1214  H1237   1.023   .     S
C1215  N1252   1.525   .     S
C1215  C1216   1.440   .     A
C1216  H1238   1.041   .     S
C1216  C1217   1.400   .     A
C1217  H1239   1.084   .     S
C1218  C1219   1.372   .     A
C1218  C1077   1.372   1_655 S
C1219  C1220   1.403   .     A
C1219  H1242   1.085   .     S
C1220  H1243   1.023   .     S
C1220  C1075   1.437   1_655 S
C1221  C1223   1.384   .     A
C1221  H1230   1.075   .     S
C1222  H1229   1.085   .     S
C1223  H1240   1.085   .     S
C1223  C575    1.388   1_556 S
C1224  C805    1.355   1_565 S
C1224  H811    1.086   1_565 S
C1226  O1257   1.317   .     A
C1226  O1259   1.324   .     A
Cu1227 Cu1228  2.759   .     S
Cu1227 O1260   1.992   .     S
Cu1227 N1252   2.073   .     S
Cu1227 O1256   1.976   .     S
Cu1227 O1257   1.986   .     S
Cu1227 O1253   1.962   .     S
Cu1228 O1255   1.976   .     S
Cu1228 N1251   2.073   .     S
Cu1228 O1259   1.992   .     S
Cu1228 O1254   1.962   .     S
Cu1228 O1258   1.986   .     S
H1232  C805    1.086   1_565 S
H1241  C798    1.082   1_565 S
H1248  C1055   1.084   1_655 S
N1251  N1112   1.256   1_655 S
