data_str_m2_o10_o18_pcu_sym.88
_audit_creation_date              2020-01-03
_audit_creation_method            'Materials Studio'
_symmetry_space_group_name_H-M    'P1'
_symmetry_Int_Tables_number       1
_symmetry_cell_setting            triclinic
loop_
_symmetry_equiv_pos_as_xyz
  x,y,z
_cell_length_a                    22.4485
_cell_length_b                    26.0604
_cell_length_c                    31.3824
_cell_angle_alpha                 94.2482
_cell_angle_beta                  75.4741
_cell_angle_gamma                 103.1874
loop_
_atom_site_label
_atom_site_type_symbol
_atom_site_fract_x
_atom_site_fract_y
_atom_site_fract_z
_atom_site_U_iso_or_equiv
_atom_site_adp_type
_atom_site_occupancy
C1     C     0.18166   0.26667   0.25133   0.00000  Uiso   1.00
C2     C     0.20519   0.17409   0.16704   0.00000  Uiso   1.00
C3     C     0.10636   0.15695   0.38107   0.00000  Uiso   1.00
C4     C     0.22847   0.18506   0.11957   0.00000  Uiso   1.00
C5     C     0.03405   0.11072   0.44408   0.00000  Uiso   1.00
C6     C     0.31472   0.20391   0.05469   0.00000  Uiso   1.00
C7     C     0.04936   0.12263   0.39954   0.00000  Uiso   1.00
C8     C     0.29252   0.19045   0.09900   0.00000  Uiso   1.00
C9     C     0.14721   0.18096   0.40779   0.00000  Uiso   1.00
C10    C     0.18772   0.19479   0.09478   0.00000  Uiso   1.00
C11    C     0.13634   0.16365   0.45130   0.00000  Uiso   1.00
C12    C     0.15167   0.06666   0.24866   0.00000  Uiso   1.00
C13    C     0.20652   0.18709   0.04902   0.00000  Uiso   1.00
C14    C     0.07700   0.13083   0.47008   0.00000  Uiso   1.00
C15    C     0.27142   0.19970   0.02876   0.00000  Uiso   1.00
C16    C     0.18209   0.17790   0.47683   0.00000  Uiso   1.00
C17    C     0.16252   0.17041   0.02297   0.00000  Uiso   1.00
C18    C     0.10289   0.22826   0.13572   0.00000  Uiso   1.00
C19    C     0.17523   0.26991   0.40274   0.00000  Uiso   1.00
C20    C     0.10187   0.14056   0.04129   0.00000  Uiso   1.00
C21    C     0.24737   0.19498   0.45758   0.00000  Uiso   1.00
C22    C     0.06104   0.11870   0.01469   0.00000  Uiso   1.00
C23    C     0.29137   0.20509   0.48324   0.00000  Uiso   1.00
C24    C     0.19003   0.32268   0.25197   0.00000  Uiso   1.00
C25    C     0.14332   0.01064   0.24795   0.00000  Uiso   1.00
C26    C     0.12844   0.16301   0.33318   0.00000  Uiso   1.00
Cu27   Cu    0.10737   0.16108   0.24516   0.00000  Uiso   1.00
Cu28   Cu    0.22596   0.17225   0.25483   0.00000  Uiso   1.00
H29    H     0.01573   0.09391   0.02948   0.00000  Uiso   1.00
H30    H     0.09835   0.32014   0.24412   0.00000  Uiso   1.00
H31    H     0.00122   0.20534   0.28455   0.00000  Uiso   1.00
H32    H     0.33215   0.12806   0.21540   0.00000  Uiso   1.00
H33    H     0.07287   0.25079   0.12523   0.00000  Uiso   1.00
H34    H     0.10702   0.24365   0.16895   0.00000  Uiso   1.00
H35    H     0.07924   0.18580   0.13743   0.00000  Uiso   1.00
H36    H     0.13537   0.27125   0.38799   0.00000  Uiso   1.00
H37    H     0.16140   0.27553   0.43912   0.00000  Uiso   1.00
H38    H     0.21451   0.30339   0.38949   0.00000  Uiso   1.00
H39    H     0.00782   0.21564   0.46728   0.00000  Uiso   1.00
H40    H     0.32476   0.18521   0.11749   0.00000  Uiso   1.00
H41    H     0.01730   0.10429   0.37939   0.00000  Uiso   1.00
H42    H     0.32243   0.08493   0.45805   0.00000  Uiso   1.00
H43    H     0.03156   0.21357   0.04017   0.00000  Uiso   1.00
H44    H     0.08724   0.13081   0.07579   0.00000  Uiso   1.00
H45    H     0.26626   0.19604   0.42242   0.00000  Uiso   1.00
H46    H     0.23501   0.01317   0.25579   0.00000  Uiso   1.00
N47    N     0.31506   0.18068   0.26212   0.00000  Uiso   1.00
N48    N     0.01827   0.15265   0.23788   0.00000  Uiso   1.00
O49    O     0.12815   0.23809   0.24686   0.00000  Uiso   1.00
O50    O     0.19635   0.22262   0.39122   0.00000  Uiso   1.00
O51    O     0.20518   0.09524   0.25314   0.00000  Uiso   1.00
O52    O     0.22829   0.24753   0.25502   0.00000  Uiso   1.00
O53    O     0.10504   0.08580   0.24497   0.00000  Uiso   1.00
O54    O     0.08851   0.15930   0.30854   0.00000  Uiso   1.00
O55    O     0.24482   0.17403   0.19145   0.00000  Uiso   1.00
O56    O     0.18866   0.16874   0.31671   0.00000  Uiso   1.00
O57    O     0.14468   0.16460   0.18329   0.00000  Uiso   1.00
O58    O     0.16264   0.23927   0.10643   0.00000  Uiso   1.00
C59    C     0.51500   0.26667   0.25133   0.00000  Uiso   1.00
C60    C     0.53852   0.17409   0.16704   0.00000  Uiso   1.00
C61    C     0.43970   0.15695   0.38107   0.00000  Uiso   1.00
C62    C     0.56180   0.18506   0.11957   0.00000  Uiso   1.00
C63    C     0.36738   0.11072   0.44408   0.00000  Uiso   1.00
C64    C     0.64806   0.20391   0.05469   0.00000  Uiso   1.00
C65    C     0.38269   0.12263   0.39954   0.00000  Uiso   1.00
C66    C     0.62585   0.19045   0.09900   0.00000  Uiso   1.00
C67    C     0.48055   0.18096   0.40779   0.00000  Uiso   1.00
C68    C     0.52106   0.19479   0.09478   0.00000  Uiso   1.00
C69    C     0.46967   0.16365   0.45130   0.00000  Uiso   1.00
C70    C     0.48501   0.06666   0.24866   0.00000  Uiso   1.00
C71    C     0.53985   0.18709   0.04902   0.00000  Uiso   1.00
C72    C     0.41033   0.13083   0.47008   0.00000  Uiso   1.00
C73    C     0.60475   0.19970   0.02876   0.00000  Uiso   1.00
C74    C     0.51543   0.17790   0.47683   0.00000  Uiso   1.00
C75    C     0.49585   0.17041   0.02297   0.00000  Uiso   1.00
C76    C     0.43622   0.22826   0.13572   0.00000  Uiso   1.00
C77    C     0.50856   0.26991   0.40274   0.00000  Uiso   1.00
C78    C     0.43520   0.14056   0.04129   0.00000  Uiso   1.00
C79    C     0.58070   0.19498   0.45758   0.00000  Uiso   1.00
C80    C     0.39437   0.11870   0.01469   0.00000  Uiso   1.00
C81    C     0.62470   0.20509   0.48324   0.00000  Uiso   1.00
C82    C     0.52337   0.32268   0.25197   0.00000  Uiso   1.00
C83    C     0.47665   0.01064   0.24795   0.00000  Uiso   1.00
C84    C     0.46178   0.16301   0.33318   0.00000  Uiso   1.00
Cu85   Cu    0.44071   0.16108   0.24516   0.00000  Uiso   1.00
Cu86   Cu    0.55929   0.17225   0.25483   0.00000  Uiso   1.00
H87    H     0.34907   0.09391   0.02948   0.00000  Uiso   1.00
H88    H     0.43168   0.32014   0.24412   0.00000  Uiso   1.00
H89    H     0.33456   0.20534   0.28455   0.00000  Uiso   1.00
H90    H     0.66549   0.12806   0.21540   0.00000  Uiso   1.00
H91    H     0.40621   0.25079   0.12523   0.00000  Uiso   1.00
H92    H     0.44035   0.24365   0.16895   0.00000  Uiso   1.00
H93    H     0.41258   0.18580   0.13743   0.00000  Uiso   1.00
H94    H     0.46871   0.27125   0.38799   0.00000  Uiso   1.00
H95    H     0.49473   0.27553   0.43912   0.00000  Uiso   1.00
H96    H     0.54784   0.30339   0.38949   0.00000  Uiso   1.00
H97    H     0.34115   0.21564   0.46728   0.00000  Uiso   1.00
H98    H     0.65809   0.18521   0.11749   0.00000  Uiso   1.00
H99    H     0.35063   0.10429   0.37939   0.00000  Uiso   1.00
H100   H     0.65576   0.08493   0.45805   0.00000  Uiso   1.00
H101   H     0.36489   0.21357   0.04017   0.00000  Uiso   1.00
H102   H     0.42057   0.13081   0.07579   0.00000  Uiso   1.00
H103   H     0.59960   0.19604   0.42242   0.00000  Uiso   1.00
H104   H     0.56834   0.01317   0.25579   0.00000  Uiso   1.00
N105   N     0.64839   0.18068   0.26212   0.00000  Uiso   1.00
N106   N     0.35161   0.15265   0.23788   0.00000  Uiso   1.00
O107   O     0.46148   0.23809   0.24686   0.00000  Uiso   1.00
O108   O     0.52968   0.22262   0.39122   0.00000  Uiso   1.00
O109   O     0.53852   0.09524   0.25314   0.00000  Uiso   1.00
O110   O     0.56163   0.24753   0.25502   0.00000  Uiso   1.00
O111   O     0.43837   0.08580   0.24497   0.00000  Uiso   1.00
O112   O     0.42185   0.15930   0.30854   0.00000  Uiso   1.00
O113   O     0.57815   0.17403   0.19145   0.00000  Uiso   1.00
O114   O     0.52199   0.16874   0.31671   0.00000  Uiso   1.00
O115   O     0.47801   0.16460   0.18329   0.00000  Uiso   1.00
O116   O     0.49597   0.23927   0.10643   0.00000  Uiso   1.00
C117   C     0.84833   0.26667   0.25133   0.00000  Uiso   1.00
C118   C     0.87185   0.17409   0.16704   0.00000  Uiso   1.00
C119   C     0.77303   0.15695   0.38107   0.00000  Uiso   1.00
C120   C     0.89513   0.18506   0.11957   0.00000  Uiso   1.00
C121   C     0.70071   0.11072   0.44408   0.00000  Uiso   1.00
C122   C     0.98139   0.20391   0.05469   0.00000  Uiso   1.00
C123   C     0.71602   0.12263   0.39954   0.00000  Uiso   1.00
C124   C     0.95918   0.19045   0.09900   0.00000  Uiso   1.00
C125   C     0.81388   0.18096   0.40779   0.00000  Uiso   1.00
C126   C     0.85439   0.19479   0.09478   0.00000  Uiso   1.00
C127   C     0.80301   0.16365   0.45130   0.00000  Uiso   1.00
C128   C     0.81834   0.06666   0.24866   0.00000  Uiso   1.00
C129   C     0.87319   0.18709   0.04902   0.00000  Uiso   1.00
C130   C     0.74366   0.13083   0.47008   0.00000  Uiso   1.00
C131   C     0.93809   0.19970   0.02876   0.00000  Uiso   1.00
C132   C     0.84876   0.17790   0.47683   0.00000  Uiso   1.00
C133   C     0.82919   0.17041   0.02297   0.00000  Uiso   1.00
C134   C     0.76955   0.22826   0.13572   0.00000  Uiso   1.00
C135   C     0.84190   0.26991   0.40274   0.00000  Uiso   1.00
C136   C     0.76854   0.14056   0.04129   0.00000  Uiso   1.00
C137   C     0.91404   0.19498   0.45758   0.00000  Uiso   1.00
C138   C     0.72771   0.11870   0.01469   0.00000  Uiso   1.00
C139   C     0.95803   0.20509   0.48324   0.00000  Uiso   1.00
C140   C     0.85670   0.32268   0.25197   0.00000  Uiso   1.00
C141   C     0.80999   0.01064   0.24795   0.00000  Uiso   1.00
C142   C     0.79511   0.16301   0.33318   0.00000  Uiso   1.00
Cu143  Cu    0.77404   0.16108   0.24516   0.00000  Uiso   1.00
Cu144  Cu    0.89263   0.17225   0.25483   0.00000  Uiso   1.00
H145   H     0.68240   0.09391   0.02948   0.00000  Uiso   1.00
H146   H     0.76502   0.32014   0.24412   0.00000  Uiso   1.00
H147   H     0.66789   0.20534   0.28455   0.00000  Uiso   1.00
H148   H     0.99882   0.12806   0.21540   0.00000  Uiso   1.00
H149   H     0.73954   0.25079   0.12523   0.00000  Uiso   1.00
H150   H     0.77368   0.24365   0.16895   0.00000  Uiso   1.00
H151   H     0.74591   0.18580   0.13743   0.00000  Uiso   1.00
H152   H     0.80204   0.27125   0.38799   0.00000  Uiso   1.00
H153   H     0.82806   0.27553   0.43912   0.00000  Uiso   1.00
H154   H     0.88117   0.30339   0.38949   0.00000  Uiso   1.00
H155   H     0.67448   0.21564   0.46728   0.00000  Uiso   1.00
H156   H     0.99143   0.18521   0.11749   0.00000  Uiso   1.00
H157   H     0.68397   0.10429   0.37939   0.00000  Uiso   1.00
H158   H     0.98910   0.08493   0.45805   0.00000  Uiso   1.00
H159   H     0.69822   0.21357   0.04017   0.00000  Uiso   1.00
H160   H     0.75391   0.13081   0.07579   0.00000  Uiso   1.00
H161   H     0.93293   0.19604   0.42242   0.00000  Uiso   1.00
H162   H     0.90168   0.01317   0.25579   0.00000  Uiso   1.00
N163   N     0.98173   0.18068   0.26212   0.00000  Uiso   1.00
N164   N     0.68494   0.15265   0.23788   0.00000  Uiso   1.00
O165   O     0.79482   0.23809   0.24686   0.00000  Uiso   1.00
O166   O     0.86302   0.22262   0.39122   0.00000  Uiso   1.00
O167   O     0.87185   0.09524   0.25314   0.00000  Uiso   1.00
O168   O     0.89496   0.24753   0.25502   0.00000  Uiso   1.00
O169   O     0.77171   0.08580   0.24497   0.00000  Uiso   1.00
O170   O     0.75518   0.15930   0.30854   0.00000  Uiso   1.00
O171   O     0.91149   0.17403   0.19145   0.00000  Uiso   1.00
O172   O     0.85532   0.16874   0.31671   0.00000  Uiso   1.00
O173   O     0.81134   0.16460   0.18329   0.00000  Uiso   1.00
O174   O     0.82931   0.23927   0.10643   0.00000  Uiso   1.00
C175   C     0.18166   0.60000   0.25133   0.00000  Uiso   1.00
C176   C     0.20519   0.50742   0.16704   0.00000  Uiso   1.00
C177   C     0.10636   0.49028   0.38107   0.00000  Uiso   1.00
C178   C     0.22847   0.51839   0.11957   0.00000  Uiso   1.00
C179   C     0.03405   0.44406   0.44408   0.00000  Uiso   1.00
C180   C     0.31472   0.53724   0.05469   0.00000  Uiso   1.00
C181   C     0.04936   0.45597   0.39954   0.00000  Uiso   1.00
C182   C     0.29252   0.52378   0.09900   0.00000  Uiso   1.00
C183   C     0.14721   0.51429   0.40779   0.00000  Uiso   1.00
C184   C     0.18772   0.52813   0.09478   0.00000  Uiso   1.00
C185   C     0.13634   0.49698   0.45130   0.00000  Uiso   1.00
C186   C     0.15167   0.40000   0.24866   0.00000  Uiso   1.00
C187   C     0.20652   0.52042   0.04902   0.00000  Uiso   1.00
C188   C     0.07700   0.46416   0.47008   0.00000  Uiso   1.00
C189   C     0.27142   0.53303   0.02876   0.00000  Uiso   1.00
C190   C     0.18209   0.51123   0.47683   0.00000  Uiso   1.00
C191   C     0.16252   0.50374   0.02297   0.00000  Uiso   1.00
C192   C     0.10289   0.56159   0.13572   0.00000  Uiso   1.00
C193   C     0.17523   0.60325   0.40274   0.00000  Uiso   1.00
C194   C     0.10187   0.47389   0.04129   0.00000  Uiso   1.00
C195   C     0.24737   0.52831   0.45758   0.00000  Uiso   1.00
C196   C     0.06104   0.45203   0.01469   0.00000  Uiso   1.00
C197   C     0.29137   0.53843   0.48324   0.00000  Uiso   1.00
C198   C     0.19003   0.65601   0.25197   0.00000  Uiso   1.00
C199   C     0.14332   0.34397   0.24795   0.00000  Uiso   1.00
C200   C     0.12844   0.49635   0.33318   0.00000  Uiso   1.00
Cu201  Cu    0.10737   0.49441   0.24516   0.00000  Uiso   1.00
Cu202  Cu    0.22596   0.50559   0.25483   0.00000  Uiso   1.00
H203   H     0.01573   0.42725   0.02948   0.00000  Uiso   1.00
H204   H     0.09835   0.65348   0.24412   0.00000  Uiso   1.00
H205   H     0.00122   0.53868   0.28455   0.00000  Uiso   1.00
H206   H     0.33215   0.46140   0.21540   0.00000  Uiso   1.00
H207   H     0.07287   0.58412   0.12523   0.00000  Uiso   1.00
H208   H     0.10702   0.57699   0.16895   0.00000  Uiso   1.00
H209   H     0.07924   0.51913   0.13743   0.00000  Uiso   1.00
H210   H     0.13537   0.60458   0.38799   0.00000  Uiso   1.00
H211   H     0.16140   0.60887   0.43912   0.00000  Uiso   1.00
H212   H     0.21451   0.63673   0.38949   0.00000  Uiso   1.00
H213   H     0.00782   0.54897   0.46728   0.00000  Uiso   1.00
H214   H     0.32476   0.51854   0.11749   0.00000  Uiso   1.00
H215   H     0.01730   0.43762   0.37939   0.00000  Uiso   1.00
H216   H     0.32243   0.41827   0.45805   0.00000  Uiso   1.00
H217   H     0.03156   0.54690   0.04017   0.00000  Uiso   1.00
H218   H     0.08724   0.46414   0.07579   0.00000  Uiso   1.00
H219   H     0.26626   0.52937   0.42242   0.00000  Uiso   1.00
H220   H     0.23501   0.34650   0.25579   0.00000  Uiso   1.00
N221   N     0.31506   0.51401   0.26212   0.00000  Uiso   1.00
N222   N     0.01827   0.48599   0.23788   0.00000  Uiso   1.00
O223   O     0.12815   0.57142   0.24686   0.00000  Uiso   1.00
O224   O     0.19635   0.55596   0.39122   0.00000  Uiso   1.00
O225   O     0.20518   0.42858   0.25314   0.00000  Uiso   1.00
O226   O     0.22829   0.58086   0.25502   0.00000  Uiso   1.00
O227   O     0.10504   0.41914   0.24497   0.00000  Uiso   1.00
O228   O     0.08851   0.49263   0.30854   0.00000  Uiso   1.00
O229   O     0.24482   0.50737   0.19145   0.00000  Uiso   1.00
O230   O     0.18866   0.50207   0.31671   0.00000  Uiso   1.00
O231   O     0.14468   0.49793   0.18329   0.00000  Uiso   1.00
O232   O     0.16264   0.57261   0.10643   0.00000  Uiso   1.00
C233   C     0.51500   0.60000   0.25133   0.00000  Uiso   1.00
C234   C     0.53852   0.50742   0.16704   0.00000  Uiso   1.00
C235   C     0.43970   0.49028   0.38107   0.00000  Uiso   1.00
C236   C     0.56180   0.51839   0.11957   0.00000  Uiso   1.00
C237   C     0.36738   0.44406   0.44408   0.00000  Uiso   1.00
C238   C     0.64806   0.53724   0.05469   0.00000  Uiso   1.00
C239   C     0.38269   0.45597   0.39954   0.00000  Uiso   1.00
C240   C     0.62585   0.52378   0.09900   0.00000  Uiso   1.00
C241   C     0.48055   0.51429   0.40779   0.00000  Uiso   1.00
C242   C     0.52106   0.52813   0.09478   0.00000  Uiso   1.00
C243   C     0.46967   0.49698   0.45130   0.00000  Uiso   1.00
C244   C     0.48501   0.40000   0.24866   0.00000  Uiso   1.00
C245   C     0.53985   0.52042   0.04902   0.00000  Uiso   1.00
C246   C     0.41033   0.46416   0.47008   0.00000  Uiso   1.00
C247   C     0.60475   0.53303   0.02876   0.00000  Uiso   1.00
C248   C     0.51543   0.51123   0.47683   0.00000  Uiso   1.00
C249   C     0.49585   0.50374   0.02297   0.00000  Uiso   1.00
C250   C     0.43622   0.56159   0.13572   0.00000  Uiso   1.00
C251   C     0.50856   0.60325   0.40274   0.00000  Uiso   1.00
C252   C     0.43520   0.47389   0.04129   0.00000  Uiso   1.00
C253   C     0.58070   0.52831   0.45758   0.00000  Uiso   1.00
C254   C     0.39437   0.45203   0.01469   0.00000  Uiso   1.00
C255   C     0.62470   0.53843   0.48324   0.00000  Uiso   1.00
C256   C     0.52337   0.65601   0.25197   0.00000  Uiso   1.00
C257   C     0.47665   0.34397   0.24795   0.00000  Uiso   1.00
C258   C     0.46178   0.49635   0.33318   0.00000  Uiso   1.00
Cu259  Cu    0.44071   0.49441   0.24516   0.00000  Uiso   1.00
Cu260  Cu    0.55929   0.50559   0.25483   0.00000  Uiso   1.00
H261   H     0.34907   0.42725   0.02948   0.00000  Uiso   1.00
H262   H     0.43168   0.65348   0.24412   0.00000  Uiso   1.00
H263   H     0.33456   0.53868   0.28455   0.00000  Uiso   1.00
H264   H     0.66549   0.46140   0.21540   0.00000  Uiso   1.00
H265   H     0.40621   0.58412   0.12523   0.00000  Uiso   1.00
H266   H     0.44035   0.57699   0.16895   0.00000  Uiso   1.00
H267   H     0.41258   0.51913   0.13743   0.00000  Uiso   1.00
H268   H     0.46871   0.60458   0.38799   0.00000  Uiso   1.00
H269   H     0.49473   0.60887   0.43912   0.00000  Uiso   1.00
H270   H     0.54784   0.63673   0.38949   0.00000  Uiso   1.00
H271   H     0.34115   0.54897   0.46728   0.00000  Uiso   1.00
H272   H     0.65809   0.51854   0.11749   0.00000  Uiso   1.00
H273   H     0.35063   0.43762   0.37939   0.00000  Uiso   1.00
H274   H     0.65576   0.41827   0.45805   0.00000  Uiso   1.00
H275   H     0.36489   0.54690   0.04017   0.00000  Uiso   1.00
H276   H     0.42057   0.46414   0.07579   0.00000  Uiso   1.00
H277   H     0.59960   0.52937   0.42242   0.00000  Uiso   1.00
H278   H     0.56834   0.34650   0.25579   0.00000  Uiso   1.00
N279   N     0.64839   0.51401   0.26212   0.00000  Uiso   1.00
N280   N     0.35161   0.48599   0.23788   0.00000  Uiso   1.00
O281   O     0.46148   0.57142   0.24686   0.00000  Uiso   1.00
O282   O     0.52968   0.55596   0.39122   0.00000  Uiso   1.00
O283   O     0.53852   0.42858   0.25314   0.00000  Uiso   1.00
O284   O     0.56163   0.58086   0.25502   0.00000  Uiso   1.00
O285   O     0.43837   0.41914   0.24497   0.00000  Uiso   1.00
O286   O     0.42185   0.49263   0.30854   0.00000  Uiso   1.00
O287   O     0.57815   0.50737   0.19145   0.00000  Uiso   1.00
O288   O     0.52199   0.50207   0.31671   0.00000  Uiso   1.00
O289   O     0.47801   0.49793   0.18329   0.00000  Uiso   1.00
O290   O     0.49597   0.57261   0.10643   0.00000  Uiso   1.00
C291   C     0.84833   0.60000   0.25133   0.00000  Uiso   1.00
C292   C     0.87185   0.50742   0.16704   0.00000  Uiso   1.00
C293   C     0.77303   0.49028   0.38107   0.00000  Uiso   1.00
C294   C     0.89513   0.51839   0.11957   0.00000  Uiso   1.00
C295   C     0.70071   0.44406   0.44408   0.00000  Uiso   1.00
C296   C     0.98139   0.53724   0.05469   0.00000  Uiso   1.00
C297   C     0.71602   0.45597   0.39954   0.00000  Uiso   1.00
C298   C     0.95918   0.52378   0.09900   0.00000  Uiso   1.00
C299   C     0.81388   0.51429   0.40779   0.00000  Uiso   1.00
C300   C     0.85439   0.52813   0.09478   0.00000  Uiso   1.00
C301   C     0.80301   0.49698   0.45130   0.00000  Uiso   1.00
C302   C     0.81834   0.40000   0.24866   0.00000  Uiso   1.00
C303   C     0.87319   0.52042   0.04902   0.00000  Uiso   1.00
C304   C     0.74366   0.46416   0.47008   0.00000  Uiso   1.00
C305   C     0.93809   0.53303   0.02876   0.00000  Uiso   1.00
C306   C     0.84876   0.51123   0.47683   0.00000  Uiso   1.00
C307   C     0.82919   0.50374   0.02297   0.00000  Uiso   1.00
C308   C     0.76955   0.56159   0.13572   0.00000  Uiso   1.00
C309   C     0.84190   0.60325   0.40274   0.00000  Uiso   1.00
C310   C     0.76854   0.47389   0.04129   0.00000  Uiso   1.00
C311   C     0.91404   0.52831   0.45758   0.00000  Uiso   1.00
C312   C     0.72771   0.45203   0.01469   0.00000  Uiso   1.00
C313   C     0.95803   0.53843   0.48324   0.00000  Uiso   1.00
C314   C     0.85670   0.65601   0.25197   0.00000  Uiso   1.00
C315   C     0.80999   0.34397   0.24795   0.00000  Uiso   1.00
C316   C     0.79511   0.49635   0.33318   0.00000  Uiso   1.00
Cu317  Cu    0.77404   0.49441   0.24516   0.00000  Uiso   1.00
Cu318  Cu    0.89263   0.50559   0.25483   0.00000  Uiso   1.00
H319   H     0.68240   0.42725   0.02948   0.00000  Uiso   1.00
H320   H     0.76502   0.65348   0.24412   0.00000  Uiso   1.00
H321   H     0.66789   0.53868   0.28455   0.00000  Uiso   1.00
H322   H     0.99882   0.46140   0.21540   0.00000  Uiso   1.00
H323   H     0.73954   0.58412   0.12523   0.00000  Uiso   1.00
H324   H     0.77368   0.57699   0.16895   0.00000  Uiso   1.00
H325   H     0.74591   0.51913   0.13743   0.00000  Uiso   1.00
H326   H     0.80204   0.60458   0.38799   0.00000  Uiso   1.00
H327   H     0.82806   0.60887   0.43912   0.00000  Uiso   1.00
H328   H     0.88117   0.63673   0.38949   0.00000  Uiso   1.00
H329   H     0.67448   0.54897   0.46728   0.00000  Uiso   1.00
H330   H     0.99143   0.51854   0.11749   0.00000  Uiso   1.00
H331   H     0.68397   0.43762   0.37939   0.00000  Uiso   1.00
H332   H     0.98910   0.41827   0.45805   0.00000  Uiso   1.00
H333   H     0.69822   0.54690   0.04017   0.00000  Uiso   1.00
H334   H     0.75391   0.46414   0.07579   0.00000  Uiso   1.00
H335   H     0.93293   0.52937   0.42242   0.00000  Uiso   1.00
H336   H     0.90168   0.34650   0.25579   0.00000  Uiso   1.00
N337   N     0.98173   0.51401   0.26212   0.00000  Uiso   1.00
N338   N     0.68494   0.48599   0.23788   0.00000  Uiso   1.00
O339   O     0.79482   0.57142   0.24686   0.00000  Uiso   1.00
O340   O     0.86302   0.55596   0.39122   0.00000  Uiso   1.00
O341   O     0.87185   0.42858   0.25314   0.00000  Uiso   1.00
O342   O     0.89496   0.58086   0.25502   0.00000  Uiso   1.00
O343   O     0.77171   0.41914   0.24497   0.00000  Uiso   1.00
O344   O     0.75518   0.49263   0.30854   0.00000  Uiso   1.00
O345   O     0.91149   0.50737   0.19145   0.00000  Uiso   1.00
O346   O     0.85532   0.50207   0.31671   0.00000  Uiso   1.00
O347   O     0.81134   0.49793   0.18329   0.00000  Uiso   1.00
O348   O     0.82931   0.57261   0.10643   0.00000  Uiso   1.00
C349   C     0.18166   0.93333   0.25133   0.00000  Uiso   1.00
C350   C     0.20519   0.84075   0.16704   0.00000  Uiso   1.00
C351   C     0.10636   0.82361   0.38107   0.00000  Uiso   1.00
C352   C     0.22847   0.85172   0.11957   0.00000  Uiso   1.00
C353   C     0.03405   0.77739   0.44408   0.00000  Uiso   1.00
C354   C     0.31472   0.87058   0.05469   0.00000  Uiso   1.00
C355   C     0.04936   0.78930   0.39954   0.00000  Uiso   1.00
C356   C     0.29252   0.85711   0.09900   0.00000  Uiso   1.00
C357   C     0.14721   0.84763   0.40779   0.00000  Uiso   1.00
C358   C     0.18772   0.86146   0.09478   0.00000  Uiso   1.00
C359   C     0.13634   0.83032   0.45130   0.00000  Uiso   1.00
C360   C     0.15167   0.73333   0.24866   0.00000  Uiso   1.00
C361   C     0.20652   0.85375   0.04902   0.00000  Uiso   1.00
C362   C     0.07700   0.79749   0.47008   0.00000  Uiso   1.00
C363   C     0.27142   0.86636   0.02876   0.00000  Uiso   1.00
C364   C     0.18209   0.84456   0.47683   0.00000  Uiso   1.00
C365   C     0.16252   0.83708   0.02297   0.00000  Uiso   1.00
C366   C     0.10289   0.89493   0.13572   0.00000  Uiso   1.00
C367   C     0.17523   0.93658   0.40274   0.00000  Uiso   1.00
C368   C     0.10187   0.80723   0.04129   0.00000  Uiso   1.00
C369   C     0.24737   0.86164   0.45758   0.00000  Uiso   1.00
C370   C     0.06104   0.78536   0.01469   0.00000  Uiso   1.00
C371   C     0.29137   0.87176   0.48324   0.00000  Uiso   1.00
C372   C     0.19003   0.98934   0.25197   0.00000  Uiso   1.00
C373   C     0.14332   0.67731   0.24795   0.00000  Uiso   1.00
C374   C     0.12844   0.82968   0.33318   0.00000  Uiso   1.00
Cu375  Cu    0.10737   0.82775   0.24516   0.00000  Uiso   1.00
Cu376  Cu    0.22596   0.83892   0.25483   0.00000  Uiso   1.00
H377   H     0.01573   0.76058   0.02948   0.00000  Uiso   1.00
H378   H     0.09835   0.98681   0.24412   0.00000  Uiso   1.00
H379   H     0.00122   0.87201   0.28455   0.00000  Uiso   1.00
H380   H     0.33215   0.79473   0.21540   0.00000  Uiso   1.00
H381   H     0.07287   0.91746   0.12523   0.00000  Uiso   1.00
H382   H     0.10702   0.91032   0.16895   0.00000  Uiso   1.00
H383   H     0.07924   0.85246   0.13743   0.00000  Uiso   1.00
H384   H     0.13537   0.93792   0.38799   0.00000  Uiso   1.00
H385   H     0.16140   0.94220   0.43912   0.00000  Uiso   1.00
H386   H     0.21451   0.97006   0.38949   0.00000  Uiso   1.00
H387   H     0.00782   0.88231   0.46728   0.00000  Uiso   1.00
H388   H     0.32476   0.85187   0.11749   0.00000  Uiso   1.00
H389   H     0.01730   0.77096   0.37939   0.00000  Uiso   1.00
H390   H     0.32243   0.75160   0.45805   0.00000  Uiso   1.00
H391   H     0.03156   0.88024   0.04017   0.00000  Uiso   1.00
H392   H     0.08724   0.79747   0.07579   0.00000  Uiso   1.00
H393   H     0.26626   0.86270   0.42242   0.00000  Uiso   1.00
H394   H     0.23501   0.67984   0.25579   0.00000  Uiso   1.00
N395   N     0.31506   0.84735   0.26212   0.00000  Uiso   1.00
N396   N     0.01827   0.81932   0.23788   0.00000  Uiso   1.00
O397   O     0.12815   0.90476   0.24686   0.00000  Uiso   1.00
O398   O     0.19635   0.88929   0.39122   0.00000  Uiso   1.00
O399   O     0.20518   0.76191   0.25314   0.00000  Uiso   1.00
O400   O     0.22829   0.91420   0.25502   0.00000  Uiso   1.00
O401   O     0.10504   0.75247   0.24497   0.00000  Uiso   1.00
O402   O     0.08851   0.82597   0.30854   0.00000  Uiso   1.00
O403   O     0.24482   0.84070   0.19145   0.00000  Uiso   1.00
O404   O     0.18866   0.83540   0.31671   0.00000  Uiso   1.00
O405   O     0.14468   0.83126   0.18329   0.00000  Uiso   1.00
O406   O     0.16264   0.90594   0.10643   0.00000  Uiso   1.00
C407   C     0.51500   0.93333   0.25133   0.00000  Uiso   1.00
C408   C     0.53852   0.84075   0.16704   0.00000  Uiso   1.00
C409   C     0.43970   0.82361   0.38107   0.00000  Uiso   1.00
C410   C     0.56180   0.85172   0.11957   0.00000  Uiso   1.00
C411   C     0.36738   0.77739   0.44408   0.00000  Uiso   1.00
C412   C     0.64806   0.87058   0.05469   0.00000  Uiso   1.00
C413   C     0.38269   0.78930   0.39954   0.00000  Uiso   1.00
C414   C     0.62585   0.85711   0.09900   0.00000  Uiso   1.00
C415   C     0.48055   0.84763   0.40779   0.00000  Uiso   1.00
C416   C     0.52106   0.86146   0.09478   0.00000  Uiso   1.00
C417   C     0.46967   0.83032   0.45130   0.00000  Uiso   1.00
C418   C     0.48501   0.73333   0.24866   0.00000  Uiso   1.00
C419   C     0.53985   0.85375   0.04902   0.00000  Uiso   1.00
C420   C     0.41033   0.79749   0.47008   0.00000  Uiso   1.00
C421   C     0.60475   0.86636   0.02876   0.00000  Uiso   1.00
C422   C     0.51543   0.84456   0.47683   0.00000  Uiso   1.00
C423   C     0.49585   0.83708   0.02297   0.00000  Uiso   1.00
C424   C     0.43622   0.89493   0.13572   0.00000  Uiso   1.00
C425   C     0.50856   0.93658   0.40274   0.00000  Uiso   1.00
C426   C     0.43520   0.80723   0.04129   0.00000  Uiso   1.00
C427   C     0.58070   0.86164   0.45758   0.00000  Uiso   1.00
C428   C     0.39437   0.78536   0.01469   0.00000  Uiso   1.00
C429   C     0.62470   0.87176   0.48324   0.00000  Uiso   1.00
C430   C     0.52337   0.98934   0.25197   0.00000  Uiso   1.00
C431   C     0.47665   0.67731   0.24795   0.00000  Uiso   1.00
C432   C     0.46178   0.82968   0.33318   0.00000  Uiso   1.00
Cu433  Cu    0.44071   0.82775   0.24516   0.00000  Uiso   1.00
Cu434  Cu    0.55929   0.83892   0.25483   0.00000  Uiso   1.00
H435   H     0.34907   0.76058   0.02948   0.00000  Uiso   1.00
H436   H     0.43168   0.98681   0.24412   0.00000  Uiso   1.00
H437   H     0.33456   0.87201   0.28455   0.00000  Uiso   1.00
H438   H     0.66549   0.79473   0.21540   0.00000  Uiso   1.00
H439   H     0.40621   0.91746   0.12523   0.00000  Uiso   1.00
H440   H     0.44035   0.91032   0.16895   0.00000  Uiso   1.00
H441   H     0.41258   0.85246   0.13743   0.00000  Uiso   1.00
H442   H     0.46871   0.93792   0.38799   0.00000  Uiso   1.00
H443   H     0.49473   0.94220   0.43912   0.00000  Uiso   1.00
H444   H     0.54784   0.97006   0.38949   0.00000  Uiso   1.00
H445   H     0.34115   0.88231   0.46728   0.00000  Uiso   1.00
H446   H     0.65809   0.85187   0.11749   0.00000  Uiso   1.00
H447   H     0.35063   0.77096   0.37939   0.00000  Uiso   1.00
H448   H     0.65576   0.75160   0.45805   0.00000  Uiso   1.00
H449   H     0.36489   0.88024   0.04017   0.00000  Uiso   1.00
H450   H     0.42057   0.79747   0.07579   0.00000  Uiso   1.00
H451   H     0.59960   0.86270   0.42242   0.00000  Uiso   1.00
H452   H     0.56834   0.67984   0.25579   0.00000  Uiso   1.00
N453   N     0.64839   0.84735   0.26212   0.00000  Uiso   1.00
N454   N     0.35161   0.81932   0.23788   0.00000  Uiso   1.00
O455   O     0.46148   0.90476   0.24686   0.00000  Uiso   1.00
O456   O     0.52968   0.88929   0.39122   0.00000  Uiso   1.00
O457   O     0.53852   0.76191   0.25314   0.00000  Uiso   1.00
O458   O     0.56163   0.91420   0.25502   0.00000  Uiso   1.00
O459   O     0.43837   0.75247   0.24497   0.00000  Uiso   1.00
O460   O     0.42185   0.82597   0.30854   0.00000  Uiso   1.00
O461   O     0.57815   0.84070   0.19145   0.00000  Uiso   1.00
O462   O     0.52199   0.83540   0.31671   0.00000  Uiso   1.00
O463   O     0.47801   0.83126   0.18329   0.00000  Uiso   1.00
O464   O     0.49597   0.90594   0.10643   0.00000  Uiso   1.00
C465   C     0.84833   0.93333   0.25133   0.00000  Uiso   1.00
C466   C     0.87185   0.84075   0.16704   0.00000  Uiso   1.00
C467   C     0.77303   0.82361   0.38107   0.00000  Uiso   1.00
C468   C     0.89513   0.85172   0.11957   0.00000  Uiso   1.00
C469   C     0.70071   0.77739   0.44408   0.00000  Uiso   1.00
C470   C     0.98139   0.87058   0.05469   0.00000  Uiso   1.00
C471   C     0.71602   0.78930   0.39954   0.00000  Uiso   1.00
C472   C     0.95918   0.85711   0.09900   0.00000  Uiso   1.00
C473   C     0.81388   0.84763   0.40779   0.00000  Uiso   1.00
C474   C     0.85439   0.86146   0.09478   0.00000  Uiso   1.00
C475   C     0.80301   0.83032   0.45130   0.00000  Uiso   1.00
C476   C     0.81834   0.73333   0.24866   0.00000  Uiso   1.00
C477   C     0.87319   0.85375   0.04902   0.00000  Uiso   1.00
C478   C     0.74366   0.79749   0.47008   0.00000  Uiso   1.00
C479   C     0.93809   0.86636   0.02876   0.00000  Uiso   1.00
C480   C     0.84876   0.84456   0.47683   0.00000  Uiso   1.00
C481   C     0.82919   0.83708   0.02297   0.00000  Uiso   1.00
C482   C     0.76955   0.89493   0.13572   0.00000  Uiso   1.00
C483   C     0.84190   0.93658   0.40274   0.00000  Uiso   1.00
C484   C     0.76854   0.80723   0.04129   0.00000  Uiso   1.00
C485   C     0.91404   0.86164   0.45758   0.00000  Uiso   1.00
C486   C     0.72771   0.78536   0.01469   0.00000  Uiso   1.00
C487   C     0.95803   0.87176   0.48324   0.00000  Uiso   1.00
C488   C     0.85670   0.98934   0.25197   0.00000  Uiso   1.00
C489   C     0.80999   0.67731   0.24795   0.00000  Uiso   1.00
C490   C     0.79511   0.82968   0.33318   0.00000  Uiso   1.00
Cu491  Cu    0.77404   0.82775   0.24516   0.00000  Uiso   1.00
Cu492  Cu    0.89263   0.83892   0.25483   0.00000  Uiso   1.00
H493   H     0.68240   0.76058   0.02948   0.00000  Uiso   1.00
H494   H     0.76502   0.98681   0.24412   0.00000  Uiso   1.00
H495   H     0.66789   0.87201   0.28455   0.00000  Uiso   1.00
H496   H     0.99882   0.79473   0.21540   0.00000  Uiso   1.00
H497   H     0.73954   0.91746   0.12523   0.00000  Uiso   1.00
H498   H     0.77368   0.91032   0.16895   0.00000  Uiso   1.00
H499   H     0.74591   0.85246   0.13743   0.00000  Uiso   1.00
H500   H     0.80204   0.93792   0.38799   0.00000  Uiso   1.00
H501   H     0.82806   0.94220   0.43912   0.00000  Uiso   1.00
H502   H     0.88117   0.97006   0.38949   0.00000  Uiso   1.00
H503   H     0.67448   0.88231   0.46728   0.00000  Uiso   1.00
H504   H     0.99143   0.85187   0.11749   0.00000  Uiso   1.00
H505   H     0.68397   0.77096   0.37939   0.00000  Uiso   1.00
H506   H     0.98910   0.75160   0.45805   0.00000  Uiso   1.00
H507   H     0.69822   0.88024   0.04017   0.00000  Uiso   1.00
H508   H     0.75391   0.79747   0.07579   0.00000  Uiso   1.00
H509   H     0.93293   0.86270   0.42242   0.00000  Uiso   1.00
H510   H     0.90168   0.67984   0.25579   0.00000  Uiso   1.00
N511   N     0.98173   0.84735   0.26212   0.00000  Uiso   1.00
N512   N     0.68494   0.81932   0.23788   0.00000  Uiso   1.00
O513   O     0.79482   0.90476   0.24686   0.00000  Uiso   1.00
O514   O     0.86302   0.88929   0.39122   0.00000  Uiso   1.00
O515   O     0.87185   0.76191   0.25314   0.00000  Uiso   1.00
O516   O     0.89496   0.91420   0.25502   0.00000  Uiso   1.00
O517   O     0.77171   0.75247   0.24497   0.00000  Uiso   1.00
O518   O     0.75518   0.82597   0.30854   0.00000  Uiso   1.00
O519   O     0.91149   0.84070   0.19145   0.00000  Uiso   1.00
O520   O     0.85532   0.83540   0.31671   0.00000  Uiso   1.00
O521   O     0.81134   0.83126   0.18329   0.00000  Uiso   1.00
O522   O     0.82931   0.90594   0.10643   0.00000  Uiso   1.00
C523   C     0.18166   0.26667   0.75133   0.00000  Uiso   1.00
C524   C     0.20519   0.17409   0.66704   0.00000  Uiso   1.00
C525   C     0.10636   0.15695   0.88107   0.00000  Uiso   1.00
C526   C     0.22847   0.18506   0.61957   0.00000  Uiso   1.00
C527   C     0.03405   0.11072   0.94408   0.00000  Uiso   1.00
C528   C     0.31472   0.20391   0.55469   0.00000  Uiso   1.00
C529   C     0.04936   0.12263   0.89954   0.00000  Uiso   1.00
C530   C     0.29252   0.19045   0.59900   0.00000  Uiso   1.00
C531   C     0.14721   0.18096   0.90779   0.00000  Uiso   1.00
C532   C     0.18772   0.19479   0.59478   0.00000  Uiso   1.00
C533   C     0.13634   0.16365   0.95130   0.00000  Uiso   1.00
C534   C     0.15167   0.06666   0.74866   0.00000  Uiso   1.00
C535   C     0.20652   0.18709   0.54902   0.00000  Uiso   1.00
C536   C     0.07700   0.13083   0.97008   0.00000  Uiso   1.00
C537   C     0.27142   0.19970   0.52876   0.00000  Uiso   1.00
C538   C     0.18209   0.17790   0.97683   0.00000  Uiso   1.00
C539   C     0.16252   0.17041   0.52297   0.00000  Uiso   1.00
C540   C     0.10289   0.22826   0.63572   0.00000  Uiso   1.00
C541   C     0.17523   0.26991   0.90274   0.00000  Uiso   1.00
C542   C     0.10187   0.14056   0.54129   0.00000  Uiso   1.00
C543   C     0.24737   0.19498   0.95758   0.00000  Uiso   1.00
C544   C     0.06104   0.11870   0.51469   0.00000  Uiso   1.00
C545   C     0.29137   0.20509   0.98324   0.00000  Uiso   1.00
C546   C     0.19003   0.32268   0.75197   0.00000  Uiso   1.00
C547   C     0.14332   0.01064   0.74795   0.00000  Uiso   1.00
C548   C     0.12844   0.16301   0.83318   0.00000  Uiso   1.00
Cu549  Cu    0.10737   0.16108   0.74516   0.00000  Uiso   1.00
Cu550  Cu    0.22596   0.17225   0.75483   0.00000  Uiso   1.00
H551   H     0.01573   0.09391   0.52948   0.00000  Uiso   1.00
H552   H     0.09835   0.32014   0.74412   0.00000  Uiso   1.00
H553   H     0.00122   0.20534   0.78455   0.00000  Uiso   1.00
H554   H     0.33215   0.12806   0.71540   0.00000  Uiso   1.00
H555   H     0.07287   0.25079   0.62523   0.00000  Uiso   1.00
H556   H     0.10702   0.24365   0.66895   0.00000  Uiso   1.00
H557   H     0.07924   0.18580   0.63743   0.00000  Uiso   1.00
H558   H     0.13537   0.27125   0.88799   0.00000  Uiso   1.00
H559   H     0.16140   0.27553   0.93912   0.00000  Uiso   1.00
H560   H     0.21451   0.30339   0.88949   0.00000  Uiso   1.00
H561   H     0.00782   0.21564   0.96728   0.00000  Uiso   1.00
H562   H     0.32476   0.18521   0.61749   0.00000  Uiso   1.00
H563   H     0.01730   0.10429   0.87939   0.00000  Uiso   1.00
H564   H     0.32243   0.08493   0.95805   0.00000  Uiso   1.00
H565   H     0.03156   0.21357   0.54017   0.00000  Uiso   1.00
H566   H     0.08724   0.13081   0.57579   0.00000  Uiso   1.00
H567   H     0.26626   0.19604   0.92242   0.00000  Uiso   1.00
H568   H     0.23501   0.01317   0.75579   0.00000  Uiso   1.00
N569   N     0.31506   0.18068   0.76212   0.00000  Uiso   1.00
N570   N     0.01827   0.15265   0.73788   0.00000  Uiso   1.00
O571   O     0.12815   0.23809   0.74686   0.00000  Uiso   1.00
O572   O     0.19635   0.22262   0.89122   0.00000  Uiso   1.00
O573   O     0.20518   0.09524   0.75314   0.00000  Uiso   1.00
O574   O     0.22829   0.24753   0.75502   0.00000  Uiso   1.00
O575   O     0.10504   0.08580   0.74497   0.00000  Uiso   1.00
O576   O     0.08851   0.15930   0.80854   0.00000  Uiso   1.00
O577   O     0.24482   0.17403   0.69145   0.00000  Uiso   1.00
O578   O     0.18866   0.16874   0.81671   0.00000  Uiso   1.00
O579   O     0.14468   0.16460   0.68329   0.00000  Uiso   1.00
O580   O     0.16264   0.23927   0.60643   0.00000  Uiso   1.00
C581   C     0.51500   0.26667   0.75133   0.00000  Uiso   1.00
C582   C     0.53852   0.17409   0.66704   0.00000  Uiso   1.00
C583   C     0.43970   0.15695   0.88107   0.00000  Uiso   1.00
C584   C     0.56180   0.18506   0.61957   0.00000  Uiso   1.00
C585   C     0.36738   0.11072   0.94408   0.00000  Uiso   1.00
C586   C     0.64806   0.20391   0.55469   0.00000  Uiso   1.00
C587   C     0.38269   0.12263   0.89954   0.00000  Uiso   1.00
C588   C     0.62585   0.19045   0.59900   0.00000  Uiso   1.00
C589   C     0.48055   0.18096   0.90779   0.00000  Uiso   1.00
C590   C     0.52106   0.19479   0.59478   0.00000  Uiso   1.00
C591   C     0.46967   0.16365   0.95130   0.00000  Uiso   1.00
C592   C     0.48501   0.06666   0.74866   0.00000  Uiso   1.00
C593   C     0.53985   0.18709   0.54902   0.00000  Uiso   1.00
C594   C     0.41033   0.13083   0.97008   0.00000  Uiso   1.00
C595   C     0.60475   0.19970   0.52876   0.00000  Uiso   1.00
C596   C     0.51543   0.17790   0.97683   0.00000  Uiso   1.00
C597   C     0.49585   0.17041   0.52297   0.00000  Uiso   1.00
C598   C     0.43622   0.22826   0.63572   0.00000  Uiso   1.00
C599   C     0.50856   0.26991   0.90274   0.00000  Uiso   1.00
C600   C     0.43520   0.14056   0.54129   0.00000  Uiso   1.00
C601   C     0.58070   0.19498   0.95758   0.00000  Uiso   1.00
C602   C     0.39437   0.11870   0.51469   0.00000  Uiso   1.00
C603   C     0.62470   0.20509   0.98324   0.00000  Uiso   1.00
C604   C     0.52337   0.32268   0.75197   0.00000  Uiso   1.00
C605   C     0.47665   0.01064   0.74795   0.00000  Uiso   1.00
C606   C     0.46178   0.16301   0.83318   0.00000  Uiso   1.00
Cu607  Cu    0.44071   0.16108   0.74516   0.00000  Uiso   1.00
Cu608  Cu    0.55929   0.17225   0.75483   0.00000  Uiso   1.00
H609   H     0.34907   0.09391   0.52948   0.00000  Uiso   1.00
H610   H     0.43168   0.32014   0.74412   0.00000  Uiso   1.00
H611   H     0.33456   0.20534   0.78455   0.00000  Uiso   1.00
H612   H     0.66549   0.12806   0.71540   0.00000  Uiso   1.00
H613   H     0.40621   0.25079   0.62523   0.00000  Uiso   1.00
H614   H     0.44035   0.24365   0.66895   0.00000  Uiso   1.00
H615   H     0.41258   0.18580   0.63743   0.00000  Uiso   1.00
H616   H     0.46871   0.27125   0.88799   0.00000  Uiso   1.00
H617   H     0.49473   0.27553   0.93912   0.00000  Uiso   1.00
H618   H     0.54784   0.30339   0.88949   0.00000  Uiso   1.00
H619   H     0.34115   0.21564   0.96728   0.00000  Uiso   1.00
H620   H     0.65809   0.18521   0.61749   0.00000  Uiso   1.00
H621   H     0.35063   0.10429   0.87939   0.00000  Uiso   1.00
H622   H     0.65576   0.08493   0.95805   0.00000  Uiso   1.00
H623   H     0.36489   0.21357   0.54017   0.00000  Uiso   1.00
H624   H     0.42057   0.13081   0.57579   0.00000  Uiso   1.00
H625   H     0.59960   0.19604   0.92242   0.00000  Uiso   1.00
H626   H     0.56834   0.01317   0.75579   0.00000  Uiso   1.00
N627   N     0.64839   0.18068   0.76212   0.00000  Uiso   1.00
N628   N     0.35161   0.15265   0.73788   0.00000  Uiso   1.00
O629   O     0.46148   0.23809   0.74686   0.00000  Uiso   1.00
O630   O     0.52968   0.22262   0.89122   0.00000  Uiso   1.00
O631   O     0.53852   0.09524   0.75314   0.00000  Uiso   1.00
O632   O     0.56163   0.24753   0.75502   0.00000  Uiso   1.00
O633   O     0.43837   0.08580   0.74497   0.00000  Uiso   1.00
O634   O     0.42185   0.15930   0.80854   0.00000  Uiso   1.00
O635   O     0.57815   0.17403   0.69145   0.00000  Uiso   1.00
O636   O     0.52199   0.16874   0.81671   0.00000  Uiso   1.00
O637   O     0.47801   0.16460   0.68329   0.00000  Uiso   1.00
O638   O     0.49597   0.23927   0.60643   0.00000  Uiso   1.00
C639   C     0.84833   0.26667   0.75133   0.00000  Uiso   1.00
C640   C     0.87185   0.17409   0.66704   0.00000  Uiso   1.00
C641   C     0.77303   0.15695   0.88107   0.00000  Uiso   1.00
C642   C     0.89513   0.18506   0.61957   0.00000  Uiso   1.00
C643   C     0.70071   0.11072   0.94408   0.00000  Uiso   1.00
C644   C     0.98139   0.20391   0.55469   0.00000  Uiso   1.00
C645   C     0.71602   0.12263   0.89954   0.00000  Uiso   1.00
C646   C     0.95918   0.19045   0.59900   0.00000  Uiso   1.00
C647   C     0.81388   0.18096   0.90779   0.00000  Uiso   1.00
C648   C     0.85439   0.19479   0.59478   0.00000  Uiso   1.00
C649   C     0.80301   0.16365   0.95130   0.00000  Uiso   1.00
C650   C     0.81834   0.06666   0.74866   0.00000  Uiso   1.00
C651   C     0.87319   0.18709   0.54902   0.00000  Uiso   1.00
C652   C     0.74366   0.13083   0.97008   0.00000  Uiso   1.00
C653   C     0.93809   0.19970   0.52876   0.00000  Uiso   1.00
C654   C     0.84876   0.17790   0.97683   0.00000  Uiso   1.00
C655   C     0.82919   0.17041   0.52297   0.00000  Uiso   1.00
C656   C     0.76955   0.22826   0.63572   0.00000  Uiso   1.00
C657   C     0.84190   0.26991   0.90274   0.00000  Uiso   1.00
C658   C     0.76854   0.14056   0.54129   0.00000  Uiso   1.00
C659   C     0.91404   0.19498   0.95758   0.00000  Uiso   1.00
C660   C     0.72771   0.11870   0.51469   0.00000  Uiso   1.00
C661   C     0.95803   0.20509   0.98324   0.00000  Uiso   1.00
C662   C     0.85670   0.32268   0.75197   0.00000  Uiso   1.00
C663   C     0.80999   0.01064   0.74795   0.00000  Uiso   1.00
C664   C     0.79511   0.16301   0.83318   0.00000  Uiso   1.00
Cu665  Cu    0.77404   0.16108   0.74516   0.00000  Uiso   1.00
Cu666  Cu    0.89263   0.17225   0.75483   0.00000  Uiso   1.00
H667   H     0.68240   0.09391   0.52948   0.00000  Uiso   1.00
H668   H     0.76502   0.32014   0.74412   0.00000  Uiso   1.00
H669   H     0.66789   0.20534   0.78455   0.00000  Uiso   1.00
H670   H     0.99882   0.12806   0.71540   0.00000  Uiso   1.00
H671   H     0.73954   0.25079   0.62523   0.00000  Uiso   1.00
H672   H     0.77368   0.24365   0.66895   0.00000  Uiso   1.00
H673   H     0.74591   0.18580   0.63743   0.00000  Uiso   1.00
H674   H     0.80204   0.27125   0.88799   0.00000  Uiso   1.00
H675   H     0.82806   0.27553   0.93912   0.00000  Uiso   1.00
H676   H     0.88117   0.30339   0.88949   0.00000  Uiso   1.00
H677   H     0.67448   0.21564   0.96728   0.00000  Uiso   1.00
H678   H     0.99143   0.18521   0.61749   0.00000  Uiso   1.00
H679   H     0.68397   0.10429   0.87939   0.00000  Uiso   1.00
H680   H     0.98910   0.08493   0.95805   0.00000  Uiso   1.00
H681   H     0.69822   0.21357   0.54017   0.00000  Uiso   1.00
H682   H     0.75391   0.13081   0.57579   0.00000  Uiso   1.00
H683   H     0.93293   0.19604   0.92242   0.00000  Uiso   1.00
H684   H     0.90168   0.01317   0.75579   0.00000  Uiso   1.00
N685   N     0.98173   0.18068   0.76212   0.00000  Uiso   1.00
N686   N     0.68494   0.15265   0.73788   0.00000  Uiso   1.00
O687   O     0.79482   0.23809   0.74686   0.00000  Uiso   1.00
O688   O     0.86302   0.22262   0.89122   0.00000  Uiso   1.00
O689   O     0.87185   0.09524   0.75314   0.00000  Uiso   1.00
O690   O     0.89496   0.24753   0.75502   0.00000  Uiso   1.00
O691   O     0.77171   0.08580   0.74497   0.00000  Uiso   1.00
O692   O     0.75518   0.15930   0.80854   0.00000  Uiso   1.00
O693   O     0.91149   0.17403   0.69145   0.00000  Uiso   1.00
O694   O     0.85532   0.16874   0.81671   0.00000  Uiso   1.00
O695   O     0.81134   0.16460   0.68329   0.00000  Uiso   1.00
O696   O     0.82931   0.23927   0.60643   0.00000  Uiso   1.00
C697   C     0.18166   0.60000   0.75133   0.00000  Uiso   1.00
C698   C     0.20519   0.50742   0.66704   0.00000  Uiso   1.00
C699   C     0.10636   0.49028   0.88107   0.00000  Uiso   1.00
C700   C     0.22847   0.51839   0.61957   0.00000  Uiso   1.00
C701   C     0.03405   0.44406   0.94408   0.00000  Uiso   1.00
C702   C     0.31472   0.53724   0.55469   0.00000  Uiso   1.00
C703   C     0.04936   0.45597   0.89954   0.00000  Uiso   1.00
C704   C     0.29252   0.52378   0.59900   0.00000  Uiso   1.00
C705   C     0.14721   0.51429   0.90779   0.00000  Uiso   1.00
C706   C     0.18772   0.52813   0.59478   0.00000  Uiso   1.00
C707   C     0.13634   0.49698   0.95130   0.00000  Uiso   1.00
C708   C     0.15167   0.40000   0.74866   0.00000  Uiso   1.00
C709   C     0.20652   0.52042   0.54902   0.00000  Uiso   1.00
C710   C     0.07700   0.46416   0.97008   0.00000  Uiso   1.00
C711   C     0.27142   0.53303   0.52876   0.00000  Uiso   1.00
C712   C     0.18209   0.51123   0.97683   0.00000  Uiso   1.00
C713   C     0.16252   0.50374   0.52297   0.00000  Uiso   1.00
C714   C     0.10289   0.56159   0.63572   0.00000  Uiso   1.00
C715   C     0.17523   0.60325   0.90274   0.00000  Uiso   1.00
C716   C     0.10187   0.47389   0.54129   0.00000  Uiso   1.00
C717   C     0.24737   0.52831   0.95758   0.00000  Uiso   1.00
C718   C     0.06104   0.45203   0.51469   0.00000  Uiso   1.00
C719   C     0.29137   0.53843   0.98324   0.00000  Uiso   1.00
C720   C     0.19003   0.65601   0.75197   0.00000  Uiso   1.00
C721   C     0.14332   0.34397   0.74795   0.00000  Uiso   1.00
C722   C     0.12844   0.49635   0.83318   0.00000  Uiso   1.00
Cu723  Cu    0.10737   0.49441   0.74516   0.00000  Uiso   1.00
Cu724  Cu    0.22596   0.50559   0.75483   0.00000  Uiso   1.00
H725   H     0.01573   0.42725   0.52948   0.00000  Uiso   1.00
H726   H     0.09835   0.65348   0.74412   0.00000  Uiso   1.00
H727   H     0.00122   0.53868   0.78455   0.00000  Uiso   1.00
H728   H     0.33215   0.46140   0.71540   0.00000  Uiso   1.00
H729   H     0.07287   0.58412   0.62523   0.00000  Uiso   1.00
H730   H     0.10702   0.57699   0.66895   0.00000  Uiso   1.00
H731   H     0.07924   0.51913   0.63743   0.00000  Uiso   1.00
H732   H     0.13537   0.60458   0.88799   0.00000  Uiso   1.00
H733   H     0.16140   0.60887   0.93912   0.00000  Uiso   1.00
H734   H     0.21451   0.63673   0.88949   0.00000  Uiso   1.00
H735   H     0.00782   0.54897   0.96728   0.00000  Uiso   1.00
H736   H     0.32476   0.51854   0.61749   0.00000  Uiso   1.00
H737   H     0.01730   0.43762   0.87939   0.00000  Uiso   1.00
H738   H     0.32243   0.41827   0.95805   0.00000  Uiso   1.00
H739   H     0.03156   0.54690   0.54017   0.00000  Uiso   1.00
H740   H     0.08724   0.46414   0.57579   0.00000  Uiso   1.00
H741   H     0.26626   0.52937   0.92242   0.00000  Uiso   1.00
H742   H     0.23501   0.34650   0.75579   0.00000  Uiso   1.00
N743   N     0.31506   0.51401   0.76212   0.00000  Uiso   1.00
N744   N     0.01827   0.48599   0.73788   0.00000  Uiso   1.00
O745   O     0.12815   0.57142   0.74686   0.00000  Uiso   1.00
O746   O     0.19635   0.55596   0.89122   0.00000  Uiso   1.00
O747   O     0.20518   0.42858   0.75314   0.00000  Uiso   1.00
O748   O     0.22829   0.58086   0.75502   0.00000  Uiso   1.00
O749   O     0.10504   0.41914   0.74497   0.00000  Uiso   1.00
O750   O     0.08851   0.49263   0.80854   0.00000  Uiso   1.00
O751   O     0.24482   0.50737   0.69145   0.00000  Uiso   1.00
O752   O     0.18866   0.50207   0.81671   0.00000  Uiso   1.00
O753   O     0.14468   0.49793   0.68329   0.00000  Uiso   1.00
O754   O     0.16264   0.57261   0.60643   0.00000  Uiso   1.00
C755   C     0.51500   0.60000   0.75133   0.00000  Uiso   1.00
C756   C     0.53852   0.50742   0.66704   0.00000  Uiso   1.00
C757   C     0.43970   0.49028   0.88107   0.00000  Uiso   1.00
C758   C     0.56180   0.51839   0.61957   0.00000  Uiso   1.00
C759   C     0.36738   0.44406   0.94408   0.00000  Uiso   1.00
C760   C     0.64806   0.53724   0.55469   0.00000  Uiso   1.00
C761   C     0.38269   0.45597   0.89954   0.00000  Uiso   1.00
C762   C     0.62585   0.52378   0.59900   0.00000  Uiso   1.00
C763   C     0.48055   0.51429   0.90779   0.00000  Uiso   1.00
C764   C     0.52106   0.52813   0.59478   0.00000  Uiso   1.00
C765   C     0.46967   0.49698   0.95130   0.00000  Uiso   1.00
C766   C     0.48501   0.40000   0.74866   0.00000  Uiso   1.00
C767   C     0.53985   0.52042   0.54902   0.00000  Uiso   1.00
C768   C     0.41033   0.46416   0.97008   0.00000  Uiso   1.00
C769   C     0.60475   0.53303   0.52876   0.00000  Uiso   1.00
C770   C     0.51543   0.51123   0.97683   0.00000  Uiso   1.00
C771   C     0.49585   0.50374   0.52297   0.00000  Uiso   1.00
C772   C     0.43622   0.56159   0.63572   0.00000  Uiso   1.00
C773   C     0.50856   0.60325   0.90274   0.00000  Uiso   1.00
C774   C     0.43520   0.47389   0.54129   0.00000  Uiso   1.00
C775   C     0.58070   0.52831   0.95758   0.00000  Uiso   1.00
C776   C     0.39437   0.45203   0.51469   0.00000  Uiso   1.00
C777   C     0.62470   0.53843   0.98324   0.00000  Uiso   1.00
C778   C     0.52337   0.65601   0.75197   0.00000  Uiso   1.00
C779   C     0.47665   0.34397   0.74795   0.00000  Uiso   1.00
C780   C     0.46178   0.49635   0.83318   0.00000  Uiso   1.00
Cu781  Cu    0.44071   0.49441   0.74516   0.00000  Uiso   1.00
Cu782  Cu    0.55929   0.50559   0.75483   0.00000  Uiso   1.00
H783   H     0.34907   0.42725   0.52948   0.00000  Uiso   1.00
H784   H     0.43168   0.65348   0.74412   0.00000  Uiso   1.00
H785   H     0.33456   0.53868   0.78455   0.00000  Uiso   1.00
H786   H     0.66549   0.46140   0.71540   0.00000  Uiso   1.00
H787   H     0.40621   0.58412   0.62523   0.00000  Uiso   1.00
H788   H     0.44035   0.57699   0.66895   0.00000  Uiso   1.00
H789   H     0.41258   0.51913   0.63743   0.00000  Uiso   1.00
H790   H     0.46871   0.60458   0.88799   0.00000  Uiso   1.00
H791   H     0.49473   0.60887   0.93912   0.00000  Uiso   1.00
H792   H     0.54784   0.63673   0.88949   0.00000  Uiso   1.00
H793   H     0.34115   0.54897   0.96728   0.00000  Uiso   1.00
H794   H     0.65809   0.51854   0.61749   0.00000  Uiso   1.00
H795   H     0.35063   0.43762   0.87939   0.00000  Uiso   1.00
H796   H     0.65576   0.41827   0.95805   0.00000  Uiso   1.00
H797   H     0.36489   0.54690   0.54017   0.00000  Uiso   1.00
H798   H     0.42057   0.46414   0.57579   0.00000  Uiso   1.00
H799   H     0.59960   0.52937   0.92242   0.00000  Uiso   1.00
H800   H     0.56834   0.34650   0.75579   0.00000  Uiso   1.00
N801   N     0.64839   0.51401   0.76212   0.00000  Uiso   1.00
N802   N     0.35161   0.48599   0.73788   0.00000  Uiso   1.00
O803   O     0.46148   0.57142   0.74686   0.00000  Uiso   1.00
O804   O     0.52968   0.55596   0.89122   0.00000  Uiso   1.00
O805   O     0.53852   0.42858   0.75314   0.00000  Uiso   1.00
O806   O     0.56163   0.58086   0.75502   0.00000  Uiso   1.00
O807   O     0.43837   0.41914   0.74497   0.00000  Uiso   1.00
O808   O     0.42185   0.49263   0.80854   0.00000  Uiso   1.00
O809   O     0.57815   0.50737   0.69145   0.00000  Uiso   1.00
O810   O     0.52199   0.50207   0.81671   0.00000  Uiso   1.00
O811   O     0.47801   0.49793   0.68329   0.00000  Uiso   1.00
O812   O     0.49597   0.57261   0.60643   0.00000  Uiso   1.00
C813   C     0.84833   0.60000   0.75133   0.00000  Uiso   1.00
C814   C     0.87185   0.50742   0.66704   0.00000  Uiso   1.00
C815   C     0.77303   0.49028   0.88107   0.00000  Uiso   1.00
C816   C     0.89513   0.51839   0.61957   0.00000  Uiso   1.00
C817   C     0.70071   0.44406   0.94408   0.00000  Uiso   1.00
C818   C     0.98139   0.53724   0.55469   0.00000  Uiso   1.00
C819   C     0.71602   0.45597   0.89954   0.00000  Uiso   1.00
C820   C     0.95918   0.52378   0.59900   0.00000  Uiso   1.00
C821   C     0.81388   0.51429   0.90779   0.00000  Uiso   1.00
C822   C     0.85439   0.52813   0.59478   0.00000  Uiso   1.00
C823   C     0.80301   0.49698   0.95130   0.00000  Uiso   1.00
C824   C     0.81834   0.40000   0.74866   0.00000  Uiso   1.00
C825   C     0.87319   0.52042   0.54902   0.00000  Uiso   1.00
C826   C     0.74366   0.46416   0.97008   0.00000  Uiso   1.00
C827   C     0.93809   0.53303   0.52876   0.00000  Uiso   1.00
C828   C     0.84876   0.51123   0.97683   0.00000  Uiso   1.00
C829   C     0.82919   0.50374   0.52297   0.00000  Uiso   1.00
C830   C     0.76955   0.56159   0.63572   0.00000  Uiso   1.00
C831   C     0.84190   0.60325   0.90274   0.00000  Uiso   1.00
C832   C     0.76854   0.47389   0.54129   0.00000  Uiso   1.00
C833   C     0.91404   0.52831   0.95758   0.00000  Uiso   1.00
C834   C     0.72771   0.45203   0.51469   0.00000  Uiso   1.00
C835   C     0.95803   0.53843   0.98324   0.00000  Uiso   1.00
C836   C     0.85670   0.65601   0.75197   0.00000  Uiso   1.00
C837   C     0.80999   0.34397   0.74795   0.00000  Uiso   1.00
C838   C     0.79511   0.49635   0.83318   0.00000  Uiso   1.00
Cu839  Cu    0.77404   0.49441   0.74516   0.00000  Uiso   1.00
Cu840  Cu    0.89263   0.50559   0.75483   0.00000  Uiso   1.00
H841   H     0.68240   0.42725   0.52948   0.00000  Uiso   1.00
H842   H     0.76502   0.65348   0.74412   0.00000  Uiso   1.00
H843   H     0.66789   0.53868   0.78455   0.00000  Uiso   1.00
H844   H     0.99882   0.46140   0.71540   0.00000  Uiso   1.00
H845   H     0.73954   0.58412   0.62523   0.00000  Uiso   1.00
H846   H     0.77368   0.57699   0.66895   0.00000  Uiso   1.00
H847   H     0.74591   0.51913   0.63743   0.00000  Uiso   1.00
H848   H     0.80204   0.60458   0.88799   0.00000  Uiso   1.00
H849   H     0.82806   0.60887   0.93912   0.00000  Uiso   1.00
H850   H     0.88117   0.63673   0.88949   0.00000  Uiso   1.00
H851   H     0.67448   0.54897   0.96728   0.00000  Uiso   1.00
H852   H     0.99143   0.51854   0.61749   0.00000  Uiso   1.00
H853   H     0.68397   0.43762   0.87939   0.00000  Uiso   1.00
H854   H     0.98910   0.41827   0.95805   0.00000  Uiso   1.00
H855   H     0.69822   0.54690   0.54017   0.00000  Uiso   1.00
H856   H     0.75391   0.46414   0.57579   0.00000  Uiso   1.00
H857   H     0.93293   0.52937   0.92242   0.00000  Uiso   1.00
H858   H     0.90168   0.34650   0.75579   0.00000  Uiso   1.00
N859   N     0.98173   0.51401   0.76212   0.00000  Uiso   1.00
N860   N     0.68494   0.48599   0.73788   0.00000  Uiso   1.00
O861   O     0.79482   0.57142   0.74686   0.00000  Uiso   1.00
O862   O     0.86302   0.55596   0.89122   0.00000  Uiso   1.00
O863   O     0.87185   0.42858   0.75314   0.00000  Uiso   1.00
O864   O     0.89496   0.58086   0.75502   0.00000  Uiso   1.00
O865   O     0.77171   0.41914   0.74497   0.00000  Uiso   1.00
O866   O     0.75518   0.49263   0.80854   0.00000  Uiso   1.00
O867   O     0.91149   0.50737   0.69145   0.00000  Uiso   1.00
O868   O     0.85532   0.50207   0.81671   0.00000  Uiso   1.00
O869   O     0.81134   0.49793   0.68329   0.00000  Uiso   1.00
O870   O     0.82931   0.57261   0.60643   0.00000  Uiso   1.00
C871   C     0.18166   0.93333   0.75133   0.00000  Uiso   1.00
C872   C     0.20519   0.84075   0.66704   0.00000  Uiso   1.00
C873   C     0.10636   0.82361   0.88107   0.00000  Uiso   1.00
C874   C     0.22847   0.85172   0.61957   0.00000  Uiso   1.00
C875   C     0.03405   0.77739   0.94408   0.00000  Uiso   1.00
C876   C     0.31472   0.87058   0.55469   0.00000  Uiso   1.00
C877   C     0.04936   0.78930   0.89954   0.00000  Uiso   1.00
C878   C     0.29252   0.85711   0.59900   0.00000  Uiso   1.00
C879   C     0.14721   0.84763   0.90779   0.00000  Uiso   1.00
C880   C     0.18772   0.86146   0.59478   0.00000  Uiso   1.00
C881   C     0.13634   0.83032   0.95130   0.00000  Uiso   1.00
C882   C     0.15167   0.73333   0.74866   0.00000  Uiso   1.00
C883   C     0.20652   0.85375   0.54902   0.00000  Uiso   1.00
C884   C     0.07700   0.79749   0.97008   0.00000  Uiso   1.00
C885   C     0.27142   0.86636   0.52876   0.00000  Uiso   1.00
C886   C     0.18209   0.84456   0.97683   0.00000  Uiso   1.00
C887   C     0.16252   0.83708   0.52297   0.00000  Uiso   1.00
C888   C     0.10289   0.89493   0.63572   0.00000  Uiso   1.00
C889   C     0.17523   0.93658   0.90274   0.00000  Uiso   1.00
C890   C     0.10187   0.80723   0.54129   0.00000  Uiso   1.00
C891   C     0.24737   0.86164   0.95758   0.00000  Uiso   1.00
C892   C     0.06104   0.78536   0.51469   0.00000  Uiso   1.00
C893   C     0.29137   0.87176   0.98324   0.00000  Uiso   1.00
C894   C     0.19003   0.98934   0.75197   0.00000  Uiso   1.00
C895   C     0.14332   0.67731   0.74795   0.00000  Uiso   1.00
C896   C     0.12844   0.82968   0.83318   0.00000  Uiso   1.00
Cu897  Cu    0.10737   0.82775   0.74516   0.00000  Uiso   1.00
Cu898  Cu    0.22596   0.83892   0.75483   0.00000  Uiso   1.00
H899   H     0.01573   0.76058   0.52948   0.00000  Uiso   1.00
H900   H     0.09835   0.98681   0.74412   0.00000  Uiso   1.00
H901   H     0.00122   0.87201   0.78455   0.00000  Uiso   1.00
H902   H     0.33215   0.79473   0.71540   0.00000  Uiso   1.00
H903   H     0.07287   0.91746   0.62523   0.00000  Uiso   1.00
H904   H     0.10702   0.91032   0.66895   0.00000  Uiso   1.00
H905   H     0.07924   0.85246   0.63743   0.00000  Uiso   1.00
H906   H     0.13537   0.93792   0.88799   0.00000  Uiso   1.00
H907   H     0.16140   0.94220   0.93912   0.00000  Uiso   1.00
H908   H     0.21451   0.97006   0.88949   0.00000  Uiso   1.00
H909   H     0.00782   0.88231   0.96728   0.00000  Uiso   1.00
H910   H     0.32476   0.85187   0.61749   0.00000  Uiso   1.00
H911   H     0.01730   0.77096   0.87939   0.00000  Uiso   1.00
H912   H     0.32243   0.75160   0.95805   0.00000  Uiso   1.00
H913   H     0.03156   0.88024   0.54017   0.00000  Uiso   1.00
H914   H     0.08724   0.79747   0.57579   0.00000  Uiso   1.00
H915   H     0.26626   0.86270   0.92242   0.00000  Uiso   1.00
H916   H     0.23501   0.67984   0.75579   0.00000  Uiso   1.00
N917   N     0.31506   0.84735   0.76212   0.00000  Uiso   1.00
N918   N     0.01827   0.81932   0.73788   0.00000  Uiso   1.00
O919   O     0.12815   0.90476   0.74686   0.00000  Uiso   1.00
O920   O     0.19635   0.88929   0.89122   0.00000  Uiso   1.00
O921   O     0.20518   0.76191   0.75314   0.00000  Uiso   1.00
O922   O     0.22829   0.91420   0.75502   0.00000  Uiso   1.00
O923   O     0.10504   0.75247   0.74497   0.00000  Uiso   1.00
O924   O     0.08851   0.82597   0.80854   0.00000  Uiso   1.00
O925   O     0.24482   0.84070   0.69145   0.00000  Uiso   1.00
O926   O     0.18866   0.83540   0.81671   0.00000  Uiso   1.00
O927   O     0.14468   0.83126   0.68329   0.00000  Uiso   1.00
O928   O     0.16264   0.90594   0.60643   0.00000  Uiso   1.00
C929   C     0.51500   0.93333   0.75133   0.00000  Uiso   1.00
C930   C     0.53852   0.84075   0.66704   0.00000  Uiso   1.00
C931   C     0.43970   0.82361   0.88107   0.00000  Uiso   1.00
C932   C     0.56180   0.85172   0.61957   0.00000  Uiso   1.00
C933   C     0.36738   0.77739   0.94408   0.00000  Uiso   1.00
C934   C     0.64806   0.87058   0.55469   0.00000  Uiso   1.00
C935   C     0.38269   0.78930   0.89954   0.00000  Uiso   1.00
C936   C     0.62585   0.85711   0.59900   0.00000  Uiso   1.00
C937   C     0.48055   0.84763   0.90779   0.00000  Uiso   1.00
C938   C     0.52106   0.86146   0.59478   0.00000  Uiso   1.00
C939   C     0.46967   0.83032   0.95130   0.00000  Uiso   1.00
C940   C     0.48501   0.73333   0.74866   0.00000  Uiso   1.00
C941   C     0.53985   0.85375   0.54902   0.00000  Uiso   1.00
C942   C     0.41033   0.79749   0.97008   0.00000  Uiso   1.00
C943   C     0.60475   0.86636   0.52876   0.00000  Uiso   1.00
C944   C     0.51543   0.84456   0.97683   0.00000  Uiso   1.00
C945   C     0.49585   0.83708   0.52297   0.00000  Uiso   1.00
C946   C     0.43622   0.89493   0.63572   0.00000  Uiso   1.00
C947   C     0.50856   0.93658   0.90274   0.00000  Uiso   1.00
C948   C     0.43520   0.80723   0.54129   0.00000  Uiso   1.00
C949   C     0.58070   0.86164   0.95758   0.00000  Uiso   1.00
C950   C     0.39437   0.78536   0.51469   0.00000  Uiso   1.00
C951   C     0.62470   0.87176   0.98324   0.00000  Uiso   1.00
C952   C     0.52337   0.98934   0.75197   0.00000  Uiso   1.00
C953   C     0.47665   0.67731   0.74795   0.00000  Uiso   1.00
C954   C     0.46178   0.82968   0.83318   0.00000  Uiso   1.00
Cu955  Cu    0.44071   0.82775   0.74516   0.00000  Uiso   1.00
Cu956  Cu    0.55929   0.83892   0.75483   0.00000  Uiso   1.00
H957   H     0.34907   0.76058   0.52948   0.00000  Uiso   1.00
H958   H     0.43168   0.98681   0.74412   0.00000  Uiso   1.00
H959   H     0.33456   0.87201   0.78455   0.00000  Uiso   1.00
H960   H     0.66549   0.79473   0.71540   0.00000  Uiso   1.00
H961   H     0.40621   0.91746   0.62523   0.00000  Uiso   1.00
H962   H     0.44035   0.91032   0.66895   0.00000  Uiso   1.00
H963   H     0.41258   0.85246   0.63743   0.00000  Uiso   1.00
H964   H     0.46871   0.93792   0.88799   0.00000  Uiso   1.00
H965   H     0.49473   0.94220   0.93912   0.00000  Uiso   1.00
H966   H     0.54784   0.97006   0.88949   0.00000  Uiso   1.00
H967   H     0.34115   0.88231   0.96728   0.00000  Uiso   1.00
H968   H     0.65809   0.85187   0.61749   0.00000  Uiso   1.00
H969   H     0.35063   0.77096   0.87939   0.00000  Uiso   1.00
H970   H     0.65576   0.75160   0.95805   0.00000  Uiso   1.00
H971   H     0.36489   0.88024   0.54017   0.00000  Uiso   1.00
H972   H     0.42057   0.79747   0.57579   0.00000  Uiso   1.00
H973   H     0.59960   0.86270   0.92242   0.00000  Uiso   1.00
H974   H     0.56834   0.67984   0.75579   0.00000  Uiso   1.00
N975   N     0.64839   0.84735   0.76212   0.00000  Uiso   1.00
N976   N     0.35161   0.81932   0.73788   0.00000  Uiso   1.00
O977   O     0.46148   0.90476   0.74686   0.00000  Uiso   1.00
O978   O     0.52968   0.88929   0.89122   0.00000  Uiso   1.00
O979   O     0.53852   0.76191   0.75314   0.00000  Uiso   1.00
O980   O     0.56163   0.91420   0.75502   0.00000  Uiso   1.00
O981   O     0.43837   0.75247   0.74497   0.00000  Uiso   1.00
O982   O     0.42185   0.82597   0.80854   0.00000  Uiso   1.00
O983   O     0.57815   0.84070   0.69145   0.00000  Uiso   1.00
O984   O     0.52199   0.83540   0.81671   0.00000  Uiso   1.00
O985   O     0.47801   0.83126   0.68329   0.00000  Uiso   1.00
O986   O     0.49597   0.90594   0.60643   0.00000  Uiso   1.00
C987   C     0.84833   0.93333   0.75133   0.00000  Uiso   1.00
C988   C     0.87185   0.84075   0.66704   0.00000  Uiso   1.00
C989   C     0.77303   0.82361   0.88107   0.00000  Uiso   1.00
C990   C     0.89513   0.85172   0.61957   0.00000  Uiso   1.00
C991   C     0.70071   0.77739   0.94408   0.00000  Uiso   1.00
C992   C     0.98139   0.87058   0.55469   0.00000  Uiso   1.00
C993   C     0.71602   0.78930   0.89954   0.00000  Uiso   1.00
C994   C     0.95918   0.85711   0.59900   0.00000  Uiso   1.00
C995   C     0.81388   0.84763   0.90779   0.00000  Uiso   1.00
C996   C     0.85439   0.86146   0.59478   0.00000  Uiso   1.00
C997   C     0.80301   0.83032   0.95130   0.00000  Uiso   1.00
C998   C     0.81834   0.73333   0.74866   0.00000  Uiso   1.00
C999   C     0.87319   0.85375   0.54902   0.00000  Uiso   1.00
C1000  C     0.74366   0.79749   0.97008   0.00000  Uiso   1.00
C1001  C     0.93809   0.86636   0.52876   0.00000  Uiso   1.00
C1002  C     0.84876   0.84456   0.97683   0.00000  Uiso   1.00
C1003  C     0.82919   0.83708   0.52297   0.00000  Uiso   1.00
C1004  C     0.76955   0.89493   0.63572   0.00000  Uiso   1.00
C1005  C     0.84190   0.93658   0.90274   0.00000  Uiso   1.00
C1006  C     0.76854   0.80723   0.54129   0.00000  Uiso   1.00
C1007  C     0.91404   0.86164   0.95758   0.00000  Uiso   1.00
C1008  C     0.72771   0.78536   0.51469   0.00000  Uiso   1.00
C1009  C     0.95803   0.87176   0.98324   0.00000  Uiso   1.00
C1010  C     0.85670   0.98934   0.75197   0.00000  Uiso   1.00
C1011  C     0.80999   0.67731   0.74795   0.00000  Uiso   1.00
C1012  C     0.79511   0.82968   0.83318   0.00000  Uiso   1.00
Cu1013 Cu    0.77404   0.82775   0.74516   0.00000  Uiso   1.00
Cu1014 Cu    0.89263   0.83892   0.75483   0.00000  Uiso   1.00
H1015  H     0.68240   0.76058   0.52948   0.00000  Uiso   1.00
H1016  H     0.76502   0.98681   0.74412   0.00000  Uiso   1.00
H1017  H     0.66789   0.87201   0.78455   0.00000  Uiso   1.00
H1018  H     0.99882   0.79473   0.71540   0.00000  Uiso   1.00
H1019  H     0.73954   0.91746   0.62523   0.00000  Uiso   1.00
H1020  H     0.77368   0.91032   0.66895   0.00000  Uiso   1.00
H1021  H     0.74591   0.85246   0.63743   0.00000  Uiso   1.00
H1022  H     0.80204   0.93792   0.88799   0.00000  Uiso   1.00
H1023  H     0.82806   0.94220   0.93912   0.00000  Uiso   1.00
H1024  H     0.88117   0.97006   0.88949   0.00000  Uiso   1.00
H1025  H     0.67448   0.88231   0.96728   0.00000  Uiso   1.00
H1026  H     0.99143   0.85187   0.61749   0.00000  Uiso   1.00
H1027  H     0.68397   0.77096   0.87939   0.00000  Uiso   1.00
H1028  H     0.98910   0.75160   0.95805   0.00000  Uiso   1.00
H1029  H     0.69822   0.88024   0.54017   0.00000  Uiso   1.00
H1030  H     0.75391   0.79747   0.57579   0.00000  Uiso   1.00
H1031  H     0.93293   0.86270   0.92242   0.00000  Uiso   1.00
H1032  H     0.90168   0.67984   0.75579   0.00000  Uiso   1.00
N1033  N     0.98173   0.84735   0.76212   0.00000  Uiso   1.00
N1034  N     0.68494   0.81932   0.73788   0.00000  Uiso   1.00
O1035  O     0.79482   0.90476   0.74686   0.00000  Uiso   1.00
O1036  O     0.86302   0.88929   0.89122   0.00000  Uiso   1.00
O1037  O     0.87185   0.76191   0.75314   0.00000  Uiso   1.00
O1038  O     0.89496   0.91420   0.75502   0.00000  Uiso   1.00
O1039  O     0.77171   0.75247   0.74497   0.00000  Uiso   1.00
O1040  O     0.75518   0.82597   0.80854   0.00000  Uiso   1.00
O1041  O     0.91149   0.84070   0.69145   0.00000  Uiso   1.00
O1042  O     0.85532   0.83540   0.81671   0.00000  Uiso   1.00
O1043  O     0.81134   0.83126   0.68329   0.00000  Uiso   1.00
O1044  O     0.82931   0.90594   0.60643   0.00000  Uiso   1.00
loop_
_geom_bond_atom_site_label_1
_geom_bond_atom_site_label_2
_geom_bond_distance
_geom_bond_site_symmetry_2
_ccdc_geom_bond_type
C1     O49     1.295   .     A
C1     O52     1.291   .     A
C1     C24     1.428   .     S
C2     C4      1.476   .     S
C2     O55     1.312   .     A
C2     O57     1.298   .     A
C3     C9      1.408   .     A
C3     C7      1.399   .     A
C3     C26     1.468   .     S
C4     C8      1.400   .     A
C4     C10     1.414   .     A
C5     C14     1.404   .     A
C5     C7      1.394   .     A
C5     H158    1.084   1_455 S
C6     C8      1.396   .     A
C6     C15     1.398   .     A
C6     H101    1.081   .     S
C7     H41     1.083   .     S
C8     H40     1.071   .     S
C9     C11     1.415   .     A
C9     O50     1.384   .     S
C10    O58     1.388   .     S
C10    C13     1.405   .     A
C11    C16     1.425   .     A
C11    C14     1.419   .     A
C12    C25     1.428   .     S
C12    O51     1.296   .     A
C12    O53     1.291   .     A
C13    C17     1.411   .     A
C13    C15     1.408   .     A
C14    C544    1.397   .     S
C15    C545    1.393   1_554 S
C16    C21     1.417   .     A
C16    C539    1.418   .     S
C17    C20     1.407   .     A
C17    C538    1.418   1_554 S
C18    H34     1.108   .     S
C18    H33     1.108   .     S
C18    H35     1.112   .     S
C18    O58     1.404   .     S
C19    H38     1.109   .     S
C19    O50     1.410   .     S
C19    H37     1.113   .     S
C19    H36     1.114   .     S
C20    C22     1.392   .     A
C20    H44     1.081   .     S
C21    H45     1.078   .     S
C21    C23     1.393   .     A
C22    H29     1.084   .     S
C22    C536    1.397   1_554 S
C23    C537    1.393   .     S
C23    H97     1.084   .     S
C24    C199    1.329   .     S
C24    H220    1.088   .     S
C25    C372    1.329   1_545 S
C25    H378    1.088   1_545 S
C26    O54     1.307   .     A
C26    O56     1.298   .     A
Cu27   N48     2.030   .     S
Cu27   O53     1.950   .     S
Cu27   O54     1.929   .     S
Cu27   O57     1.912   .     S
Cu27   O49     1.954   .     S
Cu27   Cu28    2.702   .     S
Cu28   N47     2.030   .     S
Cu28   O56     1.912   .     S
Cu28   O55     1.929   .     S
Cu28   O51     1.954   .     S
Cu28   O52     1.950   .     S
H30    C199    1.088   .     S
H31    N163    1.029   1_455 S
H32    N106    1.029   .     S
H39    C139    1.084   1_455 S
H42    C63     1.084   .     S
H43    C122    1.081   1_455 S
H46    C372    1.088   1_545 S
N47    H89     1.029   .     S
N47    N106    1.290   .     S
N48    H148    1.029   1_455 S
N48    N163    1.290   1_455 S
C59    O107    1.295   .     A
C59    O110    1.291   .     A
C59    C82     1.428   .     S
C60    C62     1.476   .     S
C60    O113    1.312   .     A
C60    O115    1.298   .     A
C61    C67     1.408   .     A
C61    C65     1.399   .     A
C61    C84     1.468   .     S
C62    C66     1.400   .     A
C62    C68     1.414   .     A
C63    C72     1.404   .     A
C63    C65     1.394   .     A
C64    C66     1.396   .     A
C64    C73     1.398   .     A
C64    H159    1.081   .     S
C65    H99     1.083   .     S
C66    H98     1.071   .     S
C67    C69     1.415   .     A
C67    O108    1.384   .     S
C68    O116    1.388   .     S
C68    C71     1.405   .     A
C69    C74     1.425   .     A
C69    C72     1.419   .     A
C70    C83     1.428   .     S
C70    O109    1.296   .     A
C70    O111    1.291   .     A
C71    C75     1.411   .     A
C71    C73     1.408   .     A
C72    C602    1.397   .     S
C73    C603    1.393   1_554 S
C74    C79     1.417   .     A
C74    C597    1.418   .     S
C75    C78     1.407   .     A
C75    C596    1.418   1_554 S
C76    H92     1.108   .     S
C76    H91     1.108   .     S
C76    H93     1.112   .     S
C76    O116    1.404   .     S
C77    H96     1.109   .     S
C77    O108    1.410   .     S
C77    H95     1.113   .     S
C77    H94     1.114   .     S
C78    C80     1.392   .     A
C78    H102    1.081   .     S
C79    H103    1.078   .     S
C79    C81     1.393   .     A
C80    H87     1.084   .     S
C80    C594    1.397   1_554 S
C81    C595    1.393   .     S
C81    H155    1.084   .     S
C82    C257    1.329   .     S
C82    H278    1.088   .     S
C83    C430    1.329   1_545 S
C83    H436    1.088   1_545 S
C84    O112    1.307   .     A
C84    O114    1.298   .     A
Cu85   N106    2.030   .     S
Cu85   O111    1.950   .     S
Cu85   O112    1.929   .     S
Cu85   O115    1.912   .     S
Cu85   O107    1.954   .     S
Cu85   Cu86    2.702   .     S
Cu86   N105    2.030   .     S
Cu86   O114    1.912   .     S
Cu86   O113    1.929   .     S
Cu86   O109    1.954   .     S
Cu86   O110    1.950   .     S
H88    C257    1.088   .     S
H90    N164    1.029   .     S
H100   C121    1.084   .     S
H104   C430    1.088   1_545 S
N105   H147    1.029   .     S
N105   N164    1.290   .     S
C117   O165    1.295   .     A
C117   O168    1.291   .     A
C117   C140    1.428   .     S
C118   C120    1.476   .     S
C118   O171    1.312   .     A
C118   O173    1.298   .     A
C119   C125    1.408   .     A
C119   C123    1.399   .     A
C119   C142    1.468   .     S
C120   C124    1.400   .     A
C120   C126    1.414   .     A
C121   C130    1.404   .     A
C121   C123    1.394   .     A
C122   C124    1.396   .     A
C122   C131    1.398   .     A
C122   H43     1.081   1_655 S
C123   H157    1.083   .     S
C124   H156    1.071   .     S
C125   C127    1.415   .     A
C125   O166    1.384   .     S
C126   O174    1.388   .     S
C126   C129    1.405   .     A
C127   C132    1.425   .     A
C127   C130    1.419   .     A
C128   C141    1.428   .     S
C128   O167    1.296   .     A
C128   O169    1.291   .     A
C129   C133    1.411   .     A
C129   C131    1.408   .     A
C130   C660    1.397   .     S
C131   C661    1.393   1_554 S
C132   C137    1.417   .     A
C132   C655    1.418   .     S
C133   C136    1.407   .     A
C133   C654    1.418   1_554 S
C134   H150    1.108   .     S
C134   H149    1.108   .     S
C134   H151    1.112   .     S
C134   O174    1.404   .     S
C135   H154    1.109   .     S
C135   O166    1.410   .     S
C135   H153    1.113   .     S
C135   H152    1.114   .     S
C136   C138    1.392   .     A
C136   H160    1.081   .     S
C137   H161    1.078   .     S
C137   C139    1.393   .     A
C138   H145    1.084   .     S
C138   C652    1.397   1_554 S
C139   C653    1.393   .     S
C139   H39     1.084   1_655 S
C140   C315    1.329   .     S
C140   H336    1.088   .     S
C141   C488    1.329   1_545 S
C141   H494    1.088   1_545 S
C142   O170    1.307   .     A
C142   O172    1.298   .     A
Cu143  N164    2.030   .     S
Cu143  O169    1.950   .     S
Cu143  O170    1.929   .     S
Cu143  O173    1.912   .     S
Cu143  O165    1.954   .     S
Cu143  Cu144   2.702   .     S
Cu144  N163    2.030   .     S
Cu144  O172    1.912   .     S
Cu144  O171    1.929   .     S
Cu144  O167    1.954   .     S
Cu144  O168    1.950   .     S
H146   C315    1.088   .     S
H148   N48     1.029   1_655 S
H158   C5      1.084   1_655 S
H162   C488    1.088   1_545 S
N163   H31     1.029   1_655 S
N163   N48     1.290   1_655 S
C175   O223    1.295   .     A
C175   O226    1.291   .     A
C175   C198    1.428   .     S
C176   C178    1.476   .     S
C176   O229    1.312   .     A
C176   O231    1.298   .     A
C177   C183    1.408   .     A
C177   C181    1.399   .     A
C177   C200    1.468   .     S
C178   C182    1.400   .     A
C178   C184    1.414   .     A
C179   C188    1.404   .     A
C179   C181    1.394   .     A
C179   H332    1.084   1_455 S
C180   C182    1.396   .     A
C180   C189    1.398   .     A
C180   H275    1.081   .     S
C181   H215    1.083   .     S
C182   H214    1.071   .     S
C183   C185    1.415   .     A
C183   O224    1.384   .     S
C184   O232    1.388   .     S
C184   C187    1.405   .     A
C185   C190    1.425   .     A
C185   C188    1.419   .     A
C186   C199    1.428   .     S
C186   O225    1.296   .     A
C186   O227    1.291   .     A
C187   C191    1.411   .     A
C187   C189    1.408   .     A
C188   C718    1.397   .     S
C189   C719    1.393   1_554 S
C190   C195    1.417   .     A
C190   C713    1.418   .     S
C191   C194    1.407   .     A
C191   C712    1.418   1_554 S
C192   H208    1.108   .     S
C192   H207    1.108   .     S
C192   H209    1.112   .     S
C192   O232    1.404   .     S
C193   H212    1.109   .     S
C193   O224    1.410   .     S
C193   H211    1.113   .     S
C193   H210    1.114   .     S
C194   C196    1.392   .     A
C194   H218    1.081   .     S
C195   H219    1.078   .     S
C195   C197    1.393   .     A
C196   H203    1.084   .     S
C196   C710    1.397   1_554 S
C197   C711    1.393   .     S
C197   H271    1.084   .     S
C198   C373    1.329   .     S
C198   H394    1.088   .     S
C200   O228    1.307   .     A
C200   O230    1.298   .     A
Cu201  N222    2.030   .     S
Cu201  O227    1.950   .     S
Cu201  O228    1.929   .     S
Cu201  O231    1.912   .     S
Cu201  O223    1.954   .     S
Cu201  Cu202   2.702   .     S
Cu202  N221    2.030   .     S
Cu202  O230    1.912   .     S
Cu202  O229    1.929   .     S
Cu202  O225    1.954   .     S
Cu202  O226    1.950   .     S
H204   C373    1.088   .     S
H205   N337    1.029   1_455 S
H206   N280    1.029   .     S
H213   C313    1.084   1_455 S
H216   C237    1.084   .     S
H217   C296    1.081   1_455 S
N221   H263    1.029   .     S
N221   N280    1.290   .     S
N222   H322    1.029   1_455 S
N222   N337    1.290   1_455 S
C233   O281    1.295   .     A
C233   O284    1.291   .     A
C233   C256    1.428   .     S
C234   C236    1.476   .     S
C234   O287    1.312   .     A
C234   O289    1.298   .     A
C235   C241    1.408   .     A
C235   C239    1.399   .     A
C235   C258    1.468   .     S
C236   C240    1.400   .     A
C236   C242    1.414   .     A
C237   C246    1.404   .     A
C237   C239    1.394   .     A
C238   C240    1.396   .     A
C238   C247    1.398   .     A
C238   H333    1.081   .     S
C239   H273    1.083   .     S
C240   H272    1.071   .     S
C241   C243    1.415   .     A
C241   O282    1.384   .     S
C242   O290    1.388   .     S
C242   C245    1.405   .     A
C243   C248    1.425   .     A
C243   C246    1.419   .     A
C244   C257    1.428   .     S
C244   O283    1.296   .     A
C244   O285    1.291   .     A
C245   C249    1.411   .     A
C245   C247    1.408   .     A
C246   C776    1.397   .     S
C247   C777    1.393   1_554 S
C248   C253    1.417   .     A
C248   C771    1.418   .     S
C249   C252    1.407   .     A
C249   C770    1.418   1_554 S
C250   H266    1.108   .     S
C250   H265    1.108   .     S
C250   H267    1.112   .     S
C250   O290    1.404   .     S
C251   H270    1.109   .     S
C251   O282    1.410   .     S
C251   H269    1.113   .     S
C251   H268    1.114   .     S
C252   C254    1.392   .     A
C252   H276    1.081   .     S
C253   H277    1.078   .     S
C253   C255    1.393   .     A
C254   H261    1.084   .     S
C254   C768    1.397   1_554 S
C255   C769    1.393   .     S
C255   H329    1.084   .     S
C256   C431    1.329   .     S
C256   H452    1.088   .     S
C258   O286    1.307   .     A
C258   O288    1.298   .     A
Cu259  N280    2.030   .     S
Cu259  O285    1.950   .     S
Cu259  O286    1.929   .     S
Cu259  O289    1.912   .     S
Cu259  O281    1.954   .     S
Cu259  Cu260   2.702   .     S
Cu260  N279    2.030   .     S
Cu260  O288    1.912   .     S
Cu260  O287    1.929   .     S
Cu260  O283    1.954   .     S
Cu260  O284    1.950   .     S
H262   C431    1.088   .     S
H264   N338    1.029   .     S
H274   C295    1.084   .     S
N279   H321    1.029   .     S
N279   N338    1.290   .     S
C291   O339    1.295   .     A
C291   O342    1.291   .     A
C291   C314    1.428   .     S
C292   C294    1.476   .     S
C292   O345    1.312   .     A
C292   O347    1.298   .     A
C293   C299    1.408   .     A
C293   C297    1.399   .     A
C293   C316    1.468   .     S
C294   C298    1.400   .     A
C294   C300    1.414   .     A
C295   C304    1.404   .     A
C295   C297    1.394   .     A
C296   C298    1.396   .     A
C296   C305    1.398   .     A
C296   H217    1.081   1_655 S
C297   H331    1.083   .     S
C298   H330    1.071   .     S
C299   C301    1.415   .     A
C299   O340    1.384   .     S
C300   O348    1.388   .     S
C300   C303    1.405   .     A
C301   C306    1.425   .     A
C301   C304    1.419   .     A
C302   C315    1.428   .     S
C302   O341    1.296   .     A
C302   O343    1.291   .     A
C303   C307    1.411   .     A
C303   C305    1.408   .     A
C304   C834    1.397   .     S
C305   C835    1.393   1_554 S
C306   C311    1.417   .     A
C306   C829    1.418   .     S
C307   C310    1.407   .     A
C307   C828    1.418   1_554 S
C308   H324    1.108   .     S
C308   H323    1.108   .     S
C308   H325    1.112   .     S
C308   O348    1.404   .     S
C309   H328    1.109   .     S
C309   O340    1.410   .     S
C309   H327    1.113   .     S
C309   H326    1.114   .     S
C310   C312    1.392   .     A
C310   H334    1.081   .     S
C311   H335    1.078   .     S
C311   C313    1.393   .     A
C312   H319    1.084   .     S
C312   C826    1.397   1_554 S
C313   C827    1.393   .     S
C313   H213    1.084   1_655 S
C314   C489    1.329   .     S
C314   H510    1.088   .     S
C316   O344    1.307   .     A
C316   O346    1.298   .     A
Cu317  N338    2.030   .     S
Cu317  O343    1.950   .     S
Cu317  O344    1.929   .     S
Cu317  O347    1.912   .     S
Cu317  O339    1.954   .     S
Cu317  Cu318   2.702   .     S
Cu318  N337    2.030   .     S
Cu318  O346    1.912   .     S
Cu318  O345    1.929   .     S
Cu318  O341    1.954   .     S
Cu318  O342    1.950   .     S
H320   C489    1.088   .     S
H322   N222    1.029   1_655 S
H332   C179    1.084   1_655 S
N337   H205    1.029   1_655 S
N337   N222    1.290   1_655 S
C349   O397    1.295   .     A
C349   O400    1.291   .     A
C349   C372    1.428   .     S
C350   C352    1.476   .     S
C350   O403    1.312   .     A
C350   O405    1.298   .     A
C351   C357    1.408   .     A
C351   C355    1.399   .     A
C351   C374    1.468   .     S
C352   C356    1.400   .     A
C352   C358    1.414   .     A
C353   C362    1.404   .     A
C353   C355    1.394   .     A
C353   H506    1.084   1_455 S
C354   C356    1.396   .     A
C354   C363    1.398   .     A
C354   H449    1.081   .     S
C355   H389    1.083   .     S
C356   H388    1.071   .     S
C357   C359    1.415   .     A
C357   O398    1.384   .     S
C358   O406    1.388   .     S
C358   C361    1.405   .     A
C359   C364    1.425   .     A
C359   C362    1.419   .     A
C360   C373    1.428   .     S
C360   O399    1.296   .     A
C360   O401    1.291   .     A
C361   C365    1.411   .     A
C361   C363    1.408   .     A
C362   C892    1.397   .     S
C363   C893    1.393   1_554 S
C364   C369    1.417   .     A
C364   C887    1.418   .     S
C365   C368    1.407   .     A
C365   C886    1.418   1_554 S
C366   H382    1.108   .     S
C366   H381    1.108   .     S
C366   H383    1.112   .     S
C366   O406    1.404   .     S
C367   H386    1.109   .     S
C367   O398    1.410   .     S
C367   H385    1.113   .     S
C367   H384    1.114   .     S
C368   C370    1.392   .     A
C368   H392    1.081   .     S
C369   H393    1.078   .     S
C369   C371    1.393   .     A
C370   H377    1.084   .     S
C370   C884    1.397   1_554 S
C371   C885    1.393   .     S
C371   H445    1.084   .     S
C372   C25     1.329   1_565 S
C372   H46     1.088   1_565 S
C374   O402    1.307   .     A
C374   O404    1.298   .     A
Cu375  N396    2.030   .     S
Cu375  O401    1.950   .     S
Cu375  O402    1.929   .     S
Cu375  O405    1.912   .     S
Cu375  O397    1.954   .     S
Cu375  Cu376   2.702   .     S
Cu376  N395    2.030   .     S
Cu376  O404    1.912   .     S
Cu376  O403    1.929   .     S
Cu376  O399    1.954   .     S
Cu376  O400    1.950   .     S
H378   C25     1.088   1_565 S
H379   N511    1.029   1_455 S
H380   N454    1.029   .     S
H387   C487    1.084   1_455 S
H390   C411    1.084   .     S
H391   C470    1.081   1_455 S
N395   H437    1.029   .     S
N395   N454    1.290   .     S
N396   H496    1.029   1_455 S
N396   N511    1.290   1_455 S
C407   O455    1.295   .     A
C407   O458    1.291   .     A
C407   C430    1.428   .     S
C408   C410    1.476   .     S
C408   O461    1.312   .     A
C408   O463    1.298   .     A
C409   C415    1.408   .     A
C409   C413    1.399   .     A
C409   C432    1.468   .     S
C410   C414    1.400   .     A
C410   C416    1.414   .     A
C411   C420    1.404   .     A
C411   C413    1.394   .     A
C412   C414    1.396   .     A
C412   C421    1.398   .     A
C412   H507    1.081   .     S
C413   H447    1.083   .     S
C414   H446    1.071   .     S
C415   C417    1.415   .     A
C415   O456    1.384   .     S
C416   O464    1.388   .     S
C416   C419    1.405   .     A
C417   C422    1.425   .     A
C417   C420    1.419   .     A
C418   C431    1.428   .     S
C418   O457    1.296   .     A
C418   O459    1.291   .     A
C419   C423    1.411   .     A
C419   C421    1.408   .     A
C420   C950    1.397   .     S
C421   C951    1.393   1_554 S
C422   C427    1.417   .     A
C422   C945    1.418   .     S
C423   C426    1.407   .     A
C423   C944    1.418   1_554 S
C424   H440    1.108   .     S
C424   H439    1.108   .     S
C424   H441    1.112   .     S
C424   O464    1.404   .     S
C425   H444    1.109   .     S
C425   O456    1.410   .     S
C425   H443    1.113   .     S
C425   H442    1.114   .     S
C426   C428    1.392   .     A
C426   H450    1.081   .     S
C427   H451    1.078   .     S
C427   C429    1.393   .     A
C428   H435    1.084   .     S
C428   C942    1.397   1_554 S
C429   C943    1.393   .     S
C429   H503    1.084   .     S
C430   C83     1.329   1_565 S
C430   H104    1.088   1_565 S
C432   O460    1.307   .     A
C432   O462    1.298   .     A
Cu433  N454    2.030   .     S
Cu433  O459    1.950   .     S
Cu433  O460    1.929   .     S
Cu433  O463    1.912   .     S
Cu433  O455    1.954   .     S
Cu433  Cu434   2.702   .     S
Cu434  N453    2.030   .     S
Cu434  O462    1.912   .     S
Cu434  O461    1.929   .     S
Cu434  O457    1.954   .     S
Cu434  O458    1.950   .     S
H436   C83     1.088   1_565 S
H438   N512    1.029   .     S
H448   C469    1.084   .     S
N453   H495    1.029   .     S
N453   N512    1.290   .     S
C465   O513    1.295   .     A
C465   O516    1.291   .     A
C465   C488    1.428   .     S
C466   C468    1.476   .     S
C466   O519    1.312   .     A
C466   O521    1.298   .     A
C467   C473    1.408   .     A
C467   C471    1.399   .     A
C467   C490    1.468   .     S
C468   C472    1.400   .     A
C468   C474    1.414   .     A
C469   C478    1.404   .     A
C469   C471    1.394   .     A
C470   C472    1.396   .     A
C470   C479    1.398   .     A
C470   H391    1.081   1_655 S
C471   H505    1.083   .     S
C472   H504    1.071   .     S
C473   C475    1.415   .     A
C473   O514    1.384   .     S
C474   O522    1.388   .     S
C474   C477    1.405   .     A
C475   C480    1.425   .     A
C475   C478    1.419   .     A
C476   C489    1.428   .     S
C476   O515    1.296   .     A
C476   O517    1.291   .     A
C477   C481    1.411   .     A
C477   C479    1.408   .     A
C478   C1008   1.397   .     S
C479   C1009   1.393   1_554 S
C480   C485    1.417   .     A
C480   C1003   1.418   .     S
C481   C484    1.407   .     A
C481   C1002   1.418   1_554 S
C482   H498    1.108   .     S
C482   H497    1.108   .     S
C482   H499    1.112   .     S
C482   O522    1.404   .     S
C483   H502    1.109   .     S
C483   O514    1.410   .     S
C483   H501    1.113   .     S
C483   H500    1.114   .     S
C484   C486    1.392   .     A
C484   H508    1.081   .     S
C485   H509    1.078   .     S
C485   C487    1.393   .     A
C486   H493    1.084   .     S
C486   C1000   1.397   1_554 S
C487   C1001   1.393   .     S
C487   H387    1.084   1_655 S
C488   C141    1.329   1_565 S
C488   H162    1.088   1_565 S
C490   O518    1.307   .     A
C490   O520    1.298   .     A
Cu491  N512    2.030   .     S
Cu491  O517    1.950   .     S
Cu491  O518    1.929   .     S
Cu491  O521    1.912   .     S
Cu491  O513    1.954   .     S
Cu491  Cu492   2.702   .     S
Cu492  N511    2.030   .     S
Cu492  O520    1.912   .     S
Cu492  O519    1.929   .     S
Cu492  O515    1.954   .     S
Cu492  O516    1.950   .     S
H494   C141    1.088   1_565 S
H496   N396    1.029   1_655 S
H506   C353    1.084   1_655 S
N511   H379    1.029   1_655 S
N511   N396    1.290   1_655 S
C523   O571    1.295   .     A
C523   O574    1.291   .     A
C523   C546    1.428   .     S
C524   C526    1.476   .     S
C524   O577    1.312   .     A
C524   O579    1.298   .     A
C525   C531    1.408   .     A
C525   C529    1.399   .     A
C525   C548    1.468   .     S
C526   C530    1.400   .     A
C526   C532    1.414   .     A
C527   C536    1.404   .     A
C527   C529    1.394   .     A
C527   H680    1.084   1_455 S
C528   C530    1.396   .     A
C528   C537    1.398   .     A
C528   H623    1.081   .     S
C529   H563    1.083   .     S
C530   H562    1.071   .     S
C531   C533    1.415   .     A
C531   O572    1.384   .     S
C532   O580    1.388   .     S
C532   C535    1.405   .     A
C533   C538    1.425   .     A
C533   C536    1.419   .     A
C534   C547    1.428   .     S
C534   O573    1.296   .     A
C534   O575    1.291   .     A
C535   C539    1.411   .     A
C535   C537    1.408   .     A
C536   C22     1.397   1_556 S
C538   C543    1.417   .     A
C538   C17     1.418   1_556 S
C539   C542    1.407   .     A
C540   H556    1.108   .     S
C540   H555    1.108   .     S
C540   H557    1.112   .     S
C540   O580    1.404   .     S
C541   H560    1.109   .     S
C541   O572    1.410   .     S
C541   H559    1.113   .     S
C541   H558    1.114   .     S
C542   C544    1.392   .     A
C542   H566    1.081   .     S
C543   H567    1.078   .     S
C543   C545    1.393   .     A
C544   H551    1.084   .     S
C545   C15     1.393   1_556 S
C545   H619    1.084   .     S
C546   C721    1.329   .     S
C546   H742    1.088   .     S
C547   C894    1.329   1_545 S
C547   H900    1.088   1_545 S
C548   O576    1.307   .     A
C548   O578    1.298   .     A
Cu549  N570    2.030   .     S
Cu549  O575    1.950   .     S
Cu549  O576    1.929   .     S
Cu549  O579    1.912   .     S
Cu549  O571    1.954   .     S
Cu549  Cu550   2.702   .     S
Cu550  N569    2.030   .     S
Cu550  O578    1.912   .     S
Cu550  O577    1.929   .     S
Cu550  O573    1.954   .     S
Cu550  O574    1.950   .     S
H552   C721    1.088   .     S
H553   N685    1.029   1_455 S
H554   N628    1.029   .     S
H561   C661    1.084   1_455 S
H564   C585    1.084   .     S
H565   C644    1.081   1_455 S
H568   C894    1.088   1_545 S
N569   H611    1.029   .     S
N569   N628    1.290   .     S
N570   H670    1.029   1_455 S
N570   N685    1.290   1_455 S
C581   O629    1.295   .     A
C581   O632    1.291   .     A
C581   C604    1.428   .     S
C582   C584    1.476   .     S
C582   O635    1.312   .     A
C582   O637    1.298   .     A
C583   C589    1.408   .     A
C583   C587    1.399   .     A
C583   C606    1.468   .     S
C584   C588    1.400   .     A
C584   C590    1.414   .     A
C585   C594    1.404   .     A
C585   C587    1.394   .     A
C586   C588    1.396   .     A
C586   C595    1.398   .     A
C586   H681    1.081   .     S
C587   H621    1.083   .     S
C588   H620    1.071   .     S
C589   C591    1.415   .     A
C589   O630    1.384   .     S
C590   O638    1.388   .     S
C590   C593    1.405   .     A
C591   C596    1.425   .     A
C591   C594    1.419   .     A
C592   C605    1.428   .     S
C592   O631    1.296   .     A
C592   O633    1.291   .     A
C593   C597    1.411   .     A
C593   C595    1.408   .     A
C594   C80     1.397   1_556 S
C596   C601    1.417   .     A
C596   C75     1.418   1_556 S
C597   C600    1.407   .     A
C598   H614    1.108   .     S
C598   H613    1.108   .     S
C598   H615    1.112   .     S
C598   O638    1.404   .     S
C599   H618    1.109   .     S
C599   O630    1.410   .     S
C599   H617    1.113   .     S
C599   H616    1.114   .     S
C600   C602    1.392   .     A
C600   H624    1.081   .     S
C601   H625    1.078   .     S
C601   C603    1.393   .     A
C602   H609    1.084   .     S
C603   C73     1.393   1_556 S
C603   H677    1.084   .     S
C604   C779    1.329   .     S
C604   H800    1.088   .     S
C605   C952    1.329   1_545 S
C605   H958    1.088   1_545 S
C606   O634    1.307   .     A
C606   O636    1.298   .     A
Cu607  N628    2.030   .     S
Cu607  O633    1.950   .     S
Cu607  O634    1.929   .     S
Cu607  O637    1.912   .     S
Cu607  O629    1.954   .     S
Cu607  Cu608   2.702   .     S
Cu608  N627    2.030   .     S
Cu608  O636    1.912   .     S
Cu608  O635    1.929   .     S
Cu608  O631    1.954   .     S
Cu608  O632    1.950   .     S
H610   C779    1.088   .     S
H612   N686    1.029   .     S
H622   C643    1.084   .     S
H626   C952    1.088   1_545 S
N627   H669    1.029   .     S
N627   N686    1.290   .     S
C639   O687    1.295   .     A
C639   O690    1.291   .     A
C639   C662    1.428   .     S
C640   C642    1.476   .     S
C640   O693    1.312   .     A
C640   O695    1.298   .     A
C641   C647    1.408   .     A
C641   C645    1.399   .     A
C641   C664    1.468   .     S
C642   C646    1.400   .     A
C642   C648    1.414   .     A
C643   C652    1.404   .     A
C643   C645    1.394   .     A
C644   C646    1.396   .     A
C644   C653    1.398   .     A
C644   H565    1.081   1_655 S
C645   H679    1.083   .     S
C646   H678    1.071   .     S
C647   C649    1.415   .     A
C647   O688    1.384   .     S
C648   O696    1.388   .     S
C648   C651    1.405   .     A
C649   C654    1.425   .     A
C649   C652    1.419   .     A
C650   C663    1.428   .     S
C650   O689    1.296   .     A
C650   O691    1.291   .     A
C651   C655    1.411   .     A
C651   C653    1.408   .     A
C652   C138    1.397   1_556 S
C654   C659    1.417   .     A
C654   C133    1.418   1_556 S
C655   C658    1.407   .     A
C656   H672    1.108   .     S
C656   H671    1.108   .     S
C656   H673    1.112   .     S
C656   O696    1.404   .     S
C657   H676    1.109   .     S
C657   O688    1.410   .     S
C657   H675    1.113   .     S
C657   H674    1.114   .     S
C658   C660    1.392   .     A
C658   H682    1.081   .     S
C659   H683    1.078   .     S
C659   C661    1.393   .     A
C660   H667    1.084   .     S
C661   C131    1.393   1_556 S
C661   H561    1.084   1_655 S
C662   C837    1.329   .     S
C662   H858    1.088   .     S
C663   C1010   1.329   1_545 S
C663   H1016   1.088   1_545 S
C664   O692    1.307   .     A
C664   O694    1.298   .     A
Cu665  N686    2.030   .     S
Cu665  O691    1.950   .     S
Cu665  O692    1.929   .     S
Cu665  O695    1.912   .     S
Cu665  O687    1.954   .     S
Cu665  Cu666   2.702   .     S
Cu666  N685    2.030   .     S
Cu666  O694    1.912   .     S
Cu666  O693    1.929   .     S
Cu666  O689    1.954   .     S
Cu666  O690    1.950   .     S
H668   C837    1.088   .     S
H670   N570    1.029   1_655 S
H680   C527    1.084   1_655 S
H684   C1010   1.088   1_545 S
N685   H553    1.029   1_655 S
N685   N570    1.290   1_655 S
C697   O745    1.295   .     A
C697   O748    1.291   .     A
C697   C720    1.428   .     S
C698   C700    1.476   .     S
C698   O751    1.312   .     A
C698   O753    1.298   .     A
C699   C705    1.408   .     A
C699   C703    1.399   .     A
C699   C722    1.468   .     S
C700   C704    1.400   .     A
C700   C706    1.414   .     A
C701   C710    1.404   .     A
C701   C703    1.394   .     A
C701   H854    1.084   1_455 S
C702   C704    1.396   .     A
C702   C711    1.398   .     A
C702   H797    1.081   .     S
C703   H737    1.083   .     S
C704   H736    1.071   .     S
C705   C707    1.415   .     A
C705   O746    1.384   .     S
C706   O754    1.388   .     S
C706   C709    1.405   .     A
C707   C712    1.425   .     A
C707   C710    1.419   .     A
C708   C721    1.428   .     S
C708   O747    1.296   .     A
C708   O749    1.291   .     A
C709   C713    1.411   .     A
C709   C711    1.408   .     A
C710   C196    1.397   1_556 S
C712   C717    1.417   .     A
C712   C191    1.418   1_556 S
C713   C716    1.407   .     A
C714   H730    1.108   .     S
C714   H729    1.108   .     S
C714   H731    1.112   .     S
C714   O754    1.404   .     S
C715   H734    1.109   .     S
C715   O746    1.410   .     S
C715   H733    1.113   .     S
C715   H732    1.114   .     S
C716   C718    1.392   .     A
C716   H740    1.081   .     S
C717   H741    1.078   .     S
C717   C719    1.393   .     A
C718   H725    1.084   .     S
C719   C189    1.393   1_556 S
C719   H793    1.084   .     S
C720   C895    1.329   .     S
C720   H916    1.088   .     S
C722   O750    1.307   .     A
C722   O752    1.298   .     A
Cu723  N744    2.030   .     S
Cu723  O749    1.950   .     S
Cu723  O750    1.929   .     S
Cu723  O753    1.912   .     S
Cu723  O745    1.954   .     S
Cu723  Cu724   2.702   .     S
Cu724  N743    2.030   .     S
Cu724  O752    1.912   .     S
Cu724  O751    1.929   .     S
Cu724  O747    1.954   .     S
Cu724  O748    1.950   .     S
H726   C895    1.088   .     S
H727   N859    1.029   1_455 S
H728   N802    1.029   .     S
H735   C835    1.084   1_455 S
H738   C759    1.084   .     S
H739   C818    1.081   1_455 S
N743   H785    1.029   .     S
N743   N802    1.290   .     S
N744   H844    1.029   1_455 S
N744   N859    1.290   1_455 S
C755   O803    1.295   .     A
C755   O806    1.291   .     A
C755   C778    1.428   .     S
C756   C758    1.476   .     S
C756   O809    1.312   .     A
C756   O811    1.298   .     A
C757   C763    1.408   .     A
C757   C761    1.399   .     A
C757   C780    1.468   .     S
C758   C762    1.400   .     A
C758   C764    1.414   .     A
C759   C768    1.404   .     A
C759   C761    1.394   .     A
C760   C762    1.396   .     A
C760   C769    1.398   .     A
C760   H855    1.081   .     S
C761   H795    1.083   .     S
C762   H794    1.071   .     S
C763   C765    1.415   .     A
C763   O804    1.384   .     S
C764   O812    1.388   .     S
C764   C767    1.405   .     A
C765   C770    1.425   .     A
C765   C768    1.419   .     A
C766   C779    1.428   .     S
C766   O805    1.296   .     A
C766   O807    1.291   .     A
C767   C771    1.411   .     A
C767   C769    1.408   .     A
C768   C254    1.397   1_556 S
C770   C775    1.417   .     A
C770   C249    1.418   1_556 S
C771   C774    1.407   .     A
C772   H788    1.108   .     S
C772   H787    1.108   .     S
C772   H789    1.112   .     S
C772   O812    1.404   .     S
C773   H792    1.109   .     S
C773   O804    1.410   .     S
C773   H791    1.113   .     S
C773   H790    1.114   .     S
C774   C776    1.392   .     A
C774   H798    1.081   .     S
C775   H799    1.078   .     S
C775   C777    1.393   .     A
C776   H783    1.084   .     S
C777   C247    1.393   1_556 S
C777   H851    1.084   .     S
C778   C953    1.329   .     S
C778   H974    1.088   .     S
C780   O808    1.307   .     A
C780   O810    1.298   .     A
Cu781  N802    2.030   .     S
Cu781  O807    1.950   .     S
Cu781  O808    1.929   .     S
Cu781  O811    1.912   .     S
Cu781  O803    1.954   .     S
Cu781  Cu782   2.702   .     S
Cu782  N801    2.030   .     S
Cu782  O810    1.912   .     S
Cu782  O809    1.929   .     S
Cu782  O805    1.954   .     S
Cu782  O806    1.950   .     S
H784   C953    1.088   .     S
H786   N860    1.029   .     S
H796   C817    1.084   .     S
N801   H843    1.029   .     S
N801   N860    1.290   .     S
C813   O861    1.295   .     A
C813   O864    1.291   .     A
C813   C836    1.428   .     S
C814   C816    1.476   .     S
C814   O867    1.312   .     A
C814   O869    1.298   .     A
C815   C821    1.408   .     A
C815   C819    1.399   .     A
C815   C838    1.468   .     S
C816   C820    1.400   .     A
C816   C822    1.414   .     A
C817   C826    1.404   .     A
C817   C819    1.394   .     A
C818   C820    1.396   .     A
C818   C827    1.398   .     A
C818   H739    1.081   1_655 S
C819   H853    1.083   .     S
C820   H852    1.071   .     S
C821   C823    1.415   .     A
C821   O862    1.384   .     S
C822   O870    1.388   .     S
C822   C825    1.405   .     A
C823   C828    1.425   .     A
C823   C826    1.419   .     A
C824   C837    1.428   .     S
C824   O863    1.296   .     A
C824   O865    1.291   .     A
C825   C829    1.411   .     A
C825   C827    1.408   .     A
C826   C312    1.397   1_556 S
C828   C833    1.417   .     A
C828   C307    1.418   1_556 S
C829   C832    1.407   .     A
C830   H846    1.108   .     S
C830   H845    1.108   .     S
C830   H847    1.112   .     S
C830   O870    1.404   .     S
C831   H850    1.109   .     S
C831   O862    1.410   .     S
C831   H849    1.113   .     S
C831   H848    1.114   .     S
C832   C834    1.392   .     A
C832   H856    1.081   .     S
C833   H857    1.078   .     S
C833   C835    1.393   .     A
C834   H841    1.084   .     S
C835   C305    1.393   1_556 S
C835   H735    1.084   1_655 S
C836   C1011   1.329   .     S
C836   H1032   1.088   .     S
C838   O866    1.307   .     A
C838   O868    1.298   .     A
Cu839  N860    2.030   .     S
Cu839  O865    1.950   .     S
Cu839  O866    1.929   .     S
Cu839  O869    1.912   .     S
Cu839  O861    1.954   .     S
Cu839  Cu840   2.702   .     S
Cu840  N859    2.030   .     S
Cu840  O868    1.912   .     S
Cu840  O867    1.929   .     S
Cu840  O863    1.954   .     S
Cu840  O864    1.950   .     S
H842   C1011   1.088   .     S
H844   N744    1.029   1_655 S
H854   C701    1.084   1_655 S
N859   H727    1.029   1_655 S
N859   N744    1.290   1_655 S
C871   O919    1.295   .     A
C871   O922    1.291   .     A
C871   C894    1.428   .     S
C872   C874    1.476   .     S
C872   O925    1.312   .     A
C872   O927    1.298   .     A
C873   C879    1.408   .     A
C873   C877    1.399   .     A
C873   C896    1.468   .     S
C874   C878    1.400   .     A
C874   C880    1.414   .     A
C875   C884    1.404   .     A
C875   C877    1.394   .     A
C875   H1028   1.084   1_455 S
C876   C878    1.396   .     A
C876   C885    1.398   .     A
C876   H971    1.081   .     S
C877   H911    1.083   .     S
C878   H910    1.071   .     S
C879   C881    1.415   .     A
C879   O920    1.384   .     S
C880   O928    1.388   .     S
C880   C883    1.405   .     A
C881   C886    1.425   .     A
C881   C884    1.419   .     A
C882   C895    1.428   .     S
C882   O921    1.296   .     A
C882   O923    1.291   .     A
C883   C887    1.411   .     A
C883   C885    1.408   .     A
C884   C370    1.397   1_556 S
C886   C891    1.417   .     A
C886   C365    1.418   1_556 S
C887   C890    1.407   .     A
C888   H904    1.108   .     S
C888   H903    1.108   .     S
C888   H905    1.112   .     S
C888   O928    1.404   .     S
C889   H908    1.109   .     S
C889   O920    1.410   .     S
C889   H907    1.113   .     S
C889   H906    1.114   .     S
C890   C892    1.392   .     A
C890   H914    1.081   .     S
C891   H915    1.078   .     S
C891   C893    1.393   .     A
C892   H899    1.084   .     S
C893   C363    1.393   1_556 S
C893   H967    1.084   .     S
C894   C547    1.329   1_565 S
C894   H568    1.088   1_565 S
C896   O924    1.307   .     A
C896   O926    1.298   .     A
Cu897  N918    2.030   .     S
Cu897  O923    1.950   .     S
Cu897  O924    1.929   .     S
Cu897  O927    1.912   .     S
Cu897  O919    1.954   .     S
Cu897  Cu898   2.702   .     S
Cu898  N917    2.030   .     S
Cu898  O926    1.912   .     S
Cu898  O925    1.929   .     S
Cu898  O921    1.954   .     S
Cu898  O922    1.950   .     S
H900   C547    1.088   1_565 S
H901   N1033   1.029   1_455 S
H902   N976    1.029   .     S
H909   C1009   1.084   1_455 S
H912   C933    1.084   .     S
H913   C992    1.081   1_455 S
N917   H959    1.029   .     S
N917   N976    1.290   .     S
N918   H1018   1.029   1_455 S
N918   N1033   1.290   1_455 S
C929   O977    1.295   .     A
C929   O980    1.291   .     A
C929   C952    1.428   .     S
C930   C932    1.476   .     S
C930   O983    1.312   .     A
C930   O985    1.298   .     A
C931   C937    1.408   .     A
C931   C935    1.399   .     A
C931   C954    1.468   .     S
C932   C936    1.400   .     A
C932   C938    1.414   .     A
C933   C942    1.404   .     A
C933   C935    1.394   .     A
C934   C936    1.396   .     A
C934   C943    1.398   .     A
C934   H1029   1.081   .     S
C935   H969    1.083   .     S
C936   H968    1.071   .     S
C937   C939    1.415   .     A
C937   O978    1.384   .     S
C938   O986    1.388   .     S
C938   C941    1.405   .     A
C939   C944    1.425   .     A
C939   C942    1.419   .     A
C940   C953    1.428   .     S
C940   O979    1.296   .     A
C940   O981    1.291   .     A
C941   C945    1.411   .     A
C941   C943    1.408   .     A
C942   C428    1.397   1_556 S
C944   C949    1.417   .     A
C944   C423    1.418   1_556 S
C945   C948    1.407   .     A
C946   H962    1.108   .     S
C946   H961    1.108   .     S
C946   H963    1.112   .     S
C946   O986    1.404   .     S
C947   H966    1.109   .     S
C947   O978    1.410   .     S
C947   H965    1.113   .     S
C947   H964    1.114   .     S
C948   C950    1.392   .     A
C948   H972    1.081   .     S
C949   H973    1.078   .     S
C949   C951    1.393   .     A
C950   H957    1.084   .     S
C951   C421    1.393   1_556 S
C951   H1025   1.084   .     S
C952   C605    1.329   1_565 S
C952   H626    1.088   1_565 S
C954   O982    1.307   .     A
C954   O984    1.298   .     A
Cu955  N976    2.030   .     S
Cu955  O981    1.950   .     S
Cu955  O982    1.929   .     S
Cu955  O985    1.912   .     S
Cu955  O977    1.954   .     S
Cu955  Cu956   2.702   .     S
Cu956  N975    2.030   .     S
Cu956  O984    1.912   .     S
Cu956  O983    1.929   .     S
Cu956  O979    1.954   .     S
Cu956  O980    1.950   .     S
H958   C605    1.088   1_565 S
H960   N1034   1.029   .     S
H970   C991    1.084   .     S
N975   H1017   1.029   .     S
N975   N1034   1.290   .     S
C987   O1035   1.295   .     A
C987   O1038   1.291   .     A
C987   C1010   1.428   .     S
C988   C990    1.476   .     S
C988   O1041   1.312   .     A
C988   O1043   1.298   .     A
C989   C995    1.408   .     A
C989   C993    1.399   .     A
C989   C1012   1.468   .     S
C990   C994    1.400   .     A
C990   C996    1.414   .     A
C991   C1000   1.404   .     A
C991   C993    1.394   .     A
C992   C994    1.396   .     A
C992   C1001   1.398   .     A
C992   H913    1.081   1_655 S
C993   H1027   1.083   .     S
C994   H1026   1.071   .     S
C995   C997    1.415   .     A
C995   O1036   1.384   .     S
C996   O1044   1.388   .     S
C996   C999    1.405   .     A
C997   C1002   1.425   .     A
C997   C1000   1.419   .     A
C998   C1011   1.428   .     S
C998   O1037   1.296   .     A
C998   O1039   1.291   .     A
C999   C1003   1.411   .     A
C999   C1001   1.408   .     A
C1000  C486    1.397   1_556 S
C1002  C1007   1.417   .     A
C1002  C481    1.418   1_556 S
C1003  C1006   1.407   .     A
C1004  H1020   1.108   .     S
C1004  H1019   1.108   .     S
C1004  H1021   1.112   .     S
C1004  O1044   1.404   .     S
C1005  H1024   1.109   .     S
C1005  O1036   1.410   .     S
C1005  H1023   1.113   .     S
C1005  H1022   1.114   .     S
C1006  C1008   1.392   .     A
C1006  H1030   1.081   .     S
C1007  H1031   1.078   .     S
C1007  C1009   1.393   .     A
C1008  H1015   1.084   .     S
C1009  C479    1.393   1_556 S
C1009  H909    1.084   1_655 S
C1010  C663    1.329   1_565 S
C1010  H684    1.088   1_565 S
C1012  O1040   1.307   .     A
C1012  O1042   1.298   .     A
Cu1013 N1034   2.030   .     S
Cu1013 O1039   1.950   .     S
Cu1013 O1040   1.929   .     S
Cu1013 O1043   1.912   .     S
Cu1013 O1035   1.954   .     S
Cu1013 Cu1014  2.702   .     S
Cu1014 N1033   2.030   .     S
Cu1014 O1042   1.912   .     S
Cu1014 O1041   1.929   .     S
Cu1014 O1037   1.954   .     S
Cu1014 O1038   1.950   .     S
H1016  C663    1.088   1_565 S
H1018  N918    1.029   1_655 S
H1028  C875    1.084   1_655 S
N1033  H901    1.029   1_655 S
N1033  N918    1.290   1_655 S
