data_str_m3_o1_o2_pcu_sym.36
_audit_creation_date              2020-01-03
_audit_creation_method            'Materials Studio'
_symmetry_space_group_name_H-M    'P1'
_symmetry_Int_Tables_number       1
_symmetry_cell_setting            triclinic
loop_
_symmetry_equiv_pos_as_xyz
  x,y,z
_cell_length_a                    32.0794
_cell_length_b                    29.8294
_cell_length_c                    30.0761
_cell_angle_alpha                 90.8408
_cell_angle_beta                  93.4520
_cell_angle_gamma                 89.9286
loop_
_atom_site_label
_atom_site_type_symbol
_atom_site_fract_x
_atom_site_fract_y
_atom_site_fract_z
_atom_site_U_iso_or_equiv
_atom_site_adp_type
_atom_site_occupancy
C1     C     0.08674   0.16669   0.24992   0.00000  Uiso   1.00
C2     C     0.31120   0.20534   0.23740   0.00000  Uiso   1.00
C3     C     0.31278   0.12795   0.26261   0.00000  Uiso   1.00
C4     C     0.02057   0.20541   0.23745   0.00000  Uiso   1.00
C5     C     0.17977   0.20155   0.04656   0.00000  Uiso   1.00
C6     C     0.16217   0.12930   0.45450   0.00000  Uiso   1.00
C7     C     0.14010   0.20752   0.45096   0.00000  Uiso   1.00
C8     C     0.12921   0.14034   0.04679   0.00000  Uiso   1.00
C9     C     0.18356   0.20121   0.09318   0.00000  Uiso   1.00
C10    C     0.16270   0.12760   0.40838   0.00000  Uiso   1.00
C11    C     0.14830   0.20820   0.40584   0.00000  Uiso   1.00
C12    C     0.24660   0.16665   0.25009   0.00000  Uiso   1.00
C13    C     0.13971   0.13412   0.09181   0.00000  Uiso   1.00
C14    C     0.16433   0.16645   0.11560   0.00000  Uiso   1.00
C15    C     0.15921   0.16776   0.38407   0.00000  Uiso   1.00
C16    C     0.15169   0.17170   0.02379   0.00000  Uiso   1.00
C17    C     0.15024   0.16923   0.47555   0.00000  Uiso   1.00
C18    C     0.29079   0.16663   0.25002   0.00000  Uiso   1.00
C19    C     0.04255   0.16672   0.25003   0.00000  Uiso   1.00
C20    C     0.22093   0.04875   0.31246   0.00000  Uiso   1.00
C21    C     0.11210   0.28434   0.18787   0.00000  Uiso   1.00
C22    C     0.10127   0.04809   0.20358   0.00000  Uiso   1.00
C23    C     0.16688   0.16640   0.16392   0.00000  Uiso   1.00
C24    C     0.23069   0.28479   0.29867   0.00000  Uiso   1.00
C25    C     0.24147   0.21419   0.01544   0.00000  Uiso   1.00
C26    C     0.21329   0.08730   0.48911   0.00000  Uiso   1.00
C27    C     0.08220   0.24866   0.46289   0.00000  Uiso   1.00
C28    C     0.06023   0.12445   0.03421   0.00000  Uiso   1.00
C29    C     0.19587   0.27543   0.11146   0.00000  Uiso   1.00
C30    C     0.13018   0.06484   0.38097   0.00000  Uiso   1.00
C31    C     0.17574   0.27729   0.39517   0.00000  Uiso   1.00
C32    C     0.15184   0.06050   0.10316   0.00000  Uiso   1.00
C33    C     0.16512   0.16700   0.33615   0.00000  Uiso   1.00
C34    C     0.19472   0.02422   0.27749   0.00000  Uiso   1.00
C35    C     0.13854   0.30903   0.22261   0.00000  Uiso   1.00
C36    C     0.13708   0.02372   0.22483   0.00000  Uiso   1.00
C37    C     0.19591   0.30949   0.27566   0.00000  Uiso   1.00
C38    C     0.02215   0.12802   0.26269   0.00000  Uiso   1.00
H39    H     0.03910   0.09811   0.27299   0.00000  Uiso   1.00
H40    H     0.23853   0.18699   0.48984   0.00000  Uiso   1.00
H41    H     0.25819   0.20191   0.04643   0.00000  Uiso   1.00
H42    H     0.23185   0.08991   0.45912   0.00000  Uiso   1.00
H43    H     0.21984   0.05395   0.00381   0.00000  Uiso   1.00
H44    H     0.22351   0.11297   0.01458   0.00000  Uiso   1.00
H45    H     0.07025   0.27724   0.48243   0.00000  Uiso   1.00
H46    H     0.06581   0.21791   0.47300   0.00000  Uiso   1.00
H47    H     0.07452   0.25541   0.42705   0.00000  Uiso   1.00
H48    H     0.05444   0.11701   0.06942   0.00000  Uiso   1.00
H49    H     0.03763   0.10452   0.01273   0.00000  Uiso   1.00
H50    H     0.29425   0.23527   0.22714   0.00000  Uiso   1.00
H51    H     0.05402   0.16049   0.02738   0.00000  Uiso   1.00
H52    H     0.16143   0.27819   0.10466   0.00000  Uiso   1.00
H53    H     0.21219   0.29168   0.08447   0.00000  Uiso   1.00
H54    H     0.20393   0.29455   0.14272   0.00000  Uiso   1.00
H55    H     0.13394   0.03540   0.35869   0.00000  Uiso   1.00
H56    H     0.10601   0.08675   0.36423   0.00000  Uiso   1.00
H57    H     0.11922   0.05260   0.41300   0.00000  Uiso   1.00
H58    H     0.17607   0.30417   0.37027   0.00000  Uiso   1.00
H59    H     0.20685   0.26054   0.39595   0.00000  Uiso   1.00
H60    H     0.17088   0.29362   0.42785   0.00000  Uiso   1.00
H61    H     0.29713   0.09793   0.27272   0.00000  Uiso   1.00
H62    H     0.14211   0.03090   0.12161   0.00000  Uiso   1.00
H63    H     0.18486   0.06785   0.11448   0.00000  Uiso   1.00
H64    H     0.14966   0.05124   0.06713   0.00000  Uiso   1.00
H65    H     0.03622   0.23541   0.22732   0.00000  Uiso   1.00
H66    H     0.22878   0.08331   0.30941   0.00000  Uiso   1.00
H67    H     0.10553   0.24944   0.19032   0.00000  Uiso   1.00
H68    H     0.10586   0.07914   0.18691   0.00000  Uiso   1.00
H69    H     0.22497   0.25476   0.31683   0.00000  Uiso   1.00
H70    H     0.26091   0.24096   0.00202   0.00000  Uiso   1.00
N71    N     0.16667   0.28573   0.25000   0.00000  Uiso   1.00
N72    N     0.16667   0.04760   0.25000   0.00000  Uiso   1.00
O73    O     0.10559   0.20487   0.24999   0.00000  Uiso   1.00
O74    O     0.09829   0.30261   0.15405   0.00000  Uiso   1.00
O75    O     0.06567   0.03428   0.20602   0.00000  Uiso   1.00
O76    O     0.26670   0.29743   0.29654   0.00000  Uiso   1.00
O77    O     0.20200   0.23237   0.02346   0.00000  Uiso   1.00
O78    O     0.17003   0.09058   0.47845   0.00000  Uiso   1.00
O79    O     0.12570   0.24551   0.47214   0.00000  Uiso   1.00
O80    O     0.10100   0.11196   0.02393   0.00000  Uiso   1.00
O81    O     0.21011   0.23087   0.11694   0.00000  Uiso   1.00
O82    O     0.16913   0.08671   0.38771   0.00000  Uiso   1.00
O83    O     0.14275   0.24761   0.38245   0.00000  Uiso   1.00
O84    O     0.22774   0.12846   0.25000   0.00000  Uiso   1.00
O85    O     0.12514   0.09673   0.11239   0.00000  Uiso   1.00
O86    O     0.22774   0.20487   0.25000   0.00000  Uiso   1.00
O87    O     0.10559   0.12846   0.24999   0.00000  Uiso   1.00
O88    O     0.16666   0.20489   0.18453   0.00000  Uiso   1.00
O89    O     0.16667   0.12845   0.31547   0.00000  Uiso   1.00
O90    O     0.16667   0.20489   0.31547   0.00000  Uiso   1.00
O91    O     0.16666   0.12845   0.18453   0.00000  Uiso   1.00
O92    O     0.23287   0.03080   0.34717   0.00000  Uiso   1.00
Zn93   Zn    0.16667   0.21771   0.25000   0.00000  Uiso   1.00
Zn94   Zn    0.16667   0.11563   0.25000   0.00000  Uiso   1.00
C95    C     0.42007   0.16669   0.24992   0.00000  Uiso   1.00
C96    C     0.64453   0.20534   0.23740   0.00000  Uiso   1.00
C97    C     0.64611   0.12795   0.26261   0.00000  Uiso   1.00
C98    C     0.35391   0.20541   0.23745   0.00000  Uiso   1.00
C99    C     0.51310   0.20155   0.04656   0.00000  Uiso   1.00
C100   C     0.49550   0.12930   0.45450   0.00000  Uiso   1.00
C101   C     0.47343   0.20752   0.45096   0.00000  Uiso   1.00
C102   C     0.46254   0.14034   0.04679   0.00000  Uiso   1.00
C103   C     0.51689   0.20121   0.09318   0.00000  Uiso   1.00
C104   C     0.49603   0.12760   0.40838   0.00000  Uiso   1.00
C105   C     0.48163   0.20820   0.40584   0.00000  Uiso   1.00
C106   C     0.57993   0.16665   0.25009   0.00000  Uiso   1.00
C107   C     0.47304   0.13412   0.09181   0.00000  Uiso   1.00
C108   C     0.49766   0.16645   0.11560   0.00000  Uiso   1.00
C109   C     0.49254   0.16776   0.38407   0.00000  Uiso   1.00
C110   C     0.48503   0.17170   0.02379   0.00000  Uiso   1.00
C111   C     0.48357   0.16923   0.47555   0.00000  Uiso   1.00
C112   C     0.62413   0.16663   0.25002   0.00000  Uiso   1.00
C113   C     0.37589   0.16672   0.25003   0.00000  Uiso   1.00
C114   C     0.55427   0.04875   0.31246   0.00000  Uiso   1.00
C115   C     0.44544   0.28434   0.18787   0.00000  Uiso   1.00
C116   C     0.43461   0.04809   0.20358   0.00000  Uiso   1.00
C117   C     0.50021   0.16640   0.16392   0.00000  Uiso   1.00
C118   C     0.56402   0.28479   0.29867   0.00000  Uiso   1.00
C119   C     0.57480   0.21419   0.01544   0.00000  Uiso   1.00
C120   C     0.54662   0.08730   0.48911   0.00000  Uiso   1.00
C121   C     0.41554   0.24866   0.46289   0.00000  Uiso   1.00
C122   C     0.39357   0.12445   0.03421   0.00000  Uiso   1.00
C123   C     0.52921   0.27543   0.11146   0.00000  Uiso   1.00
C124   C     0.46351   0.06484   0.38097   0.00000  Uiso   1.00
C125   C     0.50907   0.27729   0.39517   0.00000  Uiso   1.00
C126   C     0.48517   0.06050   0.10316   0.00000  Uiso   1.00
C127   C     0.49845   0.16700   0.33615   0.00000  Uiso   1.00
C128   C     0.52806   0.02422   0.27749   0.00000  Uiso   1.00
C129   C     0.47187   0.30903   0.22261   0.00000  Uiso   1.00
C130   C     0.47041   0.02372   0.22483   0.00000  Uiso   1.00
C131   C     0.52924   0.30949   0.27566   0.00000  Uiso   1.00
C132   C     0.35548   0.12802   0.26269   0.00000  Uiso   1.00
H133   H     0.37243   0.09811   0.27299   0.00000  Uiso   1.00
H134   H     0.57186   0.18699   0.48984   0.00000  Uiso   1.00
H135   H     0.59152   0.20191   0.04643   0.00000  Uiso   1.00
H136   H     0.56518   0.08991   0.45912   0.00000  Uiso   1.00
H137   H     0.55318   0.05395   0.00381   0.00000  Uiso   1.00
H138   H     0.55684   0.11297   0.01458   0.00000  Uiso   1.00
H139   H     0.40358   0.27724   0.48243   0.00000  Uiso   1.00
H140   H     0.39914   0.21791   0.47300   0.00000  Uiso   1.00
H141   H     0.40785   0.25541   0.42705   0.00000  Uiso   1.00
H142   H     0.38778   0.11701   0.06942   0.00000  Uiso   1.00
H143   H     0.37096   0.10452   0.01273   0.00000  Uiso   1.00
H144   H     0.62759   0.23527   0.22714   0.00000  Uiso   1.00
H145   H     0.38735   0.16049   0.02738   0.00000  Uiso   1.00
H146   H     0.49476   0.27819   0.10466   0.00000  Uiso   1.00
H147   H     0.54552   0.29168   0.08447   0.00000  Uiso   1.00
H148   H     0.53726   0.29455   0.14272   0.00000  Uiso   1.00
H149   H     0.46727   0.03540   0.35869   0.00000  Uiso   1.00
H150   H     0.43935   0.08675   0.36423   0.00000  Uiso   1.00
H151   H     0.45256   0.05260   0.41300   0.00000  Uiso   1.00
H152   H     0.50941   0.30417   0.37027   0.00000  Uiso   1.00
H153   H     0.54018   0.26054   0.39595   0.00000  Uiso   1.00
H154   H     0.50422   0.29362   0.42785   0.00000  Uiso   1.00
H155   H     0.63047   0.09793   0.27272   0.00000  Uiso   1.00
H156   H     0.47544   0.03090   0.12161   0.00000  Uiso   1.00
H157   H     0.51819   0.06785   0.11448   0.00000  Uiso   1.00
H158   H     0.48299   0.05124   0.06713   0.00000  Uiso   1.00
H159   H     0.36956   0.23541   0.22732   0.00000  Uiso   1.00
H160   H     0.56211   0.08331   0.30941   0.00000  Uiso   1.00
H161   H     0.43887   0.24944   0.19032   0.00000  Uiso   1.00
H162   H     0.43920   0.07914   0.18691   0.00000  Uiso   1.00
H163   H     0.55830   0.25476   0.31683   0.00000  Uiso   1.00
H164   H     0.59424   0.24096   0.00202   0.00000  Uiso   1.00
N165   N     0.50000   0.28573   0.25000   0.00000  Uiso   1.00
N166   N     0.50000   0.04760   0.25000   0.00000  Uiso   1.00
O167   O     0.43892   0.20487   0.24999   0.00000  Uiso   1.00
O168   O     0.43162   0.30261   0.15405   0.00000  Uiso   1.00
O169   O     0.39900   0.03428   0.20602   0.00000  Uiso   1.00
O170   O     0.60003   0.29743   0.29654   0.00000  Uiso   1.00
O171   O     0.53534   0.23237   0.02346   0.00000  Uiso   1.00
O172   O     0.50336   0.09058   0.47845   0.00000  Uiso   1.00
O173   O     0.45903   0.24551   0.47214   0.00000  Uiso   1.00
O174   O     0.43433   0.11196   0.02393   0.00000  Uiso   1.00
O175   O     0.54344   0.23087   0.11694   0.00000  Uiso   1.00
O176   O     0.50246   0.08671   0.38771   0.00000  Uiso   1.00
O177   O     0.47608   0.24761   0.38245   0.00000  Uiso   1.00
O178   O     0.56108   0.12846   0.25000   0.00000  Uiso   1.00
O179   O     0.45847   0.09673   0.11239   0.00000  Uiso   1.00
O180   O     0.56108   0.20487   0.25000   0.00000  Uiso   1.00
O181   O     0.43892   0.12846   0.24999   0.00000  Uiso   1.00
O182   O     0.50000   0.20489   0.18453   0.00000  Uiso   1.00
O183   O     0.50000   0.12845   0.31547   0.00000  Uiso   1.00
O184   O     0.50000   0.20489   0.31547   0.00000  Uiso   1.00
O185   O     0.50000   0.12845   0.18453   0.00000  Uiso   1.00
O186   O     0.56621   0.03080   0.34717   0.00000  Uiso   1.00
Zn187  Zn    0.50000   0.21771   0.25000   0.00000  Uiso   1.00
Zn188  Zn    0.50000   0.11563   0.25000   0.00000  Uiso   1.00
C189   C     0.75341   0.16669   0.24992   0.00000  Uiso   1.00
C190   C     0.97787   0.20534   0.23740   0.00000  Uiso   1.00
C191   C     0.97944   0.12795   0.26261   0.00000  Uiso   1.00
C192   C     0.68724   0.20541   0.23745   0.00000  Uiso   1.00
C193   C     0.84643   0.20155   0.04656   0.00000  Uiso   1.00
C194   C     0.82883   0.12930   0.45450   0.00000  Uiso   1.00
C195   C     0.80676   0.20752   0.45096   0.00000  Uiso   1.00
C196   C     0.79588   0.14034   0.04679   0.00000  Uiso   1.00
C197   C     0.85022   0.20121   0.09318   0.00000  Uiso   1.00
C198   C     0.82937   0.12760   0.40838   0.00000  Uiso   1.00
C199   C     0.81496   0.20820   0.40584   0.00000  Uiso   1.00
C200   C     0.91326   0.16665   0.25009   0.00000  Uiso   1.00
C201   C     0.80637   0.13412   0.09181   0.00000  Uiso   1.00
C202   C     0.83099   0.16645   0.11560   0.00000  Uiso   1.00
C203   C     0.82587   0.16776   0.38407   0.00000  Uiso   1.00
C204   C     0.81836   0.17170   0.02379   0.00000  Uiso   1.00
C205   C     0.81691   0.16923   0.47555   0.00000  Uiso   1.00
C206   C     0.95746   0.16663   0.25002   0.00000  Uiso   1.00
C207   C     0.70922   0.16672   0.25003   0.00000  Uiso   1.00
C208   C     0.88760   0.04875   0.31246   0.00000  Uiso   1.00
C209   C     0.77877   0.28434   0.18787   0.00000  Uiso   1.00
C210   C     0.76794   0.04809   0.20358   0.00000  Uiso   1.00
C211   C     0.83355   0.16640   0.16392   0.00000  Uiso   1.00
C212   C     0.89735   0.28479   0.29867   0.00000  Uiso   1.00
C213   C     0.90814   0.21419   0.01544   0.00000  Uiso   1.00
C214   C     0.87996   0.08730   0.48911   0.00000  Uiso   1.00
C215   C     0.74887   0.24866   0.46289   0.00000  Uiso   1.00
C216   C     0.72690   0.12445   0.03421   0.00000  Uiso   1.00
C217   C     0.86254   0.27543   0.11146   0.00000  Uiso   1.00
C218   C     0.79685   0.06484   0.38097   0.00000  Uiso   1.00
C219   C     0.84240   0.27729   0.39517   0.00000  Uiso   1.00
C220   C     0.81851   0.06050   0.10316   0.00000  Uiso   1.00
C221   C     0.83178   0.16700   0.33615   0.00000  Uiso   1.00
C222   C     0.86139   0.02422   0.27749   0.00000  Uiso   1.00
C223   C     0.80521   0.30903   0.22261   0.00000  Uiso   1.00
C224   C     0.80375   0.02372   0.22483   0.00000  Uiso   1.00
C225   C     0.86258   0.30949   0.27566   0.00000  Uiso   1.00
C226   C     0.68882   0.12802   0.26269   0.00000  Uiso   1.00
H227   H     0.70577   0.09811   0.27299   0.00000  Uiso   1.00
H228   H     0.90519   0.18699   0.48984   0.00000  Uiso   1.00
H229   H     0.92485   0.20191   0.04643   0.00000  Uiso   1.00
H230   H     0.89851   0.08991   0.45912   0.00000  Uiso   1.00
H231   H     0.88651   0.05395   0.00381   0.00000  Uiso   1.00
H232   H     0.89017   0.11297   0.01458   0.00000  Uiso   1.00
H233   H     0.73692   0.27724   0.48243   0.00000  Uiso   1.00
H234   H     0.73248   0.21791   0.47300   0.00000  Uiso   1.00
H235   H     0.74118   0.25541   0.42705   0.00000  Uiso   1.00
H236   H     0.72111   0.11701   0.06942   0.00000  Uiso   1.00
H237   H     0.70430   0.10452   0.01273   0.00000  Uiso   1.00
H238   H     0.96092   0.23527   0.22714   0.00000  Uiso   1.00
H239   H     0.72068   0.16049   0.02738   0.00000  Uiso   1.00
H240   H     0.82810   0.27819   0.10466   0.00000  Uiso   1.00
H241   H     0.87885   0.29168   0.08447   0.00000  Uiso   1.00
H242   H     0.87059   0.29455   0.14272   0.00000  Uiso   1.00
H243   H     0.80061   0.03540   0.35869   0.00000  Uiso   1.00
H244   H     0.77268   0.08675   0.36423   0.00000  Uiso   1.00
H245   H     0.78589   0.05260   0.41300   0.00000  Uiso   1.00
H246   H     0.84274   0.30417   0.37027   0.00000  Uiso   1.00
H247   H     0.87352   0.26054   0.39595   0.00000  Uiso   1.00
H248   H     0.83755   0.29362   0.42785   0.00000  Uiso   1.00
H249   H     0.96380   0.09793   0.27272   0.00000  Uiso   1.00
H250   H     0.80877   0.03090   0.12161   0.00000  Uiso   1.00
H251   H     0.85153   0.06785   0.11448   0.00000  Uiso   1.00
H252   H     0.81633   0.05124   0.06713   0.00000  Uiso   1.00
H253   H     0.70289   0.23541   0.22732   0.00000  Uiso   1.00
H254   H     0.89544   0.08331   0.30941   0.00000  Uiso   1.00
H255   H     0.77220   0.24944   0.19032   0.00000  Uiso   1.00
H256   H     0.77253   0.07914   0.18691   0.00000  Uiso   1.00
H257   H     0.89164   0.25476   0.31683   0.00000  Uiso   1.00
H258   H     0.92758   0.24096   0.00202   0.00000  Uiso   1.00
N259   N     0.83333   0.28573   0.25000   0.00000  Uiso   1.00
N260   N     0.83333   0.04760   0.25000   0.00000  Uiso   1.00
O261   O     0.77226   0.20487   0.24999   0.00000  Uiso   1.00
O262   O     0.76495   0.30261   0.15405   0.00000  Uiso   1.00
O263   O     0.73234   0.03428   0.20602   0.00000  Uiso   1.00
O264   O     0.93336   0.29743   0.29654   0.00000  Uiso   1.00
O265   O     0.86867   0.23237   0.02346   0.00000  Uiso   1.00
O266   O     0.83670   0.09058   0.47845   0.00000  Uiso   1.00
O267   O     0.79237   0.24551   0.47214   0.00000  Uiso   1.00
O268   O     0.76766   0.11196   0.02393   0.00000  Uiso   1.00
O269   O     0.87678   0.23087   0.11694   0.00000  Uiso   1.00
O270   O     0.83579   0.08671   0.38771   0.00000  Uiso   1.00
O271   O     0.80941   0.24761   0.38245   0.00000  Uiso   1.00
O272   O     0.89441   0.12846   0.25000   0.00000  Uiso   1.00
O273   O     0.79180   0.09673   0.11239   0.00000  Uiso   1.00
O274   O     0.89441   0.20487   0.25000   0.00000  Uiso   1.00
O275   O     0.77226   0.12846   0.24999   0.00000  Uiso   1.00
O276   O     0.83333   0.20489   0.18453   0.00000  Uiso   1.00
O277   O     0.83334   0.12845   0.31547   0.00000  Uiso   1.00
O278   O     0.83334   0.20489   0.31547   0.00000  Uiso   1.00
O279   O     0.83333   0.12845   0.18453   0.00000  Uiso   1.00
O280   O     0.89954   0.03080   0.34717   0.00000  Uiso   1.00
Zn281  Zn    0.83333   0.21771   0.25000   0.00000  Uiso   1.00
Zn282  Zn    0.83333   0.11563   0.25000   0.00000  Uiso   1.00
C283   C     0.08674   0.50002   0.24992   0.00000  Uiso   1.00
C284   C     0.31120   0.53868   0.23740   0.00000  Uiso   1.00
C285   C     0.31278   0.46128   0.26261   0.00000  Uiso   1.00
C286   C     0.02057   0.53874   0.23745   0.00000  Uiso   1.00
C287   C     0.17977   0.53488   0.04656   0.00000  Uiso   1.00
C288   C     0.16217   0.46263   0.45450   0.00000  Uiso   1.00
C289   C     0.14010   0.54085   0.45096   0.00000  Uiso   1.00
C290   C     0.12921   0.47368   0.04679   0.00000  Uiso   1.00
C291   C     0.18356   0.53455   0.09318   0.00000  Uiso   1.00
C292   C     0.16270   0.46093   0.40838   0.00000  Uiso   1.00
C293   C     0.14830   0.54153   0.40584   0.00000  Uiso   1.00
C294   C     0.24660   0.49998   0.25009   0.00000  Uiso   1.00
C295   C     0.13971   0.46745   0.09181   0.00000  Uiso   1.00
C296   C     0.16433   0.49978   0.11560   0.00000  Uiso   1.00
C297   C     0.15921   0.50109   0.38407   0.00000  Uiso   1.00
C298   C     0.15169   0.50503   0.02379   0.00000  Uiso   1.00
C299   C     0.15024   0.50256   0.47555   0.00000  Uiso   1.00
C300   C     0.29079   0.49996   0.25002   0.00000  Uiso   1.00
C301   C     0.04255   0.50005   0.25003   0.00000  Uiso   1.00
C302   C     0.22093   0.38208   0.31246   0.00000  Uiso   1.00
C303   C     0.11210   0.61767   0.18787   0.00000  Uiso   1.00
C304   C     0.10127   0.38142   0.20358   0.00000  Uiso   1.00
C305   C     0.16688   0.49974   0.16392   0.00000  Uiso   1.00
C306   C     0.23069   0.61813   0.29867   0.00000  Uiso   1.00
C307   C     0.24147   0.54753   0.01544   0.00000  Uiso   1.00
C308   C     0.21329   0.42063   0.48911   0.00000  Uiso   1.00
C309   C     0.08220   0.58200   0.46289   0.00000  Uiso   1.00
C310   C     0.06023   0.45778   0.03421   0.00000  Uiso   1.00
C311   C     0.19587   0.60877   0.11146   0.00000  Uiso   1.00
C312   C     0.13018   0.39818   0.38097   0.00000  Uiso   1.00
C313   C     0.17574   0.61063   0.39517   0.00000  Uiso   1.00
C314   C     0.15184   0.39383   0.10316   0.00000  Uiso   1.00
C315   C     0.16512   0.50033   0.33615   0.00000  Uiso   1.00
C316   C     0.19472   0.35756   0.27749   0.00000  Uiso   1.00
C317   C     0.13854   0.64236   0.22261   0.00000  Uiso   1.00
C318   C     0.13708   0.35706   0.22483   0.00000  Uiso   1.00
C319   C     0.19591   0.64282   0.27566   0.00000  Uiso   1.00
C320   C     0.02215   0.46135   0.26269   0.00000  Uiso   1.00
H321   H     0.03910   0.43144   0.27299   0.00000  Uiso   1.00
H322   H     0.23853   0.52033   0.48984   0.00000  Uiso   1.00
H323   H     0.25819   0.53524   0.04643   0.00000  Uiso   1.00
H324   H     0.23185   0.42324   0.45912   0.00000  Uiso   1.00
H325   H     0.21984   0.38729   0.00381   0.00000  Uiso   1.00
H326   H     0.22351   0.44630   0.01458   0.00000  Uiso   1.00
H327   H     0.07025   0.61057   0.48243   0.00000  Uiso   1.00
H328   H     0.06581   0.55124   0.47300   0.00000  Uiso   1.00
H329   H     0.07452   0.58874   0.42705   0.00000  Uiso   1.00
H330   H     0.05444   0.45034   0.06942   0.00000  Uiso   1.00
H331   H     0.03763   0.43785   0.01273   0.00000  Uiso   1.00
H332   H     0.29425   0.56861   0.22714   0.00000  Uiso   1.00
H333   H     0.05402   0.49383   0.02738   0.00000  Uiso   1.00
H334   H     0.16143   0.61152   0.10466   0.00000  Uiso   1.00
H335   H     0.21219   0.62502   0.08447   0.00000  Uiso   1.00
H336   H     0.20393   0.62788   0.14272   0.00000  Uiso   1.00
H337   H     0.13394   0.36873   0.35869   0.00000  Uiso   1.00
H338   H     0.10601   0.42008   0.36423   0.00000  Uiso   1.00
H339   H     0.11922   0.38593   0.41300   0.00000  Uiso   1.00
H340   H     0.17607   0.63750   0.37027   0.00000  Uiso   1.00
H341   H     0.20685   0.59387   0.39595   0.00000  Uiso   1.00
H342   H     0.17088   0.62695   0.42785   0.00000  Uiso   1.00
H343   H     0.29713   0.43127   0.27272   0.00000  Uiso   1.00
H344   H     0.14211   0.36424   0.12161   0.00000  Uiso   1.00
H345   H     0.18486   0.40119   0.11448   0.00000  Uiso   1.00
H346   H     0.14966   0.38458   0.06713   0.00000  Uiso   1.00
H347   H     0.03622   0.56875   0.22732   0.00000  Uiso   1.00
H348   H     0.22878   0.41664   0.30941   0.00000  Uiso   1.00
H349   H     0.10553   0.58277   0.19032   0.00000  Uiso   1.00
H350   H     0.10586   0.41248   0.18691   0.00000  Uiso   1.00
H351   H     0.22497   0.58809   0.31683   0.00000  Uiso   1.00
H352   H     0.26091   0.57429   0.00202   0.00000  Uiso   1.00
N353   N     0.16667   0.61907   0.25000   0.00000  Uiso   1.00
N354   N     0.16667   0.38093   0.25000   0.00000  Uiso   1.00
O355   O     0.10559   0.53821   0.24999   0.00000  Uiso   1.00
O356   O     0.09829   0.63594   0.15405   0.00000  Uiso   1.00
O357   O     0.06567   0.36761   0.20602   0.00000  Uiso   1.00
O358   O     0.26670   0.63076   0.29654   0.00000  Uiso   1.00
O359   O     0.20200   0.56570   0.02346   0.00000  Uiso   1.00
O360   O     0.17003   0.42391   0.47845   0.00000  Uiso   1.00
O361   O     0.12570   0.57884   0.47214   0.00000  Uiso   1.00
O362   O     0.10100   0.44529   0.02393   0.00000  Uiso   1.00
O363   O     0.21011   0.56420   0.11694   0.00000  Uiso   1.00
O364   O     0.16913   0.42004   0.38771   0.00000  Uiso   1.00
O365   O     0.14275   0.58094   0.38245   0.00000  Uiso   1.00
O366   O     0.22774   0.46179   0.25000   0.00000  Uiso   1.00
O367   O     0.12514   0.43006   0.11239   0.00000  Uiso   1.00
O368   O     0.22774   0.53821   0.25000   0.00000  Uiso   1.00
O369   O     0.10559   0.46179   0.24999   0.00000  Uiso   1.00
O370   O     0.16666   0.53822   0.18453   0.00000  Uiso   1.00
O371   O     0.16667   0.46178   0.31547   0.00000  Uiso   1.00
O372   O     0.16667   0.53822   0.31547   0.00000  Uiso   1.00
O373   O     0.16666   0.46178   0.18453   0.00000  Uiso   1.00
O374   O     0.23287   0.36414   0.34717   0.00000  Uiso   1.00
Zn375  Zn    0.16667   0.55104   0.25000   0.00000  Uiso   1.00
Zn376  Zn    0.16667   0.44896   0.25000   0.00000  Uiso   1.00
C377   C     0.42007   0.50002   0.24992   0.00000  Uiso   1.00
C378   C     0.64453   0.53868   0.23740   0.00000  Uiso   1.00
C379   C     0.64611   0.46128   0.26261   0.00000  Uiso   1.00
C380   C     0.35391   0.53874   0.23745   0.00000  Uiso   1.00
C381   C     0.51310   0.53488   0.04656   0.00000  Uiso   1.00
C382   C     0.49550   0.46263   0.45450   0.00000  Uiso   1.00
C383   C     0.47343   0.54085   0.45096   0.00000  Uiso   1.00
C384   C     0.46254   0.47368   0.04679   0.00000  Uiso   1.00
C385   C     0.51689   0.53455   0.09318   0.00000  Uiso   1.00
C386   C     0.49603   0.46093   0.40838   0.00000  Uiso   1.00
C387   C     0.48163   0.54153   0.40584   0.00000  Uiso   1.00
C388   C     0.57993   0.49998   0.25009   0.00000  Uiso   1.00
C389   C     0.47304   0.46745   0.09181   0.00000  Uiso   1.00
C390   C     0.49766   0.49978   0.11560   0.00000  Uiso   1.00
C391   C     0.49254   0.50109   0.38407   0.00000  Uiso   1.00
C392   C     0.48503   0.50503   0.02379   0.00000  Uiso   1.00
C393   C     0.48357   0.50256   0.47555   0.00000  Uiso   1.00
C394   C     0.62413   0.49996   0.25002   0.00000  Uiso   1.00
C395   C     0.37589   0.50005   0.25003   0.00000  Uiso   1.00
C396   C     0.55427   0.38208   0.31246   0.00000  Uiso   1.00
C397   C     0.44544   0.61767   0.18787   0.00000  Uiso   1.00
C398   C     0.43461   0.38142   0.20358   0.00000  Uiso   1.00
C399   C     0.50021   0.49974   0.16392   0.00000  Uiso   1.00
C400   C     0.56402   0.61813   0.29867   0.00000  Uiso   1.00
C401   C     0.57480   0.54753   0.01544   0.00000  Uiso   1.00
C402   C     0.54662   0.42063   0.48911   0.00000  Uiso   1.00
C403   C     0.41554   0.58200   0.46289   0.00000  Uiso   1.00
C404   C     0.39357   0.45778   0.03421   0.00000  Uiso   1.00
C405   C     0.52921   0.60877   0.11146   0.00000  Uiso   1.00
C406   C     0.46351   0.39818   0.38097   0.00000  Uiso   1.00
C407   C     0.50907   0.61063   0.39517   0.00000  Uiso   1.00
C408   C     0.48517   0.39383   0.10316   0.00000  Uiso   1.00
C409   C     0.49845   0.50033   0.33615   0.00000  Uiso   1.00
C410   C     0.52806   0.35756   0.27749   0.00000  Uiso   1.00
C411   C     0.47187   0.64236   0.22261   0.00000  Uiso   1.00
C412   C     0.47041   0.35706   0.22483   0.00000  Uiso   1.00
C413   C     0.52924   0.64282   0.27566   0.00000  Uiso   1.00
C414   C     0.35548   0.46135   0.26269   0.00000  Uiso   1.00
H415   H     0.37243   0.43144   0.27299   0.00000  Uiso   1.00
H416   H     0.57186   0.52033   0.48984   0.00000  Uiso   1.00
H417   H     0.59152   0.53524   0.04643   0.00000  Uiso   1.00
H418   H     0.56518   0.42324   0.45912   0.00000  Uiso   1.00
H419   H     0.55318   0.38729   0.00381   0.00000  Uiso   1.00
H420   H     0.55684   0.44630   0.01458   0.00000  Uiso   1.00
H421   H     0.40358   0.61057   0.48243   0.00000  Uiso   1.00
H422   H     0.39914   0.55124   0.47300   0.00000  Uiso   1.00
H423   H     0.40785   0.58874   0.42705   0.00000  Uiso   1.00
H424   H     0.38778   0.45034   0.06942   0.00000  Uiso   1.00
H425   H     0.37096   0.43785   0.01273   0.00000  Uiso   1.00
H426   H     0.62759   0.56861   0.22714   0.00000  Uiso   1.00
H427   H     0.38735   0.49383   0.02738   0.00000  Uiso   1.00
H428   H     0.49476   0.61152   0.10466   0.00000  Uiso   1.00
H429   H     0.54552   0.62502   0.08447   0.00000  Uiso   1.00
H430   H     0.53726   0.62788   0.14272   0.00000  Uiso   1.00
H431   H     0.46727   0.36873   0.35869   0.00000  Uiso   1.00
H432   H     0.43935   0.42008   0.36423   0.00000  Uiso   1.00
H433   H     0.45256   0.38593   0.41300   0.00000  Uiso   1.00
H434   H     0.50941   0.63750   0.37027   0.00000  Uiso   1.00
H435   H     0.54018   0.59387   0.39595   0.00000  Uiso   1.00
H436   H     0.50422   0.62695   0.42785   0.00000  Uiso   1.00
H437   H     0.63047   0.43127   0.27272   0.00000  Uiso   1.00
H438   H     0.47544   0.36424   0.12161   0.00000  Uiso   1.00
H439   H     0.51819   0.40119   0.11448   0.00000  Uiso   1.00
H440   H     0.48299   0.38458   0.06713   0.00000  Uiso   1.00
H441   H     0.36956   0.56875   0.22732   0.00000  Uiso   1.00
H442   H     0.56211   0.41664   0.30941   0.00000  Uiso   1.00
H443   H     0.43887   0.58277   0.19032   0.00000  Uiso   1.00
H444   H     0.43920   0.41248   0.18691   0.00000  Uiso   1.00
H445   H     0.55830   0.58809   0.31683   0.00000  Uiso   1.00
H446   H     0.59424   0.57429   0.00202   0.00000  Uiso   1.00
N447   N     0.50000   0.61907   0.25000   0.00000  Uiso   1.00
N448   N     0.50000   0.38093   0.25000   0.00000  Uiso   1.00
O449   O     0.43892   0.53821   0.24999   0.00000  Uiso   1.00
O450   O     0.43162   0.63594   0.15405   0.00000  Uiso   1.00
O451   O     0.39900   0.36761   0.20602   0.00000  Uiso   1.00
O452   O     0.60003   0.63076   0.29654   0.00000  Uiso   1.00
O453   O     0.53534   0.56570   0.02346   0.00000  Uiso   1.00
O454   O     0.50336   0.42391   0.47845   0.00000  Uiso   1.00
O455   O     0.45903   0.57884   0.47214   0.00000  Uiso   1.00
O456   O     0.43433   0.44529   0.02393   0.00000  Uiso   1.00
O457   O     0.54344   0.56420   0.11694   0.00000  Uiso   1.00
O458   O     0.50246   0.42004   0.38771   0.00000  Uiso   1.00
O459   O     0.47608   0.58094   0.38245   0.00000  Uiso   1.00
O460   O     0.56108   0.46179   0.25000   0.00000  Uiso   1.00
O461   O     0.45847   0.43006   0.11239   0.00000  Uiso   1.00
O462   O     0.56108   0.53821   0.25000   0.00000  Uiso   1.00
O463   O     0.43892   0.46179   0.24999   0.00000  Uiso   1.00
O464   O     0.50000   0.53822   0.18453   0.00000  Uiso   1.00
O465   O     0.50000   0.46178   0.31547   0.00000  Uiso   1.00
O466   O     0.50000   0.53822   0.31547   0.00000  Uiso   1.00
O467   O     0.50000   0.46178   0.18453   0.00000  Uiso   1.00
O468   O     0.56621   0.36414   0.34717   0.00000  Uiso   1.00
Zn469  Zn    0.50000   0.55104   0.25000   0.00000  Uiso   1.00
Zn470  Zn    0.50000   0.44896   0.25000   0.00000  Uiso   1.00
C471   C     0.75341   0.50002   0.24992   0.00000  Uiso   1.00
C472   C     0.97787   0.53868   0.23740   0.00000  Uiso   1.00
C473   C     0.97944   0.46128   0.26261   0.00000  Uiso   1.00
C474   C     0.68724   0.53874   0.23745   0.00000  Uiso   1.00
C475   C     0.84643   0.53488   0.04656   0.00000  Uiso   1.00
C476   C     0.82883   0.46263   0.45450   0.00000  Uiso   1.00
C477   C     0.80676   0.54085   0.45096   0.00000  Uiso   1.00
C478   C     0.79588   0.47368   0.04679   0.00000  Uiso   1.00
C479   C     0.85022   0.53455   0.09318   0.00000  Uiso   1.00
C480   C     0.82937   0.46093   0.40838   0.00000  Uiso   1.00
C481   C     0.81496   0.54153   0.40584   0.00000  Uiso   1.00
C482   C     0.91326   0.49998   0.25009   0.00000  Uiso   1.00
C483   C     0.80637   0.46745   0.09181   0.00000  Uiso   1.00
C484   C     0.83099   0.49978   0.11560   0.00000  Uiso   1.00
C485   C     0.82587   0.50109   0.38407   0.00000  Uiso   1.00
C486   C     0.81836   0.50503   0.02379   0.00000  Uiso   1.00
C487   C     0.81691   0.50256   0.47555   0.00000  Uiso   1.00
C488   C     0.95746   0.49996   0.25002   0.00000  Uiso   1.00
C489   C     0.70922   0.50005   0.25003   0.00000  Uiso   1.00
C490   C     0.88760   0.38208   0.31246   0.00000  Uiso   1.00
C491   C     0.77877   0.61767   0.18787   0.00000  Uiso   1.00
C492   C     0.76794   0.38142   0.20358   0.00000  Uiso   1.00
C493   C     0.83355   0.49974   0.16392   0.00000  Uiso   1.00
C494   C     0.89735   0.61813   0.29867   0.00000  Uiso   1.00
C495   C     0.90814   0.54753   0.01544   0.00000  Uiso   1.00
C496   C     0.87996   0.42063   0.48911   0.00000  Uiso   1.00
C497   C     0.74887   0.58200   0.46289   0.00000  Uiso   1.00
C498   C     0.72690   0.45778   0.03421   0.00000  Uiso   1.00
C499   C     0.86254   0.60877   0.11146   0.00000  Uiso   1.00
C500   C     0.79685   0.39818   0.38097   0.00000  Uiso   1.00
C501   C     0.84240   0.61063   0.39517   0.00000  Uiso   1.00
C502   C     0.81851   0.39383   0.10316   0.00000  Uiso   1.00
C503   C     0.83178   0.50033   0.33615   0.00000  Uiso   1.00
C504   C     0.86139   0.35756   0.27749   0.00000  Uiso   1.00
C505   C     0.80521   0.64236   0.22261   0.00000  Uiso   1.00
C506   C     0.80375   0.35706   0.22483   0.00000  Uiso   1.00
C507   C     0.86258   0.64282   0.27566   0.00000  Uiso   1.00
C508   C     0.68882   0.46135   0.26269   0.00000  Uiso   1.00
H509   H     0.70577   0.43144   0.27299   0.00000  Uiso   1.00
H510   H     0.90519   0.52033   0.48984   0.00000  Uiso   1.00
H511   H     0.92485   0.53524   0.04643   0.00000  Uiso   1.00
H512   H     0.89851   0.42324   0.45912   0.00000  Uiso   1.00
H513   H     0.88651   0.38729   0.00381   0.00000  Uiso   1.00
H514   H     0.89017   0.44630   0.01458   0.00000  Uiso   1.00
H515   H     0.73692   0.61057   0.48243   0.00000  Uiso   1.00
H516   H     0.73248   0.55124   0.47300   0.00000  Uiso   1.00
H517   H     0.74118   0.58874   0.42705   0.00000  Uiso   1.00
H518   H     0.72111   0.45034   0.06942   0.00000  Uiso   1.00
H519   H     0.70430   0.43785   0.01273   0.00000  Uiso   1.00
H520   H     0.96092   0.56861   0.22714   0.00000  Uiso   1.00
H521   H     0.72068   0.49383   0.02738   0.00000  Uiso   1.00
H522   H     0.82810   0.61152   0.10466   0.00000  Uiso   1.00
H523   H     0.87885   0.62502   0.08447   0.00000  Uiso   1.00
H524   H     0.87059   0.62788   0.14272   0.00000  Uiso   1.00
H525   H     0.80061   0.36873   0.35869   0.00000  Uiso   1.00
H526   H     0.77268   0.42008   0.36423   0.00000  Uiso   1.00
H527   H     0.78589   0.38593   0.41300   0.00000  Uiso   1.00
H528   H     0.84274   0.63750   0.37027   0.00000  Uiso   1.00
H529   H     0.87352   0.59387   0.39595   0.00000  Uiso   1.00
H530   H     0.83755   0.62695   0.42785   0.00000  Uiso   1.00
H531   H     0.96380   0.43127   0.27272   0.00000  Uiso   1.00
H532   H     0.80877   0.36424   0.12161   0.00000  Uiso   1.00
H533   H     0.85153   0.40119   0.11448   0.00000  Uiso   1.00
H534   H     0.81633   0.38458   0.06713   0.00000  Uiso   1.00
H535   H     0.70289   0.56875   0.22732   0.00000  Uiso   1.00
H536   H     0.89544   0.41664   0.30941   0.00000  Uiso   1.00
H537   H     0.77220   0.58277   0.19032   0.00000  Uiso   1.00
H538   H     0.77253   0.41248   0.18691   0.00000  Uiso   1.00
H539   H     0.89164   0.58809   0.31683   0.00000  Uiso   1.00
H540   H     0.92758   0.57429   0.00202   0.00000  Uiso   1.00
N541   N     0.83333   0.61907   0.25000   0.00000  Uiso   1.00
N542   N     0.83333   0.38093   0.25000   0.00000  Uiso   1.00
O543   O     0.77226   0.53821   0.24999   0.00000  Uiso   1.00
O544   O     0.76495   0.63594   0.15405   0.00000  Uiso   1.00
O545   O     0.73234   0.36761   0.20602   0.00000  Uiso   1.00
O546   O     0.93336   0.63076   0.29654   0.00000  Uiso   1.00
O547   O     0.86867   0.56570   0.02346   0.00000  Uiso   1.00
O548   O     0.83670   0.42391   0.47845   0.00000  Uiso   1.00
O549   O     0.79237   0.57884   0.47214   0.00000  Uiso   1.00
O550   O     0.76766   0.44529   0.02393   0.00000  Uiso   1.00
O551   O     0.87678   0.56420   0.11694   0.00000  Uiso   1.00
O552   O     0.83579   0.42004   0.38771   0.00000  Uiso   1.00
O553   O     0.80941   0.58094   0.38245   0.00000  Uiso   1.00
O554   O     0.89441   0.46179   0.25000   0.00000  Uiso   1.00
O555   O     0.79180   0.43006   0.11239   0.00000  Uiso   1.00
O556   O     0.89441   0.53821   0.25000   0.00000  Uiso   1.00
O557   O     0.77226   0.46179   0.24999   0.00000  Uiso   1.00
O558   O     0.83333   0.53822   0.18453   0.00000  Uiso   1.00
O559   O     0.83334   0.46178   0.31547   0.00000  Uiso   1.00
O560   O     0.83334   0.53822   0.31547   0.00000  Uiso   1.00
O561   O     0.83333   0.46178   0.18453   0.00000  Uiso   1.00
O562   O     0.89954   0.36414   0.34717   0.00000  Uiso   1.00
Zn563  Zn    0.83333   0.55104   0.25000   0.00000  Uiso   1.00
Zn564  Zn    0.83333   0.44896   0.25000   0.00000  Uiso   1.00
C565   C     0.08674   0.83335   0.24992   0.00000  Uiso   1.00
C566   C     0.31120   0.87201   0.23740   0.00000  Uiso   1.00
C567   C     0.31278   0.79461   0.26261   0.00000  Uiso   1.00
C568   C     0.02057   0.87207   0.23745   0.00000  Uiso   1.00
C569   C     0.17977   0.86821   0.04656   0.00000  Uiso   1.00
C570   C     0.16217   0.79597   0.45450   0.00000  Uiso   1.00
C571   C     0.14010   0.87419   0.45096   0.00000  Uiso   1.00
C572   C     0.12921   0.80701   0.04679   0.00000  Uiso   1.00
C573   C     0.18356   0.86788   0.09318   0.00000  Uiso   1.00
C574   C     0.16270   0.79427   0.40838   0.00000  Uiso   1.00
C575   C     0.14830   0.87487   0.40584   0.00000  Uiso   1.00
C576   C     0.24660   0.83331   0.25009   0.00000  Uiso   1.00
C577   C     0.13971   0.80078   0.09181   0.00000  Uiso   1.00
C578   C     0.16433   0.83311   0.11560   0.00000  Uiso   1.00
C579   C     0.15921   0.83443   0.38407   0.00000  Uiso   1.00
C580   C     0.15169   0.83837   0.02379   0.00000  Uiso   1.00
C581   C     0.15024   0.83589   0.47555   0.00000  Uiso   1.00
C582   C     0.29079   0.83330   0.25002   0.00000  Uiso   1.00
C583   C     0.04255   0.83339   0.25003   0.00000  Uiso   1.00
C584   C     0.22093   0.71542   0.31246   0.00000  Uiso   1.00
C585   C     0.11210   0.95101   0.18787   0.00000  Uiso   1.00
C586   C     0.10127   0.71475   0.20358   0.00000  Uiso   1.00
C587   C     0.16688   0.83307   0.16392   0.00000  Uiso   1.00
C588   C     0.23069   0.95146   0.29867   0.00000  Uiso   1.00
C589   C     0.24147   0.88086   0.01544   0.00000  Uiso   1.00
C590   C     0.21329   0.75396   0.48911   0.00000  Uiso   1.00
C591   C     0.08220   0.91533   0.46289   0.00000  Uiso   1.00
C592   C     0.06023   0.79112   0.03421   0.00000  Uiso   1.00
C593   C     0.19587   0.94210   0.11146   0.00000  Uiso   1.00
C594   C     0.13018   0.73151   0.38097   0.00000  Uiso   1.00
C595   C     0.17574   0.94396   0.39517   0.00000  Uiso   1.00
C596   C     0.15184   0.72717   0.10316   0.00000  Uiso   1.00
C597   C     0.16512   0.83367   0.33615   0.00000  Uiso   1.00
C598   C     0.19472   0.69089   0.27749   0.00000  Uiso   1.00
C599   C     0.13854   0.97570   0.22261   0.00000  Uiso   1.00
C600   C     0.13708   0.69039   0.22483   0.00000  Uiso   1.00
C601   C     0.19591   0.97615   0.27566   0.00000  Uiso   1.00
C602   C     0.02215   0.79469   0.26269   0.00000  Uiso   1.00
H603   H     0.03910   0.76478   0.27299   0.00000  Uiso   1.00
H604   H     0.23853   0.85366   0.48984   0.00000  Uiso   1.00
H605   H     0.25819   0.86858   0.04643   0.00000  Uiso   1.00
H606   H     0.23185   0.75657   0.45912   0.00000  Uiso   1.00
H607   H     0.21984   0.72062   0.00381   0.00000  Uiso   1.00
H608   H     0.22351   0.77964   0.01458   0.00000  Uiso   1.00
H609   H     0.07025   0.94390   0.48243   0.00000  Uiso   1.00
H610   H     0.06581   0.88457   0.47300   0.00000  Uiso   1.00
H611   H     0.07452   0.92207   0.42705   0.00000  Uiso   1.00
H612   H     0.05444   0.78367   0.06942   0.00000  Uiso   1.00
H613   H     0.03763   0.77118   0.01273   0.00000  Uiso   1.00
H614   H     0.29425   0.90194   0.22714   0.00000  Uiso   1.00
H615   H     0.05402   0.82716   0.02738   0.00000  Uiso   1.00
H616   H     0.16143   0.94485   0.10466   0.00000  Uiso   1.00
H617   H     0.21219   0.95835   0.08447   0.00000  Uiso   1.00
H618   H     0.20393   0.96121   0.14272   0.00000  Uiso   1.00
H619   H     0.13394   0.70206   0.35869   0.00000  Uiso   1.00
H620   H     0.10601   0.75342   0.36423   0.00000  Uiso   1.00
H621   H     0.11922   0.71926   0.41300   0.00000  Uiso   1.00
H622   H     0.17607   0.97084   0.37027   0.00000  Uiso   1.00
H623   H     0.20685   0.92720   0.39595   0.00000  Uiso   1.00
H624   H     0.17088   0.96029   0.42785   0.00000  Uiso   1.00
H625   H     0.29713   0.76460   0.27272   0.00000  Uiso   1.00
H626   H     0.14211   0.69757   0.12161   0.00000  Uiso   1.00
H627   H     0.18486   0.73452   0.11448   0.00000  Uiso   1.00
H628   H     0.14966   0.71791   0.06713   0.00000  Uiso   1.00
H629   H     0.03622   0.90208   0.22732   0.00000  Uiso   1.00
H630   H     0.22878   0.74997   0.30941   0.00000  Uiso   1.00
H631   H     0.10553   0.91610   0.19032   0.00000  Uiso   1.00
H632   H     0.10586   0.74581   0.18691   0.00000  Uiso   1.00
H633   H     0.22497   0.92142   0.31683   0.00000  Uiso   1.00
H634   H     0.26091   0.90763   0.00202   0.00000  Uiso   1.00
N635   N     0.16667   0.95240   0.25000   0.00000  Uiso   1.00
N636   N     0.16667   0.71427   0.25000   0.00000  Uiso   1.00
O637   O     0.10559   0.87154   0.24999   0.00000  Uiso   1.00
O638   O     0.09829   0.96927   0.15405   0.00000  Uiso   1.00
O639   O     0.06567   0.70095   0.20602   0.00000  Uiso   1.00
O640   O     0.26670   0.96410   0.29654   0.00000  Uiso   1.00
O641   O     0.20200   0.89904   0.02346   0.00000  Uiso   1.00
O642   O     0.17003   0.75725   0.47845   0.00000  Uiso   1.00
O643   O     0.12570   0.91217   0.47214   0.00000  Uiso   1.00
O644   O     0.10100   0.77863   0.02393   0.00000  Uiso   1.00
O645   O     0.21011   0.89753   0.11694   0.00000  Uiso   1.00
O646   O     0.16913   0.75337   0.38771   0.00000  Uiso   1.00
O647   O     0.14275   0.91427   0.38245   0.00000  Uiso   1.00
O648   O     0.22774   0.79513   0.25000   0.00000  Uiso   1.00
O649   O     0.12514   0.76340   0.11239   0.00000  Uiso   1.00
O650   O     0.22774   0.87154   0.25000   0.00000  Uiso   1.00
O651   O     0.10559   0.79513   0.24999   0.00000  Uiso   1.00
O652   O     0.16666   0.87155   0.18453   0.00000  Uiso   1.00
O653   O     0.16667   0.79511   0.31547   0.00000  Uiso   1.00
O654   O     0.16667   0.87155   0.31547   0.00000  Uiso   1.00
O655   O     0.16666   0.79511   0.18453   0.00000  Uiso   1.00
O656   O     0.23287   0.69747   0.34717   0.00000  Uiso   1.00
Zn657  Zn    0.16667   0.88437   0.25000   0.00000  Uiso   1.00
Zn658  Zn    0.16667   0.78229   0.25000   0.00000  Uiso   1.00
C659   C     0.42007   0.83335   0.24992   0.00000  Uiso   1.00
C660   C     0.64453   0.87201   0.23740   0.00000  Uiso   1.00
C661   C     0.64611   0.79461   0.26261   0.00000  Uiso   1.00
C662   C     0.35391   0.87207   0.23745   0.00000  Uiso   1.00
C663   C     0.51310   0.86821   0.04656   0.00000  Uiso   1.00
C664   C     0.49550   0.79597   0.45450   0.00000  Uiso   1.00
C665   C     0.47343   0.87419   0.45096   0.00000  Uiso   1.00
C666   C     0.46254   0.80701   0.04679   0.00000  Uiso   1.00
C667   C     0.51689   0.86788   0.09318   0.00000  Uiso   1.00
C668   C     0.49603   0.79427   0.40838   0.00000  Uiso   1.00
C669   C     0.48163   0.87487   0.40584   0.00000  Uiso   1.00
C670   C     0.57993   0.83331   0.25009   0.00000  Uiso   1.00
C671   C     0.47304   0.80078   0.09181   0.00000  Uiso   1.00
C672   C     0.49766   0.83311   0.11560   0.00000  Uiso   1.00
C673   C     0.49254   0.83443   0.38407   0.00000  Uiso   1.00
C674   C     0.48503   0.83837   0.02379   0.00000  Uiso   1.00
C675   C     0.48357   0.83589   0.47555   0.00000  Uiso   1.00
C676   C     0.62413   0.83330   0.25002   0.00000  Uiso   1.00
C677   C     0.37589   0.83339   0.25003   0.00000  Uiso   1.00
C678   C     0.55427   0.71542   0.31246   0.00000  Uiso   1.00
C679   C     0.44544   0.95101   0.18787   0.00000  Uiso   1.00
C680   C     0.43461   0.71475   0.20358   0.00000  Uiso   1.00
C681   C     0.50021   0.83307   0.16392   0.00000  Uiso   1.00
C682   C     0.56402   0.95146   0.29867   0.00000  Uiso   1.00
C683   C     0.57480   0.88086   0.01544   0.00000  Uiso   1.00
C684   C     0.54662   0.75396   0.48911   0.00000  Uiso   1.00
C685   C     0.41554   0.91533   0.46289   0.00000  Uiso   1.00
C686   C     0.39357   0.79112   0.03421   0.00000  Uiso   1.00
C687   C     0.52921   0.94210   0.11146   0.00000  Uiso   1.00
C688   C     0.46351   0.73151   0.38097   0.00000  Uiso   1.00
C689   C     0.50907   0.94396   0.39517   0.00000  Uiso   1.00
C690   C     0.48517   0.72717   0.10316   0.00000  Uiso   1.00
C691   C     0.49845   0.83367   0.33615   0.00000  Uiso   1.00
C692   C     0.52806   0.69089   0.27749   0.00000  Uiso   1.00
C693   C     0.47187   0.97570   0.22261   0.00000  Uiso   1.00
C694   C     0.47041   0.69039   0.22483   0.00000  Uiso   1.00
C695   C     0.52924   0.97615   0.27566   0.00000  Uiso   1.00
C696   C     0.35548   0.79469   0.26269   0.00000  Uiso   1.00
H697   H     0.37243   0.76478   0.27299   0.00000  Uiso   1.00
H698   H     0.57186   0.85366   0.48984   0.00000  Uiso   1.00
H699   H     0.59152   0.86858   0.04643   0.00000  Uiso   1.00
H700   H     0.56518   0.75657   0.45912   0.00000  Uiso   1.00
H701   H     0.55318   0.72062   0.00381   0.00000  Uiso   1.00
H702   H     0.55684   0.77964   0.01458   0.00000  Uiso   1.00
H703   H     0.40358   0.94390   0.48243   0.00000  Uiso   1.00
H704   H     0.39914   0.88457   0.47300   0.00000  Uiso   1.00
H705   H     0.40785   0.92207   0.42705   0.00000  Uiso   1.00
H706   H     0.38778   0.78367   0.06942   0.00000  Uiso   1.00
H707   H     0.37096   0.77118   0.01273   0.00000  Uiso   1.00
H708   H     0.62759   0.90194   0.22714   0.00000  Uiso   1.00
H709   H     0.38735   0.82716   0.02738   0.00000  Uiso   1.00
H710   H     0.49476   0.94485   0.10466   0.00000  Uiso   1.00
H711   H     0.54552   0.95835   0.08447   0.00000  Uiso   1.00
H712   H     0.53726   0.96121   0.14272   0.00000  Uiso   1.00
H713   H     0.46727   0.70206   0.35869   0.00000  Uiso   1.00
H714   H     0.43935   0.75342   0.36423   0.00000  Uiso   1.00
H715   H     0.45256   0.71926   0.41300   0.00000  Uiso   1.00
H716   H     0.50941   0.97084   0.37027   0.00000  Uiso   1.00
H717   H     0.54018   0.92720   0.39595   0.00000  Uiso   1.00
H718   H     0.50422   0.96029   0.42785   0.00000  Uiso   1.00
H719   H     0.63047   0.76460   0.27272   0.00000  Uiso   1.00
H720   H     0.47544   0.69757   0.12161   0.00000  Uiso   1.00
H721   H     0.51819   0.73452   0.11448   0.00000  Uiso   1.00
H722   H     0.48299   0.71791   0.06713   0.00000  Uiso   1.00
H723   H     0.36956   0.90208   0.22732   0.00000  Uiso   1.00
H724   H     0.56211   0.74997   0.30941   0.00000  Uiso   1.00
H725   H     0.43887   0.91610   0.19032   0.00000  Uiso   1.00
H726   H     0.43920   0.74581   0.18691   0.00000  Uiso   1.00
H727   H     0.55830   0.92142   0.31683   0.00000  Uiso   1.00
H728   H     0.59424   0.90763   0.00202   0.00000  Uiso   1.00
N729   N     0.50000   0.95240   0.25000   0.00000  Uiso   1.00
N730   N     0.50000   0.71427   0.25000   0.00000  Uiso   1.00
O731   O     0.43892   0.87154   0.24999   0.00000  Uiso   1.00
O732   O     0.43162   0.96927   0.15405   0.00000  Uiso   1.00
O733   O     0.39900   0.70095   0.20602   0.00000  Uiso   1.00
O734   O     0.60003   0.96410   0.29654   0.00000  Uiso   1.00
O735   O     0.53534   0.89904   0.02346   0.00000  Uiso   1.00
O736   O     0.50336   0.75725   0.47845   0.00000  Uiso   1.00
O737   O     0.45903   0.91217   0.47214   0.00000  Uiso   1.00
O738   O     0.43433   0.77863   0.02393   0.00000  Uiso   1.00
O739   O     0.54344   0.89753   0.11694   0.00000  Uiso   1.00
O740   O     0.50246   0.75337   0.38771   0.00000  Uiso   1.00
O741   O     0.47608   0.91427   0.38245   0.00000  Uiso   1.00
O742   O     0.56108   0.79513   0.25000   0.00000  Uiso   1.00
O743   O     0.45847   0.76340   0.11239   0.00000  Uiso   1.00
O744   O     0.56108   0.87154   0.25000   0.00000  Uiso   1.00
O745   O     0.43892   0.79513   0.24999   0.00000  Uiso   1.00
O746   O     0.50000   0.87155   0.18453   0.00000  Uiso   1.00
O747   O     0.50000   0.79511   0.31547   0.00000  Uiso   1.00
O748   O     0.50000   0.87155   0.31547   0.00000  Uiso   1.00
O749   O     0.50000   0.79511   0.18453   0.00000  Uiso   1.00
O750   O     0.56621   0.69747   0.34717   0.00000  Uiso   1.00
Zn751  Zn    0.50000   0.88437   0.25000   0.00000  Uiso   1.00
Zn752  Zn    0.50000   0.78229   0.25000   0.00000  Uiso   1.00
C753   C     0.75341   0.83335   0.24992   0.00000  Uiso   1.00
C754   C     0.97787   0.87201   0.23740   0.00000  Uiso   1.00
C755   C     0.97944   0.79461   0.26261   0.00000  Uiso   1.00
C756   C     0.68724   0.87207   0.23745   0.00000  Uiso   1.00
C757   C     0.84643   0.86821   0.04656   0.00000  Uiso   1.00
C758   C     0.82883   0.79597   0.45450   0.00000  Uiso   1.00
C759   C     0.80676   0.87419   0.45096   0.00000  Uiso   1.00
C760   C     0.79588   0.80701   0.04679   0.00000  Uiso   1.00
C761   C     0.85022   0.86788   0.09318   0.00000  Uiso   1.00
C762   C     0.82937   0.79427   0.40838   0.00000  Uiso   1.00
C763   C     0.81496   0.87487   0.40584   0.00000  Uiso   1.00
C764   C     0.91326   0.83331   0.25009   0.00000  Uiso   1.00
C765   C     0.80637   0.80078   0.09181   0.00000  Uiso   1.00
C766   C     0.83099   0.83311   0.11560   0.00000  Uiso   1.00
C767   C     0.82587   0.83443   0.38407   0.00000  Uiso   1.00
C768   C     0.81836   0.83837   0.02379   0.00000  Uiso   1.00
C769   C     0.81691   0.83589   0.47555   0.00000  Uiso   1.00
C770   C     0.95746   0.83330   0.25002   0.00000  Uiso   1.00
C771   C     0.70922   0.83339   0.25003   0.00000  Uiso   1.00
C772   C     0.88760   0.71542   0.31246   0.00000  Uiso   1.00
C773   C     0.77877   0.95101   0.18787   0.00000  Uiso   1.00
C774   C     0.76794   0.71475   0.20358   0.00000  Uiso   1.00
C775   C     0.83355   0.83307   0.16392   0.00000  Uiso   1.00
C776   C     0.89735   0.95146   0.29867   0.00000  Uiso   1.00
C777   C     0.90814   0.88086   0.01544   0.00000  Uiso   1.00
C778   C     0.87996   0.75396   0.48911   0.00000  Uiso   1.00
C779   C     0.74887   0.91533   0.46289   0.00000  Uiso   1.00
C780   C     0.72690   0.79112   0.03421   0.00000  Uiso   1.00
C781   C     0.86254   0.94210   0.11146   0.00000  Uiso   1.00
C782   C     0.79685   0.73151   0.38097   0.00000  Uiso   1.00
C783   C     0.84240   0.94396   0.39517   0.00000  Uiso   1.00
C784   C     0.81851   0.72717   0.10316   0.00000  Uiso   1.00
C785   C     0.83178   0.83367   0.33615   0.00000  Uiso   1.00
C786   C     0.86139   0.69089   0.27749   0.00000  Uiso   1.00
C787   C     0.80521   0.97570   0.22261   0.00000  Uiso   1.00
C788   C     0.80375   0.69039   0.22483   0.00000  Uiso   1.00
C789   C     0.86258   0.97615   0.27566   0.00000  Uiso   1.00
C790   C     0.68882   0.79469   0.26269   0.00000  Uiso   1.00
H791   H     0.70577   0.76478   0.27299   0.00000  Uiso   1.00
H792   H     0.90519   0.85366   0.48984   0.00000  Uiso   1.00
H793   H     0.92485   0.86858   0.04643   0.00000  Uiso   1.00
H794   H     0.89851   0.75657   0.45912   0.00000  Uiso   1.00
H795   H     0.88651   0.72062   0.00381   0.00000  Uiso   1.00
H796   H     0.89017   0.77964   0.01458   0.00000  Uiso   1.00
H797   H     0.73692   0.94390   0.48243   0.00000  Uiso   1.00
H798   H     0.73248   0.88457   0.47300   0.00000  Uiso   1.00
H799   H     0.74118   0.92207   0.42705   0.00000  Uiso   1.00
H800   H     0.72111   0.78367   0.06942   0.00000  Uiso   1.00
H801   H     0.70430   0.77118   0.01273   0.00000  Uiso   1.00
H802   H     0.96092   0.90194   0.22714   0.00000  Uiso   1.00
H803   H     0.72068   0.82716   0.02738   0.00000  Uiso   1.00
H804   H     0.82810   0.94485   0.10466   0.00000  Uiso   1.00
H805   H     0.87885   0.95835   0.08447   0.00000  Uiso   1.00
H806   H     0.87059   0.96121   0.14272   0.00000  Uiso   1.00
H807   H     0.80061   0.70206   0.35869   0.00000  Uiso   1.00
H808   H     0.77268   0.75342   0.36423   0.00000  Uiso   1.00
H809   H     0.78589   0.71926   0.41300   0.00000  Uiso   1.00
H810   H     0.84274   0.97084   0.37027   0.00000  Uiso   1.00
H811   H     0.87352   0.92720   0.39595   0.00000  Uiso   1.00
H812   H     0.83755   0.96029   0.42785   0.00000  Uiso   1.00
H813   H     0.96380   0.76460   0.27272   0.00000  Uiso   1.00
H814   H     0.80877   0.69757   0.12161   0.00000  Uiso   1.00
H815   H     0.85153   0.73452   0.11448   0.00000  Uiso   1.00
H816   H     0.81633   0.71791   0.06713   0.00000  Uiso   1.00
H817   H     0.70289   0.90208   0.22732   0.00000  Uiso   1.00
H818   H     0.89544   0.74997   0.30941   0.00000  Uiso   1.00
H819   H     0.77220   0.91610   0.19032   0.00000  Uiso   1.00
H820   H     0.77253   0.74581   0.18691   0.00000  Uiso   1.00
H821   H     0.89164   0.92142   0.31683   0.00000  Uiso   1.00
H822   H     0.92758   0.90763   0.00202   0.00000  Uiso   1.00
N823   N     0.83333   0.95240   0.25000   0.00000  Uiso   1.00
N824   N     0.83333   0.71427   0.25000   0.00000  Uiso   1.00
O825   O     0.77226   0.87154   0.24999   0.00000  Uiso   1.00
O826   O     0.76495   0.96927   0.15405   0.00000  Uiso   1.00
O827   O     0.73234   0.70095   0.20602   0.00000  Uiso   1.00
O828   O     0.93336   0.96410   0.29654   0.00000  Uiso   1.00
O829   O     0.86867   0.89904   0.02346   0.00000  Uiso   1.00
O830   O     0.83670   0.75725   0.47845   0.00000  Uiso   1.00
O831   O     0.79237   0.91217   0.47214   0.00000  Uiso   1.00
O832   O     0.76766   0.77863   0.02393   0.00000  Uiso   1.00
O833   O     0.87678   0.89753   0.11694   0.00000  Uiso   1.00
O834   O     0.83579   0.75337   0.38771   0.00000  Uiso   1.00
O835   O     0.80941   0.91427   0.38245   0.00000  Uiso   1.00
O836   O     0.89441   0.79513   0.25000   0.00000  Uiso   1.00
O837   O     0.79180   0.76340   0.11239   0.00000  Uiso   1.00
O838   O     0.89441   0.87154   0.25000   0.00000  Uiso   1.00
O839   O     0.77226   0.79513   0.24999   0.00000  Uiso   1.00
O840   O     0.83333   0.87155   0.18453   0.00000  Uiso   1.00
O841   O     0.83334   0.79511   0.31547   0.00000  Uiso   1.00
O842   O     0.83334   0.87155   0.31547   0.00000  Uiso   1.00
O843   O     0.83333   0.79511   0.18453   0.00000  Uiso   1.00
O844   O     0.89954   0.69747   0.34717   0.00000  Uiso   1.00
Zn845  Zn    0.83333   0.88437   0.25000   0.00000  Uiso   1.00
Zn846  Zn    0.83333   0.78229   0.25000   0.00000  Uiso   1.00
C847   C     0.08674   0.16669   0.74992   0.00000  Uiso   1.00
C848   C     0.31120   0.20534   0.73740   0.00000  Uiso   1.00
C849   C     0.31278   0.12795   0.76261   0.00000  Uiso   1.00
C850   C     0.02057   0.20541   0.73745   0.00000  Uiso   1.00
C851   C     0.17977   0.20155   0.54656   0.00000  Uiso   1.00
C852   C     0.16217   0.12930   0.95450   0.00000  Uiso   1.00
C853   C     0.14010   0.20752   0.95096   0.00000  Uiso   1.00
C854   C     0.12921   0.14034   0.54679   0.00000  Uiso   1.00
C855   C     0.18356   0.20121   0.59318   0.00000  Uiso   1.00
C856   C     0.16270   0.12760   0.90838   0.00000  Uiso   1.00
C857   C     0.14830   0.20820   0.90584   0.00000  Uiso   1.00
C858   C     0.24660   0.16665   0.75009   0.00000  Uiso   1.00
C859   C     0.13971   0.13412   0.59181   0.00000  Uiso   1.00
C860   C     0.16433   0.16645   0.61560   0.00000  Uiso   1.00
C861   C     0.15921   0.16776   0.88407   0.00000  Uiso   1.00
C862   C     0.15169   0.17170   0.52379   0.00000  Uiso   1.00
C863   C     0.15024   0.16923   0.97555   0.00000  Uiso   1.00
C864   C     0.29079   0.16663   0.75002   0.00000  Uiso   1.00
C865   C     0.04255   0.16672   0.75003   0.00000  Uiso   1.00
C866   C     0.22093   0.04875   0.81246   0.00000  Uiso   1.00
C867   C     0.11210   0.28434   0.68787   0.00000  Uiso   1.00
C868   C     0.10127   0.04809   0.70358   0.00000  Uiso   1.00
C869   C     0.16688   0.16640   0.66392   0.00000  Uiso   1.00
C870   C     0.23069   0.28479   0.79867   0.00000  Uiso   1.00
C871   C     0.24147   0.21419   0.51544   0.00000  Uiso   1.00
C872   C     0.21329   0.08730   0.98911   0.00000  Uiso   1.00
C873   C     0.08220   0.24866   0.96289   0.00000  Uiso   1.00
C874   C     0.06023   0.12445   0.53421   0.00000  Uiso   1.00
C875   C     0.19587   0.27543   0.61146   0.00000  Uiso   1.00
C876   C     0.13018   0.06484   0.88097   0.00000  Uiso   1.00
C877   C     0.17574   0.27729   0.89517   0.00000  Uiso   1.00
C878   C     0.15184   0.06050   0.60316   0.00000  Uiso   1.00
C879   C     0.16512   0.16700   0.83615   0.00000  Uiso   1.00
C880   C     0.19472   0.02422   0.77749   0.00000  Uiso   1.00
C881   C     0.13854   0.30903   0.72261   0.00000  Uiso   1.00
C882   C     0.13708   0.02372   0.72483   0.00000  Uiso   1.00
C883   C     0.19591   0.30949   0.77566   0.00000  Uiso   1.00
C884   C     0.02215   0.12802   0.76269   0.00000  Uiso   1.00
H885   H     0.03910   0.09811   0.77299   0.00000  Uiso   1.00
H886   H     0.23853   0.18699   0.98984   0.00000  Uiso   1.00
H887   H     0.25819   0.20191   0.54643   0.00000  Uiso   1.00
H888   H     0.23185   0.08991   0.95912   0.00000  Uiso   1.00
H889   H     0.21984   0.05395   0.50381   0.00000  Uiso   1.00
H890   H     0.22351   0.11297   0.51458   0.00000  Uiso   1.00
H891   H     0.07025   0.27724   0.98243   0.00000  Uiso   1.00
H892   H     0.06581   0.21791   0.97300   0.00000  Uiso   1.00
H893   H     0.07452   0.25541   0.92705   0.00000  Uiso   1.00
H894   H     0.05444   0.11701   0.56942   0.00000  Uiso   1.00
H895   H     0.03763   0.10452   0.51273   0.00000  Uiso   1.00
H896   H     0.29425   0.23527   0.72714   0.00000  Uiso   1.00
H897   H     0.05402   0.16049   0.52738   0.00000  Uiso   1.00
H898   H     0.16143   0.27819   0.60466   0.00000  Uiso   1.00
H899   H     0.21219   0.29168   0.58447   0.00000  Uiso   1.00
H900   H     0.20393   0.29455   0.64272   0.00000  Uiso   1.00
H901   H     0.13394   0.03540   0.85869   0.00000  Uiso   1.00
H902   H     0.10601   0.08675   0.86423   0.00000  Uiso   1.00
H903   H     0.11922   0.05260   0.91300   0.00000  Uiso   1.00
H904   H     0.17607   0.30417   0.87027   0.00000  Uiso   1.00
H905   H     0.20685   0.26054   0.89595   0.00000  Uiso   1.00
H906   H     0.17088   0.29362   0.92785   0.00000  Uiso   1.00
H907   H     0.29713   0.09793   0.77272   0.00000  Uiso   1.00
H908   H     0.14211   0.03090   0.62161   0.00000  Uiso   1.00
H909   H     0.18486   0.06785   0.61448   0.00000  Uiso   1.00
H910   H     0.14966   0.05124   0.56713   0.00000  Uiso   1.00
H911   H     0.03622   0.23541   0.72732   0.00000  Uiso   1.00
H912   H     0.22878   0.08331   0.80941   0.00000  Uiso   1.00
H913   H     0.10553   0.24944   0.69032   0.00000  Uiso   1.00
H914   H     0.10586   0.07914   0.68691   0.00000  Uiso   1.00
H915   H     0.22497   0.25476   0.81683   0.00000  Uiso   1.00
H916   H     0.26091   0.24096   0.50202   0.00000  Uiso   1.00
N917   N     0.16667   0.28573   0.75000   0.00000  Uiso   1.00
N918   N     0.16667   0.04760   0.75000   0.00000  Uiso   1.00
O919   O     0.10559   0.20487   0.74999   0.00000  Uiso   1.00
O920   O     0.09829   0.30261   0.65405   0.00000  Uiso   1.00
O921   O     0.06567   0.03428   0.70602   0.00000  Uiso   1.00
O922   O     0.26670   0.29743   0.79654   0.00000  Uiso   1.00
O923   O     0.20200   0.23237   0.52346   0.00000  Uiso   1.00
O924   O     0.17003   0.09058   0.97845   0.00000  Uiso   1.00
O925   O     0.12570   0.24551   0.97214   0.00000  Uiso   1.00
O926   O     0.10100   0.11196   0.52393   0.00000  Uiso   1.00
O927   O     0.21011   0.23087   0.61694   0.00000  Uiso   1.00
O928   O     0.16913   0.08671   0.88771   0.00000  Uiso   1.00
O929   O     0.14275   0.24761   0.88245   0.00000  Uiso   1.00
O930   O     0.22774   0.12846   0.75000   0.00000  Uiso   1.00
O931   O     0.12514   0.09673   0.61239   0.00000  Uiso   1.00
O932   O     0.22774   0.20487   0.75000   0.00000  Uiso   1.00
O933   O     0.10559   0.12846   0.74999   0.00000  Uiso   1.00
O934   O     0.16666   0.20489   0.68453   0.00000  Uiso   1.00
O935   O     0.16667   0.12845   0.81547   0.00000  Uiso   1.00
O936   O     0.16667   0.20489   0.81547   0.00000  Uiso   1.00
O937   O     0.16666   0.12845   0.68453   0.00000  Uiso   1.00
O938   O     0.23287   0.03080   0.84717   0.00000  Uiso   1.00
Zn939  Zn    0.16667   0.21771   0.75000   0.00000  Uiso   1.00
Zn940  Zn    0.16667   0.11563   0.75000   0.00000  Uiso   1.00
C941   C     0.42007   0.16669   0.74992   0.00000  Uiso   1.00
C942   C     0.64453   0.20534   0.73740   0.00000  Uiso   1.00
C943   C     0.64611   0.12795   0.76261   0.00000  Uiso   1.00
C944   C     0.35391   0.20541   0.73745   0.00000  Uiso   1.00
C945   C     0.51310   0.20155   0.54656   0.00000  Uiso   1.00
C946   C     0.49550   0.12930   0.95450   0.00000  Uiso   1.00
C947   C     0.47343   0.20752   0.95096   0.00000  Uiso   1.00
C948   C     0.46254   0.14034   0.54679   0.00000  Uiso   1.00
C949   C     0.51689   0.20121   0.59318   0.00000  Uiso   1.00
C950   C     0.49603   0.12760   0.90838   0.00000  Uiso   1.00
C951   C     0.48163   0.20820   0.90584   0.00000  Uiso   1.00
C952   C     0.57993   0.16665   0.75009   0.00000  Uiso   1.00
C953   C     0.47304   0.13412   0.59181   0.00000  Uiso   1.00
C954   C     0.49766   0.16645   0.61560   0.00000  Uiso   1.00
C955   C     0.49254   0.16776   0.88407   0.00000  Uiso   1.00
C956   C     0.48503   0.17170   0.52379   0.00000  Uiso   1.00
C957   C     0.48357   0.16923   0.97555   0.00000  Uiso   1.00
C958   C     0.62413   0.16663   0.75002   0.00000  Uiso   1.00
C959   C     0.37589   0.16672   0.75003   0.00000  Uiso   1.00
C960   C     0.55427   0.04875   0.81246   0.00000  Uiso   1.00
C961   C     0.44544   0.28434   0.68787   0.00000  Uiso   1.00
C962   C     0.43461   0.04809   0.70358   0.00000  Uiso   1.00
C963   C     0.50021   0.16640   0.66392   0.00000  Uiso   1.00
C964   C     0.56402   0.28479   0.79867   0.00000  Uiso   1.00
C965   C     0.57480   0.21419   0.51544   0.00000  Uiso   1.00
C966   C     0.54662   0.08730   0.98911   0.00000  Uiso   1.00
C967   C     0.41554   0.24866   0.96289   0.00000  Uiso   1.00
C968   C     0.39357   0.12445   0.53421   0.00000  Uiso   1.00
C969   C     0.52921   0.27543   0.61146   0.00000  Uiso   1.00
C970   C     0.46351   0.06484   0.88097   0.00000  Uiso   1.00
C971   C     0.50907   0.27729   0.89517   0.00000  Uiso   1.00
C972   C     0.48517   0.06050   0.60316   0.00000  Uiso   1.00
C973   C     0.49845   0.16700   0.83615   0.00000  Uiso   1.00
C974   C     0.52806   0.02422   0.77749   0.00000  Uiso   1.00
C975   C     0.47187   0.30903   0.72261   0.00000  Uiso   1.00
C976   C     0.47041   0.02372   0.72483   0.00000  Uiso   1.00
C977   C     0.52924   0.30949   0.77566   0.00000  Uiso   1.00
C978   C     0.35548   0.12802   0.76269   0.00000  Uiso   1.00
H979   H     0.37243   0.09811   0.77299   0.00000  Uiso   1.00
H980   H     0.57186   0.18699   0.98984   0.00000  Uiso   1.00
H981   H     0.59152   0.20191   0.54643   0.00000  Uiso   1.00
H982   H     0.56518   0.08991   0.95912   0.00000  Uiso   1.00
H983   H     0.55318   0.05395   0.50381   0.00000  Uiso   1.00
H984   H     0.55684   0.11297   0.51458   0.00000  Uiso   1.00
H985   H     0.40358   0.27724   0.98243   0.00000  Uiso   1.00
H986   H     0.39914   0.21791   0.97300   0.00000  Uiso   1.00
H987   H     0.40785   0.25541   0.92705   0.00000  Uiso   1.00
H988   H     0.38778   0.11701   0.56942   0.00000  Uiso   1.00
H989   H     0.37096   0.10452   0.51273   0.00000  Uiso   1.00
H990   H     0.62759   0.23527   0.72714   0.00000  Uiso   1.00
H991   H     0.38735   0.16049   0.52738   0.00000  Uiso   1.00
H992   H     0.49476   0.27819   0.60466   0.00000  Uiso   1.00
H993   H     0.54552   0.29168   0.58447   0.00000  Uiso   1.00
H994   H     0.53726   0.29455   0.64272   0.00000  Uiso   1.00
H995   H     0.46727   0.03540   0.85869   0.00000  Uiso   1.00
H996   H     0.43935   0.08675   0.86423   0.00000  Uiso   1.00
H997   H     0.45256   0.05260   0.91300   0.00000  Uiso   1.00
H998   H     0.50941   0.30417   0.87027   0.00000  Uiso   1.00
H999   H     0.54018   0.26054   0.89595   0.00000  Uiso   1.00
H1000  H     0.50422   0.29362   0.92785   0.00000  Uiso   1.00
H1001  H     0.63047   0.09793   0.77272   0.00000  Uiso   1.00
H1002  H     0.47544   0.03090   0.62161   0.00000  Uiso   1.00
H1003  H     0.51819   0.06785   0.61448   0.00000  Uiso   1.00
H1004  H     0.48299   0.05124   0.56713   0.00000  Uiso   1.00
H1005  H     0.36956   0.23541   0.72732   0.00000  Uiso   1.00
H1006  H     0.56211   0.08331   0.80941   0.00000  Uiso   1.00
H1007  H     0.43887   0.24944   0.69032   0.00000  Uiso   1.00
H1008  H     0.43920   0.07914   0.68691   0.00000  Uiso   1.00
H1009  H     0.55830   0.25476   0.81683   0.00000  Uiso   1.00
H1010  H     0.59424   0.24096   0.50202   0.00000  Uiso   1.00
N1011  N     0.50000   0.28573   0.75000   0.00000  Uiso   1.00
N1012  N     0.50000   0.04760   0.75000   0.00000  Uiso   1.00
O1013  O     0.43892   0.20487   0.74999   0.00000  Uiso   1.00
O1014  O     0.43162   0.30261   0.65405   0.00000  Uiso   1.00
O1015  O     0.39900   0.03428   0.70602   0.00000  Uiso   1.00
O1016  O     0.60003   0.29743   0.79654   0.00000  Uiso   1.00
O1017  O     0.53534   0.23237   0.52346   0.00000  Uiso   1.00
O1018  O     0.50336   0.09058   0.97845   0.00000  Uiso   1.00
O1019  O     0.45903   0.24551   0.97214   0.00000  Uiso   1.00
O1020  O     0.43433   0.11196   0.52393   0.00000  Uiso   1.00
O1021  O     0.54344   0.23087   0.61694   0.00000  Uiso   1.00
O1022  O     0.50246   0.08671   0.88771   0.00000  Uiso   1.00
O1023  O     0.47608   0.24761   0.88245   0.00000  Uiso   1.00
O1024  O     0.56108   0.12846   0.75000   0.00000  Uiso   1.00
O1025  O     0.45847   0.09673   0.61239   0.00000  Uiso   1.00
O1026  O     0.56108   0.20487   0.75000   0.00000  Uiso   1.00
O1027  O     0.43892   0.12846   0.74999   0.00000  Uiso   1.00
O1028  O     0.50000   0.20489   0.68453   0.00000  Uiso   1.00
O1029  O     0.50000   0.12845   0.81547   0.00000  Uiso   1.00
O1030  O     0.50000   0.20489   0.81547   0.00000  Uiso   1.00
O1031  O     0.50000   0.12845   0.68453   0.00000  Uiso   1.00
O1032  O     0.56621   0.03080   0.84717   0.00000  Uiso   1.00
Zn1033 Zn    0.50000   0.21771   0.75000   0.00000  Uiso   1.00
Zn1034 Zn    0.50000   0.11563   0.75000   0.00000  Uiso   1.00
C1035  C     0.75341   0.16669   0.74992   0.00000  Uiso   1.00
C1036  C     0.97787   0.20534   0.73740   0.00000  Uiso   1.00
C1037  C     0.97944   0.12795   0.76261   0.00000  Uiso   1.00
C1038  C     0.68724   0.20541   0.73745   0.00000  Uiso   1.00
C1039  C     0.84643   0.20155   0.54656   0.00000  Uiso   1.00
C1040  C     0.82883   0.12930   0.95450   0.00000  Uiso   1.00
C1041  C     0.80676   0.20752   0.95096   0.00000  Uiso   1.00
C1042  C     0.79588   0.14034   0.54679   0.00000  Uiso   1.00
C1043  C     0.85022   0.20121   0.59318   0.00000  Uiso   1.00
C1044  C     0.82937   0.12760   0.90838   0.00000  Uiso   1.00
C1045  C     0.81496   0.20820   0.90584   0.00000  Uiso   1.00
C1046  C     0.91326   0.16665   0.75009   0.00000  Uiso   1.00
C1047  C     0.80637   0.13412   0.59181   0.00000  Uiso   1.00
C1048  C     0.83099   0.16645   0.61560   0.00000  Uiso   1.00
C1049  C     0.82587   0.16776   0.88407   0.00000  Uiso   1.00
C1050  C     0.81836   0.17170   0.52379   0.00000  Uiso   1.00
C1051  C     0.81691   0.16923   0.97555   0.00000  Uiso   1.00
C1052  C     0.95746   0.16663   0.75002   0.00000  Uiso   1.00
C1053  C     0.70922   0.16672   0.75003   0.00000  Uiso   1.00
C1054  C     0.88760   0.04875   0.81246   0.00000  Uiso   1.00
C1055  C     0.77877   0.28434   0.68787   0.00000  Uiso   1.00
C1056  C     0.76794   0.04809   0.70358   0.00000  Uiso   1.00
C1057  C     0.83355   0.16640   0.66392   0.00000  Uiso   1.00
C1058  C     0.89735   0.28479   0.79867   0.00000  Uiso   1.00
C1059  C     0.90814   0.21419   0.51544   0.00000  Uiso   1.00
C1060  C     0.87996   0.08730   0.98911   0.00000  Uiso   1.00
C1061  C     0.74887   0.24866   0.96289   0.00000  Uiso   1.00
C1062  C     0.72690   0.12445   0.53421   0.00000  Uiso   1.00
C1063  C     0.86254   0.27543   0.61146   0.00000  Uiso   1.00
C1064  C     0.79685   0.06484   0.88097   0.00000  Uiso   1.00
C1065  C     0.84240   0.27729   0.89517   0.00000  Uiso   1.00
C1066  C     0.81851   0.06050   0.60316   0.00000  Uiso   1.00
C1067  C     0.83178   0.16700   0.83615   0.00000  Uiso   1.00
C1068  C     0.86139   0.02422   0.77749   0.00000  Uiso   1.00
C1069  C     0.80521   0.30903   0.72261   0.00000  Uiso   1.00
C1070  C     0.80375   0.02372   0.72483   0.00000  Uiso   1.00
C1071  C     0.86258   0.30949   0.77566   0.00000  Uiso   1.00
C1072  C     0.68882   0.12802   0.76269   0.00000  Uiso   1.00
H1073  H     0.70577   0.09811   0.77299   0.00000  Uiso   1.00
H1074  H     0.90519   0.18699   0.98984   0.00000  Uiso   1.00
H1075  H     0.92485   0.20191   0.54643   0.00000  Uiso   1.00
H1076  H     0.89851   0.08991   0.95912   0.00000  Uiso   1.00
H1077  H     0.88651   0.05395   0.50381   0.00000  Uiso   1.00
H1078  H     0.89017   0.11297   0.51458   0.00000  Uiso   1.00
H1079  H     0.73692   0.27724   0.98243   0.00000  Uiso   1.00
H1080  H     0.73248   0.21791   0.97300   0.00000  Uiso   1.00
H1081  H     0.74118   0.25541   0.92705   0.00000  Uiso   1.00
H1082  H     0.72111   0.11701   0.56942   0.00000  Uiso   1.00
H1083  H     0.70430   0.10452   0.51273   0.00000  Uiso   1.00
H1084  H     0.96092   0.23527   0.72714   0.00000  Uiso   1.00
H1085  H     0.72068   0.16049   0.52738   0.00000  Uiso   1.00
H1086  H     0.82810   0.27819   0.60466   0.00000  Uiso   1.00
H1087  H     0.87885   0.29168   0.58447   0.00000  Uiso   1.00
H1088  H     0.87059   0.29455   0.64272   0.00000  Uiso   1.00
H1089  H     0.80061   0.03540   0.85869   0.00000  Uiso   1.00
H1090  H     0.77268   0.08675   0.86423   0.00000  Uiso   1.00
H1091  H     0.78589   0.05260   0.91300   0.00000  Uiso   1.00
H1092  H     0.84274   0.30417   0.87027   0.00000  Uiso   1.00
H1093  H     0.87352   0.26054   0.89595   0.00000  Uiso   1.00
H1094  H     0.83755   0.29362   0.92785   0.00000  Uiso   1.00
H1095  H     0.96380   0.09793   0.77272   0.00000  Uiso   1.00
H1096  H     0.80877   0.03090   0.62161   0.00000  Uiso   1.00
H1097  H     0.85153   0.06785   0.61448   0.00000  Uiso   1.00
H1098  H     0.81633   0.05124   0.56713   0.00000  Uiso   1.00
H1099  H     0.70289   0.23541   0.72732   0.00000  Uiso   1.00
H1100  H     0.89544   0.08331   0.80941   0.00000  Uiso   1.00
H1101  H     0.77220   0.24944   0.69032   0.00000  Uiso   1.00
H1102  H     0.77253   0.07914   0.68691   0.00000  Uiso   1.00
H1103  H     0.89164   0.25476   0.81683   0.00000  Uiso   1.00
H1104  H     0.92758   0.24096   0.50202   0.00000  Uiso   1.00
N1105  N     0.83333   0.28573   0.75000   0.00000  Uiso   1.00
N1106  N     0.83333   0.04760   0.75000   0.00000  Uiso   1.00
O1107  O     0.77226   0.20487   0.74999   0.00000  Uiso   1.00
O1108  O     0.76495   0.30261   0.65405   0.00000  Uiso   1.00
O1109  O     0.73234   0.03428   0.70602   0.00000  Uiso   1.00
O1110  O     0.93336   0.29743   0.79654   0.00000  Uiso   1.00
O1111  O     0.86867   0.23237   0.52346   0.00000  Uiso   1.00
O1112  O     0.83670   0.09058   0.97845   0.00000  Uiso   1.00
O1113  O     0.79237   0.24551   0.97214   0.00000  Uiso   1.00
O1114  O     0.76766   0.11196   0.52393   0.00000  Uiso   1.00
O1115  O     0.87678   0.23087   0.61694   0.00000  Uiso   1.00
O1116  O     0.83579   0.08671   0.88771   0.00000  Uiso   1.00
O1117  O     0.80941   0.24761   0.88245   0.00000  Uiso   1.00
O1118  O     0.89441   0.12846   0.75000   0.00000  Uiso   1.00
O1119  O     0.79180   0.09673   0.61239   0.00000  Uiso   1.00
O1120  O     0.89441   0.20487   0.75000   0.00000  Uiso   1.00
O1121  O     0.77226   0.12846   0.74999   0.00000  Uiso   1.00
O1122  O     0.83333   0.20489   0.68453   0.00000  Uiso   1.00
O1123  O     0.83334   0.12845   0.81547   0.00000  Uiso   1.00
O1124  O     0.83334   0.20489   0.81547   0.00000  Uiso   1.00
O1125  O     0.83333   0.12845   0.68453   0.00000  Uiso   1.00
O1126  O     0.89954   0.03080   0.84717   0.00000  Uiso   1.00
Zn1127 Zn    0.83333   0.21771   0.75000   0.00000  Uiso   1.00
Zn1128 Zn    0.83333   0.11563   0.75000   0.00000  Uiso   1.00
C1129  C     0.08674   0.50002   0.74992   0.00000  Uiso   1.00
C1130  C     0.31120   0.53868   0.73740   0.00000  Uiso   1.00
C1131  C     0.31278   0.46128   0.76261   0.00000  Uiso   1.00
C1132  C     0.02057   0.53874   0.73745   0.00000  Uiso   1.00
C1133  C     0.17977   0.53488   0.54656   0.00000  Uiso   1.00
C1134  C     0.16217   0.46263   0.95450   0.00000  Uiso   1.00
C1135  C     0.14010   0.54085   0.95096   0.00000  Uiso   1.00
C1136  C     0.12921   0.47368   0.54679   0.00000  Uiso   1.00
C1137  C     0.18356   0.53455   0.59318   0.00000  Uiso   1.00
C1138  C     0.16270   0.46093   0.90838   0.00000  Uiso   1.00
C1139  C     0.14830   0.54153   0.90584   0.00000  Uiso   1.00
C1140  C     0.24660   0.49998   0.75009   0.00000  Uiso   1.00
C1141  C     0.13971   0.46745   0.59181   0.00000  Uiso   1.00
C1142  C     0.16433   0.49978   0.61560   0.00000  Uiso   1.00
C1143  C     0.15921   0.50109   0.88407   0.00000  Uiso   1.00
C1144  C     0.15169   0.50503   0.52379   0.00000  Uiso   1.00
C1145  C     0.15024   0.50256   0.97555   0.00000  Uiso   1.00
C1146  C     0.29079   0.49996   0.75002   0.00000  Uiso   1.00
C1147  C     0.04255   0.50005   0.75003   0.00000  Uiso   1.00
C1148  C     0.22093   0.38208   0.81246   0.00000  Uiso   1.00
C1149  C     0.11210   0.61767   0.68787   0.00000  Uiso   1.00
C1150  C     0.10127   0.38142   0.70358   0.00000  Uiso   1.00
C1151  C     0.16688   0.49974   0.66392   0.00000  Uiso   1.00
C1152  C     0.23069   0.61813   0.79867   0.00000  Uiso   1.00
C1153  C     0.24147   0.54753   0.51544   0.00000  Uiso   1.00
C1154  C     0.21329   0.42063   0.98911   0.00000  Uiso   1.00
C1155  C     0.08220   0.58200   0.96289   0.00000  Uiso   1.00
C1156  C     0.06023   0.45778   0.53421   0.00000  Uiso   1.00
C1157  C     0.19587   0.60877   0.61146   0.00000  Uiso   1.00
C1158  C     0.13018   0.39818   0.88097   0.00000  Uiso   1.00
C1159  C     0.17574   0.61063   0.89517   0.00000  Uiso   1.00
C1160  C     0.15184   0.39383   0.60316   0.00000  Uiso   1.00
C1161  C     0.16512   0.50033   0.83615   0.00000  Uiso   1.00
C1162  C     0.19472   0.35756   0.77749   0.00000  Uiso   1.00
C1163  C     0.13854   0.64236   0.72261   0.00000  Uiso   1.00
C1164  C     0.13708   0.35706   0.72483   0.00000  Uiso   1.00
C1165  C     0.19591   0.64282   0.77566   0.00000  Uiso   1.00
C1166  C     0.02215   0.46135   0.76269   0.00000  Uiso   1.00
H1167  H     0.03910   0.43144   0.77299   0.00000  Uiso   1.00
H1168  H     0.23853   0.52033   0.98984   0.00000  Uiso   1.00
H1169  H     0.25819   0.53524   0.54643   0.00000  Uiso   1.00
H1170  H     0.23185   0.42324   0.95912   0.00000  Uiso   1.00
H1171  H     0.21984   0.38729   0.50381   0.00000  Uiso   1.00
H1172  H     0.22351   0.44630   0.51458   0.00000  Uiso   1.00
H1173  H     0.07025   0.61057   0.98243   0.00000  Uiso   1.00
H1174  H     0.06581   0.55124   0.97300   0.00000  Uiso   1.00
H1175  H     0.07452   0.58874   0.92705   0.00000  Uiso   1.00
H1176  H     0.05444   0.45034   0.56942   0.00000  Uiso   1.00
H1177  H     0.03763   0.43785   0.51273   0.00000  Uiso   1.00
H1178  H     0.29425   0.56861   0.72714   0.00000  Uiso   1.00
H1179  H     0.05402   0.49383   0.52738   0.00000  Uiso   1.00
H1180  H     0.16143   0.61152   0.60466   0.00000  Uiso   1.00
H1181  H     0.21219   0.62502   0.58447   0.00000  Uiso   1.00
H1182  H     0.20393   0.62788   0.64272   0.00000  Uiso   1.00
H1183  H     0.13394   0.36873   0.85869   0.00000  Uiso   1.00
H1184  H     0.10601   0.42008   0.86423   0.00000  Uiso   1.00
H1185  H     0.11922   0.38593   0.91300   0.00000  Uiso   1.00
H1186  H     0.17607   0.63750   0.87027   0.00000  Uiso   1.00
H1187  H     0.20685   0.59387   0.89595   0.00000  Uiso   1.00
H1188  H     0.17088   0.62695   0.92785   0.00000  Uiso   1.00
H1189  H     0.29713   0.43127   0.77272   0.00000  Uiso   1.00
H1190  H     0.14211   0.36424   0.62161   0.00000  Uiso   1.00
H1191  H     0.18486   0.40119   0.61448   0.00000  Uiso   1.00
H1192  H     0.14966   0.38458   0.56713   0.00000  Uiso   1.00
H1193  H     0.03622   0.56875   0.72732   0.00000  Uiso   1.00
H1194  H     0.22878   0.41664   0.80941   0.00000  Uiso   1.00
H1195  H     0.10553   0.58277   0.69032   0.00000  Uiso   1.00
H1196  H     0.10586   0.41248   0.68691   0.00000  Uiso   1.00
H1197  H     0.22497   0.58809   0.81683   0.00000  Uiso   1.00
H1198  H     0.26091   0.57429   0.50202   0.00000  Uiso   1.00
N1199  N     0.16667   0.61907   0.75000   0.00000  Uiso   1.00
N1200  N     0.16667   0.38093   0.75000   0.00000  Uiso   1.00
O1201  O     0.10559   0.53821   0.74999   0.00000  Uiso   1.00
O1202  O     0.09829   0.63594   0.65405   0.00000  Uiso   1.00
O1203  O     0.06567   0.36761   0.70602   0.00000  Uiso   1.00
O1204  O     0.26670   0.63076   0.79654   0.00000  Uiso   1.00
O1205  O     0.20200   0.56570   0.52346   0.00000  Uiso   1.00
O1206  O     0.17003   0.42391   0.97845   0.00000  Uiso   1.00
O1207  O     0.12570   0.57884   0.97214   0.00000  Uiso   1.00
O1208  O     0.10100   0.44529   0.52393   0.00000  Uiso   1.00
O1209  O     0.21011   0.56420   0.61694   0.00000  Uiso   1.00
O1210  O     0.16913   0.42004   0.88771   0.00000  Uiso   1.00
O1211  O     0.14275   0.58094   0.88245   0.00000  Uiso   1.00
O1212  O     0.22774   0.46179   0.75000   0.00000  Uiso   1.00
O1213  O     0.12514   0.43006   0.61239   0.00000  Uiso   1.00
O1214  O     0.22774   0.53821   0.75000   0.00000  Uiso   1.00
O1215  O     0.10559   0.46179   0.74999   0.00000  Uiso   1.00
O1216  O     0.16666   0.53822   0.68453   0.00000  Uiso   1.00
O1217  O     0.16667   0.46178   0.81547   0.00000  Uiso   1.00
O1218  O     0.16667   0.53822   0.81547   0.00000  Uiso   1.00
O1219  O     0.16666   0.46178   0.68453   0.00000  Uiso   1.00
O1220  O     0.23287   0.36414   0.84717   0.00000  Uiso   1.00
Zn1221 Zn    0.16667   0.55104   0.75000   0.00000  Uiso   1.00
Zn1222 Zn    0.16667   0.44896   0.75000   0.00000  Uiso   1.00
C1223  C     0.42007   0.50002   0.74992   0.00000  Uiso   1.00
C1224  C     0.64453   0.53868   0.73740   0.00000  Uiso   1.00
C1225  C     0.64611   0.46128   0.76261   0.00000  Uiso   1.00
C1226  C     0.35391   0.53874   0.73745   0.00000  Uiso   1.00
C1227  C     0.51310   0.53488   0.54656   0.00000  Uiso   1.00
C1228  C     0.49550   0.46263   0.95450   0.00000  Uiso   1.00
C1229  C     0.47343   0.54085   0.95096   0.00000  Uiso   1.00
C1230  C     0.46254   0.47368   0.54679   0.00000  Uiso   1.00
C1231  C     0.51689   0.53455   0.59318   0.00000  Uiso   1.00
C1232  C     0.49603   0.46093   0.90838   0.00000  Uiso   1.00
C1233  C     0.48163   0.54153   0.90584   0.00000  Uiso   1.00
C1234  C     0.57993   0.49998   0.75009   0.00000  Uiso   1.00
C1235  C     0.47304   0.46745   0.59181   0.00000  Uiso   1.00
C1236  C     0.49766   0.49978   0.61560   0.00000  Uiso   1.00
C1237  C     0.49254   0.50109   0.88407   0.00000  Uiso   1.00
C1238  C     0.48503   0.50503   0.52379   0.00000  Uiso   1.00
C1239  C     0.48357   0.50256   0.97555   0.00000  Uiso   1.00
C1240  C     0.62413   0.49996   0.75002   0.00000  Uiso   1.00
C1241  C     0.37589   0.50005   0.75003   0.00000  Uiso   1.00
C1242  C     0.55427   0.38208   0.81246   0.00000  Uiso   1.00
C1243  C     0.44544   0.61767   0.68787   0.00000  Uiso   1.00
C1244  C     0.43461   0.38142   0.70358   0.00000  Uiso   1.00
C1245  C     0.50021   0.49974   0.66392   0.00000  Uiso   1.00
C1246  C     0.56402   0.61813   0.79867   0.00000  Uiso   1.00
C1247  C     0.57480   0.54753   0.51544   0.00000  Uiso   1.00
C1248  C     0.54662   0.42063   0.98911   0.00000  Uiso   1.00
C1249  C     0.41554   0.58200   0.96289   0.00000  Uiso   1.00
C1250  C     0.39357   0.45778   0.53421   0.00000  Uiso   1.00
C1251  C     0.52921   0.60877   0.61146   0.00000  Uiso   1.00
C1252  C     0.46351   0.39818   0.88097   0.00000  Uiso   1.00
C1253  C     0.50907   0.61063   0.89517   0.00000  Uiso   1.00
C1254  C     0.48517   0.39383   0.60316   0.00000  Uiso   1.00
C1255  C     0.49845   0.50033   0.83615   0.00000  Uiso   1.00
C1256  C     0.52806   0.35756   0.77749   0.00000  Uiso   1.00
C1257  C     0.47187   0.64236   0.72261   0.00000  Uiso   1.00
C1258  C     0.47041   0.35706   0.72483   0.00000  Uiso   1.00
C1259  C     0.52924   0.64282   0.77566   0.00000  Uiso   1.00
C1260  C     0.35548   0.46135   0.76269   0.00000  Uiso   1.00
H1261  H     0.37243   0.43144   0.77299   0.00000  Uiso   1.00
H1262  H     0.57186   0.52033   0.98984   0.00000  Uiso   1.00
H1263  H     0.59152   0.53524   0.54643   0.00000  Uiso   1.00
H1264  H     0.56518   0.42324   0.95912   0.00000  Uiso   1.00
H1265  H     0.55318   0.38729   0.50381   0.00000  Uiso   1.00
H1266  H     0.55684   0.44630   0.51458   0.00000  Uiso   1.00
H1267  H     0.40358   0.61057   0.98243   0.00000  Uiso   1.00
H1268  H     0.39914   0.55124   0.97300   0.00000  Uiso   1.00
H1269  H     0.40785   0.58874   0.92705   0.00000  Uiso   1.00
H1270  H     0.38778   0.45034   0.56942   0.00000  Uiso   1.00
H1271  H     0.37096   0.43785   0.51273   0.00000  Uiso   1.00
H1272  H     0.62759   0.56861   0.72714   0.00000  Uiso   1.00
H1273  H     0.38735   0.49383   0.52738   0.00000  Uiso   1.00
H1274  H     0.49476   0.61152   0.60466   0.00000  Uiso   1.00
H1275  H     0.54552   0.62502   0.58447   0.00000  Uiso   1.00
H1276  H     0.53726   0.62788   0.64272   0.00000  Uiso   1.00
H1277  H     0.46727   0.36873   0.85869   0.00000  Uiso   1.00
H1278  H     0.43935   0.42008   0.86423   0.00000  Uiso   1.00
H1279  H     0.45256   0.38593   0.91300   0.00000  Uiso   1.00
H1280  H     0.50941   0.63750   0.87027   0.00000  Uiso   1.00
H1281  H     0.54018   0.59387   0.89595   0.00000  Uiso   1.00
H1282  H     0.50422   0.62695   0.92785   0.00000  Uiso   1.00
H1283  H     0.63047   0.43127   0.77272   0.00000  Uiso   1.00
H1284  H     0.47544   0.36424   0.62161   0.00000  Uiso   1.00
H1285  H     0.51819   0.40119   0.61448   0.00000  Uiso   1.00
H1286  H     0.48299   0.38458   0.56713   0.00000  Uiso   1.00
H1287  H     0.36956   0.56875   0.72732   0.00000  Uiso   1.00
H1288  H     0.56211   0.41664   0.80941   0.00000  Uiso   1.00
H1289  H     0.43887   0.58277   0.69032   0.00000  Uiso   1.00
H1290  H     0.43920   0.41248   0.68691   0.00000  Uiso   1.00
H1291  H     0.55830   0.58809   0.81683   0.00000  Uiso   1.00
H1292  H     0.59424   0.57429   0.50202   0.00000  Uiso   1.00
N1293  N     0.50000   0.61907   0.75000   0.00000  Uiso   1.00
N1294  N     0.50000   0.38093   0.75000   0.00000  Uiso   1.00
O1295  O     0.43892   0.53821   0.74999   0.00000  Uiso   1.00
O1296  O     0.43162   0.63594   0.65405   0.00000  Uiso   1.00
O1297  O     0.39900   0.36761   0.70602   0.00000  Uiso   1.00
O1298  O     0.60003   0.63076   0.79654   0.00000  Uiso   1.00
O1299  O     0.53534   0.56570   0.52346   0.00000  Uiso   1.00
O1300  O     0.50336   0.42391   0.97845   0.00000  Uiso   1.00
O1301  O     0.45903   0.57884   0.97214   0.00000  Uiso   1.00
O1302  O     0.43433   0.44529   0.52393   0.00000  Uiso   1.00
O1303  O     0.54344   0.56420   0.61694   0.00000  Uiso   1.00
O1304  O     0.50246   0.42004   0.88771   0.00000  Uiso   1.00
O1305  O     0.47608   0.58094   0.88245   0.00000  Uiso   1.00
O1306  O     0.56108   0.46179   0.75000   0.00000  Uiso   1.00
O1307  O     0.45847   0.43006   0.61239   0.00000  Uiso   1.00
O1308  O     0.56108   0.53821   0.75000   0.00000  Uiso   1.00
O1309  O     0.43892   0.46179   0.74999   0.00000  Uiso   1.00
O1310  O     0.50000   0.53822   0.68453   0.00000  Uiso   1.00
O1311  O     0.50000   0.46178   0.81547   0.00000  Uiso   1.00
O1312  O     0.50000   0.53822   0.81547   0.00000  Uiso   1.00
O1313  O     0.50000   0.46178   0.68453   0.00000  Uiso   1.00
O1314  O     0.56621   0.36414   0.84717   0.00000  Uiso   1.00
Zn1315 Zn    0.50000   0.55104   0.75000   0.00000  Uiso   1.00
Zn1316 Zn    0.50000   0.44896   0.75000   0.00000  Uiso   1.00
C1317  C     0.75341   0.50002   0.74992   0.00000  Uiso   1.00
C1318  C     0.97787   0.53868   0.73740   0.00000  Uiso   1.00
C1319  C     0.97944   0.46128   0.76261   0.00000  Uiso   1.00
C1320  C     0.68724   0.53874   0.73745   0.00000  Uiso   1.00
C1321  C     0.84643   0.53488   0.54656   0.00000  Uiso   1.00
C1322  C     0.82883   0.46263   0.95450   0.00000  Uiso   1.00
C1323  C     0.80676   0.54085   0.95096   0.00000  Uiso   1.00
C1324  C     0.79588   0.47368   0.54679   0.00000  Uiso   1.00
C1325  C     0.85022   0.53455   0.59318   0.00000  Uiso   1.00
C1326  C     0.82937   0.46093   0.90838   0.00000  Uiso   1.00
C1327  C     0.81496   0.54153   0.90584   0.00000  Uiso   1.00
C1328  C     0.91326   0.49998   0.75009   0.00000  Uiso   1.00
C1329  C     0.80637   0.46745   0.59181   0.00000  Uiso   1.00
C1330  C     0.83099   0.49978   0.61560   0.00000  Uiso   1.00
C1331  C     0.82587   0.50109   0.88407   0.00000  Uiso   1.00
C1332  C     0.81836   0.50503   0.52379   0.00000  Uiso   1.00
C1333  C     0.81691   0.50256   0.97555   0.00000  Uiso   1.00
C1334  C     0.95746   0.49996   0.75002   0.00000  Uiso   1.00
C1335  C     0.70922   0.50005   0.75003   0.00000  Uiso   1.00
C1336  C     0.88760   0.38208   0.81246   0.00000  Uiso   1.00
C1337  C     0.77877   0.61767   0.68787   0.00000  Uiso   1.00
C1338  C     0.76794   0.38142   0.70358   0.00000  Uiso   1.00
C1339  C     0.83355   0.49974   0.66392   0.00000  Uiso   1.00
C1340  C     0.89735   0.61813   0.79867   0.00000  Uiso   1.00
C1341  C     0.90814   0.54753   0.51544   0.00000  Uiso   1.00
C1342  C     0.87996   0.42063   0.98911   0.00000  Uiso   1.00
C1343  C     0.74887   0.58200   0.96289   0.00000  Uiso   1.00
C1344  C     0.72690   0.45778   0.53421   0.00000  Uiso   1.00
C1345  C     0.86254   0.60877   0.61146   0.00000  Uiso   1.00
C1346  C     0.79685   0.39818   0.88097   0.00000  Uiso   1.00
C1347  C     0.84240   0.61063   0.89517   0.00000  Uiso   1.00
C1348  C     0.81851   0.39383   0.60316   0.00000  Uiso   1.00
C1349  C     0.83178   0.50033   0.83615   0.00000  Uiso   1.00
C1350  C     0.86139   0.35756   0.77749   0.00000  Uiso   1.00
C1351  C     0.80521   0.64236   0.72261   0.00000  Uiso   1.00
C1352  C     0.80375   0.35706   0.72483   0.00000  Uiso   1.00
C1353  C     0.86258   0.64282   0.77566   0.00000  Uiso   1.00
C1354  C     0.68882   0.46135   0.76269   0.00000  Uiso   1.00
H1355  H     0.70577   0.43144   0.77299   0.00000  Uiso   1.00
H1356  H     0.90519   0.52033   0.98984   0.00000  Uiso   1.00
H1357  H     0.92485   0.53524   0.54643   0.00000  Uiso   1.00
H1358  H     0.89851   0.42324   0.95912   0.00000  Uiso   1.00
H1359  H     0.88651   0.38729   0.50381   0.00000  Uiso   1.00
H1360  H     0.89017   0.44630   0.51458   0.00000  Uiso   1.00
H1361  H     0.73692   0.61057   0.98243   0.00000  Uiso   1.00
H1362  H     0.73248   0.55124   0.97300   0.00000  Uiso   1.00
H1363  H     0.74118   0.58874   0.92705   0.00000  Uiso   1.00
H1364  H     0.72111   0.45034   0.56942   0.00000  Uiso   1.00
H1365  H     0.70430   0.43785   0.51273   0.00000  Uiso   1.00
H1366  H     0.96092   0.56861   0.72714   0.00000  Uiso   1.00
H1367  H     0.72068   0.49383   0.52738   0.00000  Uiso   1.00
H1368  H     0.82810   0.61152   0.60466   0.00000  Uiso   1.00
H1369  H     0.87885   0.62502   0.58447   0.00000  Uiso   1.00
H1370  H     0.87059   0.62788   0.64272   0.00000  Uiso   1.00
H1371  H     0.80061   0.36873   0.85869   0.00000  Uiso   1.00
H1372  H     0.77268   0.42008   0.86423   0.00000  Uiso   1.00
H1373  H     0.78589   0.38593   0.91300   0.00000  Uiso   1.00
H1374  H     0.84274   0.63750   0.87027   0.00000  Uiso   1.00
H1375  H     0.87352   0.59387   0.89595   0.00000  Uiso   1.00
H1376  H     0.83755   0.62695   0.92785   0.00000  Uiso   1.00
H1377  H     0.96380   0.43127   0.77272   0.00000  Uiso   1.00
H1378  H     0.80877   0.36424   0.62161   0.00000  Uiso   1.00
H1379  H     0.85153   0.40119   0.61448   0.00000  Uiso   1.00
H1380  H     0.81633   0.38458   0.56713   0.00000  Uiso   1.00
H1381  H     0.70289   0.56875   0.72732   0.00000  Uiso   1.00
H1382  H     0.89544   0.41664   0.80941   0.00000  Uiso   1.00
H1383  H     0.77220   0.58277   0.69032   0.00000  Uiso   1.00
H1384  H     0.77253   0.41248   0.68691   0.00000  Uiso   1.00
H1385  H     0.89164   0.58809   0.81683   0.00000  Uiso   1.00
H1386  H     0.92758   0.57429   0.50202   0.00000  Uiso   1.00
N1387  N     0.83333   0.61907   0.75000   0.00000  Uiso   1.00
N1388  N     0.83333   0.38093   0.75000   0.00000  Uiso   1.00
O1389  O     0.77226   0.53821   0.74999   0.00000  Uiso   1.00
O1390  O     0.76495   0.63594   0.65405   0.00000  Uiso   1.00
O1391  O     0.73234   0.36761   0.70602   0.00000  Uiso   1.00
O1392  O     0.93336   0.63076   0.79654   0.00000  Uiso   1.00
O1393  O     0.86867   0.56570   0.52346   0.00000  Uiso   1.00
O1394  O     0.83670   0.42391   0.97845   0.00000  Uiso   1.00
O1395  O     0.79237   0.57884   0.97214   0.00000  Uiso   1.00
O1396  O     0.76766   0.44529   0.52393   0.00000  Uiso   1.00
O1397  O     0.87678   0.56420   0.61694   0.00000  Uiso   1.00
O1398  O     0.83579   0.42004   0.88771   0.00000  Uiso   1.00
O1399  O     0.80941   0.58094   0.88245   0.00000  Uiso   1.00
O1400  O     0.89441   0.46179   0.75000   0.00000  Uiso   1.00
O1401  O     0.79180   0.43006   0.61239   0.00000  Uiso   1.00
O1402  O     0.89441   0.53821   0.75000   0.00000  Uiso   1.00
O1403  O     0.77226   0.46179   0.74999   0.00000  Uiso   1.00
O1404  O     0.83333   0.53822   0.68453   0.00000  Uiso   1.00
O1405  O     0.83334   0.46178   0.81547   0.00000  Uiso   1.00
O1406  O     0.83334   0.53822   0.81547   0.00000  Uiso   1.00
O1407  O     0.83333   0.46178   0.68453   0.00000  Uiso   1.00
O1408  O     0.89954   0.36414   0.84717   0.00000  Uiso   1.00
Zn1409 Zn    0.83333   0.55104   0.75000   0.00000  Uiso   1.00
Zn1410 Zn    0.83333   0.44896   0.75000   0.00000  Uiso   1.00
C1411  C     0.08674   0.83335   0.74992   0.00000  Uiso   1.00
C1412  C     0.31120   0.87201   0.73740   0.00000  Uiso   1.00
C1413  C     0.31278   0.79461   0.76261   0.00000  Uiso   1.00
C1414  C     0.02057   0.87207   0.73745   0.00000  Uiso   1.00
C1415  C     0.17977   0.86821   0.54656   0.00000  Uiso   1.00
C1416  C     0.16217   0.79597   0.95450   0.00000  Uiso   1.00
C1417  C     0.14010   0.87419   0.95096   0.00000  Uiso   1.00
C1418  C     0.12921   0.80701   0.54679   0.00000  Uiso   1.00
C1419  C     0.18356   0.86788   0.59318   0.00000  Uiso   1.00
C1420  C     0.16270   0.79427   0.90838   0.00000  Uiso   1.00
C1421  C     0.14830   0.87487   0.90584   0.00000  Uiso   1.00
C1422  C     0.24660   0.83331   0.75009   0.00000  Uiso   1.00
C1423  C     0.13971   0.80078   0.59181   0.00000  Uiso   1.00
C1424  C     0.16433   0.83311   0.61560   0.00000  Uiso   1.00
C1425  C     0.15921   0.83443   0.88407   0.00000  Uiso   1.00
C1426  C     0.15169   0.83837   0.52379   0.00000  Uiso   1.00
C1427  C     0.15024   0.83589   0.97555   0.00000  Uiso   1.00
C1428  C     0.29079   0.83330   0.75002   0.00000  Uiso   1.00
C1429  C     0.04255   0.83339   0.75003   0.00000  Uiso   1.00
C1430  C     0.22093   0.71542   0.81246   0.00000  Uiso   1.00
C1431  C     0.11210   0.95101   0.68787   0.00000  Uiso   1.00
C1432  C     0.10127   0.71475   0.70358   0.00000  Uiso   1.00
C1433  C     0.16688   0.83307   0.66392   0.00000  Uiso   1.00
C1434  C     0.23069   0.95146   0.79867   0.00000  Uiso   1.00
C1435  C     0.24147   0.88086   0.51544   0.00000  Uiso   1.00
C1436  C     0.21329   0.75396   0.98911   0.00000  Uiso   1.00
C1437  C     0.08220   0.91533   0.96289   0.00000  Uiso   1.00
C1438  C     0.06023   0.79112   0.53421   0.00000  Uiso   1.00
C1439  C     0.19587   0.94210   0.61146   0.00000  Uiso   1.00
C1440  C     0.13018   0.73151   0.88097   0.00000  Uiso   1.00
C1441  C     0.17574   0.94396   0.89517   0.00000  Uiso   1.00
C1442  C     0.15184   0.72717   0.60316   0.00000  Uiso   1.00
C1443  C     0.16512   0.83367   0.83615   0.00000  Uiso   1.00
C1444  C     0.19472   0.69089   0.77749   0.00000  Uiso   1.00
C1445  C     0.13854   0.97570   0.72261   0.00000  Uiso   1.00
C1446  C     0.13708   0.69039   0.72483   0.00000  Uiso   1.00
C1447  C     0.19591   0.97615   0.77566   0.00000  Uiso   1.00
C1448  C     0.02215   0.79469   0.76269   0.00000  Uiso   1.00
H1449  H     0.03910   0.76478   0.77299   0.00000  Uiso   1.00
H1450  H     0.23853   0.85366   0.98984   0.00000  Uiso   1.00
H1451  H     0.25819   0.86858   0.54643   0.00000  Uiso   1.00
H1452  H     0.23185   0.75657   0.95912   0.00000  Uiso   1.00
H1453  H     0.21984   0.72062   0.50381   0.00000  Uiso   1.00
H1454  H     0.22351   0.77964   0.51458   0.00000  Uiso   1.00
H1455  H     0.07025   0.94390   0.98243   0.00000  Uiso   1.00
H1456  H     0.06581   0.88457   0.97300   0.00000  Uiso   1.00
H1457  H     0.07452   0.92207   0.92705   0.00000  Uiso   1.00
H1458  H     0.05444   0.78367   0.56942   0.00000  Uiso   1.00
H1459  H     0.03763   0.77118   0.51273   0.00000  Uiso   1.00
H1460  H     0.29425   0.90194   0.72714   0.00000  Uiso   1.00
H1461  H     0.05402   0.82716   0.52738   0.00000  Uiso   1.00
H1462  H     0.16143   0.94485   0.60466   0.00000  Uiso   1.00
H1463  H     0.21219   0.95835   0.58447   0.00000  Uiso   1.00
H1464  H     0.20393   0.96121   0.64272   0.00000  Uiso   1.00
H1465  H     0.13394   0.70206   0.85869   0.00000  Uiso   1.00
H1466  H     0.10601   0.75342   0.86423   0.00000  Uiso   1.00
H1467  H     0.11922   0.71926   0.91300   0.00000  Uiso   1.00
H1468  H     0.17607   0.97084   0.87027   0.00000  Uiso   1.00
H1469  H     0.20685   0.92720   0.89595   0.00000  Uiso   1.00
H1470  H     0.17088   0.96029   0.92785   0.00000  Uiso   1.00
H1471  H     0.29713   0.76460   0.77272   0.00000  Uiso   1.00
H1472  H     0.14211   0.69757   0.62161   0.00000  Uiso   1.00
H1473  H     0.18486   0.73452   0.61448   0.00000  Uiso   1.00
H1474  H     0.14966   0.71791   0.56713   0.00000  Uiso   1.00
H1475  H     0.03622   0.90208   0.72732   0.00000  Uiso   1.00
H1476  H     0.22878   0.74997   0.80941   0.00000  Uiso   1.00
H1477  H     0.10553   0.91610   0.69032   0.00000  Uiso   1.00
H1478  H     0.10586   0.74581   0.68691   0.00000  Uiso   1.00
H1479  H     0.22497   0.92142   0.81683   0.00000  Uiso   1.00
H1480  H     0.26091   0.90763   0.50202   0.00000  Uiso   1.00
N1481  N     0.16667   0.95240   0.75000   0.00000  Uiso   1.00
N1482  N     0.16667   0.71427   0.75000   0.00000  Uiso   1.00
O1483  O     0.10559   0.87154   0.74999   0.00000  Uiso   1.00
O1484  O     0.09829   0.96927   0.65405   0.00000  Uiso   1.00
O1485  O     0.06567   0.70095   0.70602   0.00000  Uiso   1.00
O1486  O     0.26670   0.96410   0.79654   0.00000  Uiso   1.00
O1487  O     0.20200   0.89904   0.52346   0.00000  Uiso   1.00
O1488  O     0.17003   0.75725   0.97845   0.00000  Uiso   1.00
O1489  O     0.12570   0.91217   0.97214   0.00000  Uiso   1.00
O1490  O     0.10100   0.77863   0.52393   0.00000  Uiso   1.00
O1491  O     0.21011   0.89753   0.61694   0.00000  Uiso   1.00
O1492  O     0.16913   0.75337   0.88771   0.00000  Uiso   1.00
O1493  O     0.14275   0.91427   0.88245   0.00000  Uiso   1.00
O1494  O     0.22774   0.79513   0.75000   0.00000  Uiso   1.00
O1495  O     0.12514   0.76340   0.61239   0.00000  Uiso   1.00
O1496  O     0.22774   0.87154   0.75000   0.00000  Uiso   1.00
O1497  O     0.10559   0.79513   0.74999   0.00000  Uiso   1.00
O1498  O     0.16666   0.87155   0.68453   0.00000  Uiso   1.00
O1499  O     0.16667   0.79511   0.81547   0.00000  Uiso   1.00
O1500  O     0.16667   0.87155   0.81547   0.00000  Uiso   1.00
O1501  O     0.16666   0.79511   0.68453   0.00000  Uiso   1.00
O1502  O     0.23287   0.69747   0.84717   0.00000  Uiso   1.00
Zn1503 Zn    0.16667   0.88437   0.75000   0.00000  Uiso   1.00
Zn1504 Zn    0.16667   0.78229   0.75000   0.00000  Uiso   1.00
C1505  C     0.42007   0.83335   0.74992   0.00000  Uiso   1.00
C1506  C     0.64453   0.87201   0.73740   0.00000  Uiso   1.00
C1507  C     0.64611   0.79461   0.76261   0.00000  Uiso   1.00
C1508  C     0.35391   0.87207   0.73745   0.00000  Uiso   1.00
C1509  C     0.51310   0.86821   0.54656   0.00000  Uiso   1.00
C1510  C     0.49550   0.79597   0.95450   0.00000  Uiso   1.00
C1511  C     0.47343   0.87419   0.95096   0.00000  Uiso   1.00
C1512  C     0.46254   0.80701   0.54679   0.00000  Uiso   1.00
C1513  C     0.51689   0.86788   0.59318   0.00000  Uiso   1.00
C1514  C     0.49603   0.79427   0.90838   0.00000  Uiso   1.00
C1515  C     0.48163   0.87487   0.90584   0.00000  Uiso   1.00
C1516  C     0.57993   0.83331   0.75009   0.00000  Uiso   1.00
C1517  C     0.47304   0.80078   0.59181   0.00000  Uiso   1.00
C1518  C     0.49766   0.83311   0.61560   0.00000  Uiso   1.00
C1519  C     0.49254   0.83443   0.88407   0.00000  Uiso   1.00
C1520  C     0.48503   0.83837   0.52379   0.00000  Uiso   1.00
C1521  C     0.48357   0.83589   0.97555   0.00000  Uiso   1.00
C1522  C     0.62413   0.83330   0.75002   0.00000  Uiso   1.00
C1523  C     0.37589   0.83339   0.75003   0.00000  Uiso   1.00
C1524  C     0.55427   0.71542   0.81246   0.00000  Uiso   1.00
C1525  C     0.44544   0.95101   0.68787   0.00000  Uiso   1.00
C1526  C     0.43461   0.71475   0.70358   0.00000  Uiso   1.00
C1527  C     0.50021   0.83307   0.66392   0.00000  Uiso   1.00
C1528  C     0.56402   0.95146   0.79867   0.00000  Uiso   1.00
C1529  C     0.57480   0.88086   0.51544   0.00000  Uiso   1.00
C1530  C     0.54662   0.75396   0.98911   0.00000  Uiso   1.00
C1531  C     0.41554   0.91533   0.96289   0.00000  Uiso   1.00
C1532  C     0.39357   0.79112   0.53421   0.00000  Uiso   1.00
C1533  C     0.52921   0.94210   0.61146   0.00000  Uiso   1.00
C1534  C     0.46351   0.73151   0.88097   0.00000  Uiso   1.00
C1535  C     0.50907   0.94396   0.89517   0.00000  Uiso   1.00
C1536  C     0.48517   0.72717   0.60316   0.00000  Uiso   1.00
C1537  C     0.49845   0.83367   0.83615   0.00000  Uiso   1.00
C1538  C     0.52806   0.69089   0.77749   0.00000  Uiso   1.00
C1539  C     0.47187   0.97570   0.72261   0.00000  Uiso   1.00
C1540  C     0.47041   0.69039   0.72483   0.00000  Uiso   1.00
C1541  C     0.52924   0.97615   0.77566   0.00000  Uiso   1.00
C1542  C     0.35548   0.79469   0.76269   0.00000  Uiso   1.00
H1543  H     0.37243   0.76478   0.77299   0.00000  Uiso   1.00
H1544  H     0.57186   0.85366   0.98984   0.00000  Uiso   1.00
H1545  H     0.59152   0.86858   0.54643   0.00000  Uiso   1.00
H1546  H     0.56518   0.75657   0.95912   0.00000  Uiso   1.00
H1547  H     0.55318   0.72062   0.50381   0.00000  Uiso   1.00
H1548  H     0.55684   0.77964   0.51458   0.00000  Uiso   1.00
H1549  H     0.40358   0.94390   0.98243   0.00000  Uiso   1.00
H1550  H     0.39914   0.88457   0.97300   0.00000  Uiso   1.00
H1551  H     0.40785   0.92207   0.92705   0.00000  Uiso   1.00
H1552  H     0.38778   0.78367   0.56942   0.00000  Uiso   1.00
H1553  H     0.37096   0.77118   0.51273   0.00000  Uiso   1.00
H1554  H     0.62759   0.90194   0.72714   0.00000  Uiso   1.00
H1555  H     0.38735   0.82716   0.52738   0.00000  Uiso   1.00
H1556  H     0.49476   0.94485   0.60466   0.00000  Uiso   1.00
H1557  H     0.54552   0.95835   0.58447   0.00000  Uiso   1.00
H1558  H     0.53726   0.96121   0.64272   0.00000  Uiso   1.00
H1559  H     0.46727   0.70206   0.85869   0.00000  Uiso   1.00
H1560  H     0.43935   0.75342   0.86423   0.00000  Uiso   1.00
H1561  H     0.45256   0.71926   0.91300   0.00000  Uiso   1.00
H1562  H     0.50941   0.97084   0.87027   0.00000  Uiso   1.00
H1563  H     0.54018   0.92720   0.89595   0.00000  Uiso   1.00
H1564  H     0.50422   0.96029   0.92785   0.00000  Uiso   1.00
H1565  H     0.63047   0.76460   0.77272   0.00000  Uiso   1.00
H1566  H     0.47544   0.69757   0.62161   0.00000  Uiso   1.00
H1567  H     0.51819   0.73452   0.61448   0.00000  Uiso   1.00
H1568  H     0.48299   0.71791   0.56713   0.00000  Uiso   1.00
H1569  H     0.36956   0.90208   0.72732   0.00000  Uiso   1.00
H1570  H     0.56211   0.74997   0.80941   0.00000  Uiso   1.00
H1571  H     0.43887   0.91610   0.69032   0.00000  Uiso   1.00
H1572  H     0.43920   0.74581   0.68691   0.00000  Uiso   1.00
H1573  H     0.55830   0.92142   0.81683   0.00000  Uiso   1.00
H1574  H     0.59424   0.90763   0.50202   0.00000  Uiso   1.00
N1575  N     0.50000   0.95240   0.75000   0.00000  Uiso   1.00
N1576  N     0.50000   0.71427   0.75000   0.00000  Uiso   1.00
O1577  O     0.43892   0.87154   0.74999   0.00000  Uiso   1.00
O1578  O     0.43162   0.96927   0.65405   0.00000  Uiso   1.00
O1579  O     0.39900   0.70095   0.70602   0.00000  Uiso   1.00
O1580  O     0.60003   0.96410   0.79654   0.00000  Uiso   1.00
O1581  O     0.53534   0.89904   0.52346   0.00000  Uiso   1.00
O1582  O     0.50336   0.75725   0.97845   0.00000  Uiso   1.00
O1583  O     0.45903   0.91217   0.97214   0.00000  Uiso   1.00
O1584  O     0.43433   0.77863   0.52393   0.00000  Uiso   1.00
O1585  O     0.54344   0.89753   0.61694   0.00000  Uiso   1.00
O1586  O     0.50246   0.75337   0.88771   0.00000  Uiso   1.00
O1587  O     0.47608   0.91427   0.88245   0.00000  Uiso   1.00
O1588  O     0.56108   0.79513   0.75000   0.00000  Uiso   1.00
O1589  O     0.45847   0.76340   0.61239   0.00000  Uiso   1.00
O1590  O     0.56108   0.87154   0.75000   0.00000  Uiso   1.00
O1591  O     0.43892   0.79513   0.74999   0.00000  Uiso   1.00
O1592  O     0.50000   0.87155   0.68453   0.00000  Uiso   1.00
O1593  O     0.50000   0.79511   0.81547   0.00000  Uiso   1.00
O1594  O     0.50000   0.87155   0.81547   0.00000  Uiso   1.00
O1595  O     0.50000   0.79511   0.68453   0.00000  Uiso   1.00
O1596  O     0.56621   0.69747   0.84717   0.00000  Uiso   1.00
Zn1597 Zn    0.50000   0.88437   0.75000   0.00000  Uiso   1.00
Zn1598 Zn    0.50000   0.78229   0.75000   0.00000  Uiso   1.00
C1599  C     0.75341   0.83335   0.74992   0.00000  Uiso   1.00
C1600  C     0.97787   0.87201   0.73740   0.00000  Uiso   1.00
C1601  C     0.97944   0.79461   0.76261   0.00000  Uiso   1.00
C1602  C     0.68724   0.87207   0.73745   0.00000  Uiso   1.00
C1603  C     0.84643   0.86821   0.54656   0.00000  Uiso   1.00
C1604  C     0.82883   0.79597   0.95450   0.00000  Uiso   1.00
C1605  C     0.80676   0.87419   0.95096   0.00000  Uiso   1.00
C1606  C     0.79588   0.80701   0.54679   0.00000  Uiso   1.00
C1607  C     0.85022   0.86788   0.59318   0.00000  Uiso   1.00
C1608  C     0.82937   0.79427   0.90838   0.00000  Uiso   1.00
C1609  C     0.81496   0.87487   0.90584   0.00000  Uiso   1.00
C1610  C     0.91326   0.83331   0.75009   0.00000  Uiso   1.00
C1611  C     0.80637   0.80078   0.59181   0.00000  Uiso   1.00
C1612  C     0.83099   0.83311   0.61560   0.00000  Uiso   1.00
C1613  C     0.82587   0.83443   0.88407   0.00000  Uiso   1.00
C1614  C     0.81836   0.83837   0.52379   0.00000  Uiso   1.00
C1615  C     0.81691   0.83589   0.97555   0.00000  Uiso   1.00
C1616  C     0.95746   0.83330   0.75002   0.00000  Uiso   1.00
C1617  C     0.70922   0.83339   0.75003   0.00000  Uiso   1.00
C1618  C     0.88760   0.71542   0.81246   0.00000  Uiso   1.00
C1619  C     0.77877   0.95101   0.68787   0.00000  Uiso   1.00
C1620  C     0.76794   0.71475   0.70358   0.00000  Uiso   1.00
C1621  C     0.83355   0.83307   0.66392   0.00000  Uiso   1.00
C1622  C     0.89735   0.95146   0.79867   0.00000  Uiso   1.00
C1623  C     0.90814   0.88086   0.51544   0.00000  Uiso   1.00
C1624  C     0.87996   0.75396   0.98911   0.00000  Uiso   1.00
C1625  C     0.74887   0.91533   0.96289   0.00000  Uiso   1.00
C1626  C     0.72690   0.79112   0.53421   0.00000  Uiso   1.00
C1627  C     0.86254   0.94210   0.61146   0.00000  Uiso   1.00
C1628  C     0.79685   0.73151   0.88097   0.00000  Uiso   1.00
C1629  C     0.84240   0.94396   0.89517   0.00000  Uiso   1.00
C1630  C     0.81851   0.72717   0.60316   0.00000  Uiso   1.00
C1631  C     0.83178   0.83367   0.83615   0.00000  Uiso   1.00
C1632  C     0.86139   0.69089   0.77749   0.00000  Uiso   1.00
C1633  C     0.80521   0.97570   0.72261   0.00000  Uiso   1.00
C1634  C     0.80375   0.69039   0.72483   0.00000  Uiso   1.00
C1635  C     0.86258   0.97615   0.77566   0.00000  Uiso   1.00
C1636  C     0.68882   0.79469   0.76269   0.00000  Uiso   1.00
H1637  H     0.70577   0.76478   0.77299   0.00000  Uiso   1.00
H1638  H     0.90519   0.85366   0.98984   0.00000  Uiso   1.00
H1639  H     0.92485   0.86858   0.54643   0.00000  Uiso   1.00
H1640  H     0.89851   0.75657   0.95912   0.00000  Uiso   1.00
H1641  H     0.88651   0.72062   0.50381   0.00000  Uiso   1.00
H1642  H     0.89017   0.77964   0.51458   0.00000  Uiso   1.00
H1643  H     0.73692   0.94390   0.98243   0.00000  Uiso   1.00
H1644  H     0.73248   0.88457   0.97300   0.00000  Uiso   1.00
H1645  H     0.74118   0.92207   0.92705   0.00000  Uiso   1.00
H1646  H     0.72111   0.78367   0.56942   0.00000  Uiso   1.00
H1647  H     0.70430   0.77118   0.51273   0.00000  Uiso   1.00
H1648  H     0.96092   0.90194   0.72714   0.00000  Uiso   1.00
H1649  H     0.72068   0.82716   0.52738   0.00000  Uiso   1.00
H1650  H     0.82810   0.94485   0.60466   0.00000  Uiso   1.00
H1651  H     0.87885   0.95835   0.58447   0.00000  Uiso   1.00
H1652  H     0.87059   0.96121   0.64272   0.00000  Uiso   1.00
H1653  H     0.80061   0.70206   0.85869   0.00000  Uiso   1.00
H1654  H     0.77268   0.75342   0.86423   0.00000  Uiso   1.00
H1655  H     0.78589   0.71926   0.91300   0.00000  Uiso   1.00
H1656  H     0.84274   0.97084   0.87027   0.00000  Uiso   1.00
H1657  H     0.87352   0.92720   0.89595   0.00000  Uiso   1.00
H1658  H     0.83755   0.96029   0.92785   0.00000  Uiso   1.00
H1659  H     0.96380   0.76460   0.77272   0.00000  Uiso   1.00
H1660  H     0.80877   0.69757   0.62161   0.00000  Uiso   1.00
H1661  H     0.85153   0.73452   0.61448   0.00000  Uiso   1.00
H1662  H     0.81633   0.71791   0.56713   0.00000  Uiso   1.00
H1663  H     0.70289   0.90208   0.72732   0.00000  Uiso   1.00
H1664  H     0.89544   0.74997   0.80941   0.00000  Uiso   1.00
H1665  H     0.77220   0.91610   0.69032   0.00000  Uiso   1.00
H1666  H     0.77253   0.74581   0.68691   0.00000  Uiso   1.00
H1667  H     0.89164   0.92142   0.81683   0.00000  Uiso   1.00
H1668  H     0.92758   0.90763   0.50202   0.00000  Uiso   1.00
N1669  N     0.83333   0.95240   0.75000   0.00000  Uiso   1.00
N1670  N     0.83333   0.71427   0.75000   0.00000  Uiso   1.00
O1671  O     0.77226   0.87154   0.74999   0.00000  Uiso   1.00
O1672  O     0.76495   0.96927   0.65405   0.00000  Uiso   1.00
O1673  O     0.73234   0.70095   0.70602   0.00000  Uiso   1.00
O1674  O     0.93336   0.96410   0.79654   0.00000  Uiso   1.00
O1675  O     0.86867   0.89904   0.52346   0.00000  Uiso   1.00
O1676  O     0.83670   0.75725   0.97845   0.00000  Uiso   1.00
O1677  O     0.79237   0.91217   0.97214   0.00000  Uiso   1.00
O1678  O     0.76766   0.77863   0.52393   0.00000  Uiso   1.00
O1679  O     0.87678   0.89753   0.61694   0.00000  Uiso   1.00
O1680  O     0.83579   0.75337   0.88771   0.00000  Uiso   1.00
O1681  O     0.80941   0.91427   0.88245   0.00000  Uiso   1.00
O1682  O     0.89441   0.79513   0.75000   0.00000  Uiso   1.00
O1683  O     0.79180   0.76340   0.61239   0.00000  Uiso   1.00
O1684  O     0.89441   0.87154   0.75000   0.00000  Uiso   1.00
O1685  O     0.77226   0.79513   0.74999   0.00000  Uiso   1.00
O1686  O     0.83333   0.87155   0.68453   0.00000  Uiso   1.00
O1687  O     0.83334   0.79511   0.81547   0.00000  Uiso   1.00
O1688  O     0.83334   0.87155   0.81547   0.00000  Uiso   1.00
O1689  O     0.83333   0.79511   0.68453   0.00000  Uiso   1.00
O1690  O     0.89954   0.69747   0.84717   0.00000  Uiso   1.00
Zn1691 Zn    0.83333   0.88437   0.75000   0.00000  Uiso   1.00
Zn1692 Zn    0.83333   0.78229   0.75000   0.00000  Uiso   1.00
loop_
_geom_bond_atom_site_label_1
_geom_bond_atom_site_label_2
_geom_bond_distance
_geom_bond_site_symmetry_2
_ccdc_geom_bond_type
C1     O87     1.290   .     A
C1     C19     1.418   .     S
C1     O73     1.290   .     A
C2     C18     1.397   .     A
C2     H50     1.084   .     S
C2     C98     1.370   .     S
C3     C18     1.397   .     A
C3     H61     1.083   .     S
C3     C132    1.370   .     S
C4     H65     1.083   .     S
C4     C19     1.397   .     A
C4     C190    1.370   1_455 S
C5     C16     1.408   .     A
C5     C9      1.400   .     A
C5     O77     1.384   .     S
C6     O78     1.385   .     S
C6     C17     1.404   .     A
C6     C10     1.388   .     A
C7     C11     1.398   .     A
C7     C17     1.397   .     A
C7     O79     1.384   .     S
C8     C13     1.391   .     A
C8     C16     1.398   .     A
C8     O80     1.385   .     S
C9     C14     1.408   .     A
C9     O81     1.389   .     S
C10    C15     1.413   .     A
C10    O82     1.382   .     S
C11    C15     1.418   .     A
C11    O83     1.385   .     S
C12    O84     1.290   .     A
C12    C18     1.418   .     S
C12    O86     1.290   .     A
C13    C14     1.407   .     A
C13    O85     1.379   .     S
C14    C23     1.451   .     S
C15    C33     1.465   .     S
C16    C863    1.450   1_554 S
C17    C862    1.450   .     S
C19    C38     1.397   .     A
C20    O92     1.221   .     D
C20    H66     1.068   .     S
C20    C34     1.490   .     S
C21    H67     1.067   .     S
C21    O74     1.220   .     D
C21    C35     1.492   .     S
C22    O75     1.221   .     D
C22    H68     1.074   .     S
C22    C36     1.476   .     S
C23    O88     1.297   .     A
C23    O91     1.299   .     A
C24    H69     1.078   .     S
C24    O76     1.221   .     D
C24    C37     1.478   .     S
C25    O77     1.409   .     S
C25    H41     1.114   .     S
C25    H70     1.109   .     S
C25    H886    1.110   1_554 S
C26    O78     1.409   .     S
C26    H42     1.114   .     S
C26    H889    1.109   .     S
C26    H890    1.111   .     S
C27    O79     1.410   .     S
C27    H45     1.109   .     S
C27    H46     1.113   .     S
C27    H47     1.112   .     S
C28    H51     1.113   .     S
C28    H49     1.109   .     S
C28    H48     1.112   .     S
C28    O80     1.410   .     S
C29    H54     1.110   .     S
C29    O81     1.414   .     S
C29    H53     1.110   .     S
C29    H52     1.115   .     S
C30    H57     1.112   .     S
C30    H56     1.115   .     S
C30    O82     1.412   .     S
C30    H55     1.108   .     S
C31    H58     1.105   .     S
C31    O83     1.412   .     S
C31    H59     1.115   .     S
C31    H60     1.110   .     S
C32    H64     1.112   .     S
C32    H63     1.114   .     S
C32    O85     1.413   .     S
C32    H62     1.105   .     S
C33    O89     1.302   .     A
C33    O90     1.300   .     A
C34    N72     1.381   .     A
C34    C601    1.435   1_545 S
C35    N71     1.379   .     A
C35    C318    1.434   .     S
C36    N72     1.371   .     A
C36    C599    1.434   1_545 S
C37    N71     1.370   .     A
C37    C316    1.435   .     S
C38    H39     1.084   .     S
C38    C191    1.370   1_455 S
H40    C871    1.110   .     S
H43    C872    1.109   1_554 S
H44    C872    1.111   1_554 S
N71    Zn93    2.029   .     S
N72    Zn94    2.029   .     S
O73    Zn93    1.997   .     S
O84    Zn94    1.997   .     S
O86    Zn93    1.996   .     S
O87    Zn94    1.996   .     S
O88    Zn93    2.000   .     S
O89    Zn94    2.000   .     S
O90    Zn93    2.011   .     S
O91    Zn94    2.011   .     S
C95    O181    1.290   .     A
C95    C113    1.418   .     S
C95    O167    1.290   .     A
C96    C112    1.397   .     A
C96    H144    1.084   .     S
C96    C192    1.370   .     S
C97    C112    1.397   .     A
C97    H155    1.083   .     S
C97    C226    1.370   .     S
C98    H159    1.083   .     S
C98    C113    1.397   .     A
C99    C110    1.408   .     A
C99    C103    1.400   .     A
C99    O171    1.384   .     S
C100   O172    1.385   .     S
C100   C111    1.404   .     A
C100   C104    1.388   .     A
C101   C105    1.398   .     A
C101   C111    1.397   .     A
C101   O173    1.384   .     S
C102   C107    1.391   .     A
C102   C110    1.398   .     A
C102   O174    1.385   .     S
C103   C108    1.408   .     A
C103   O175    1.389   .     S
C104   C109    1.413   .     A
C104   O176    1.382   .     S
C105   C109    1.418   .     A
C105   O177    1.385   .     S
C106   O178    1.290   .     A
C106   C112    1.418   .     S
C106   O180    1.290   .     A
C107   C108    1.407   .     A
C107   O179    1.379   .     S
C108   C117    1.451   .     S
C109   C127    1.465   .     S
C110   C957    1.450   1_554 S
C111   C956    1.450   .     S
C113   C132    1.397   .     A
C114   O186    1.221   .     D
C114   H160    1.068   .     S
C114   C128    1.490   .     S
C115   H161    1.067   .     S
C115   O168    1.220   .     D
C115   C129    1.492   .     S
C116   O169    1.221   .     D
C116   H162    1.074   .     S
C116   C130    1.476   .     S
C117   O182    1.297   .     A
C117   O185    1.299   .     A
C118   H163    1.078   .     S
C118   O170    1.221   .     D
C118   C131    1.478   .     S
C119   O171    1.409   .     S
C119   H135    1.114   .     S
C119   H164    1.109   .     S
C119   H980    1.110   1_554 S
C120   O172    1.409   .     S
C120   H136    1.114   .     S
C120   H983    1.109   .     S
C120   H984    1.111   .     S
C121   O173    1.410   .     S
C121   H139    1.109   .     S
C121   H140    1.113   .     S
C121   H141    1.112   .     S
C122   H145    1.113   .     S
C122   H143    1.109   .     S
C122   H142    1.112   .     S
C122   O174    1.410   .     S
C123   H148    1.110   .     S
C123   O175    1.414   .     S
C123   H147    1.110   .     S
C123   H146    1.115   .     S
C124   H151    1.112   .     S
C124   H150    1.115   .     S
C124   O176    1.412   .     S
C124   H149    1.108   .     S
C125   H152    1.105   .     S
C125   O177    1.412   .     S
C125   H153    1.115   .     S
C125   H154    1.110   .     S
C126   H158    1.112   .     S
C126   H157    1.114   .     S
C126   O179    1.413   .     S
C126   H156    1.105   .     S
C127   O183    1.302   .     A
C127   O184    1.300   .     A
C128   N166    1.381   .     A
C128   C695    1.435   1_545 S
C129   N165    1.379   .     A
C129   C412    1.434   .     S
C130   N166    1.371   .     A
C130   C693    1.434   1_545 S
C131   N165    1.370   .     A
C131   C410    1.435   .     S
C132   H133    1.084   .     S
H134   C965    1.110   .     S
H137   C966    1.109   1_554 S
H138   C966    1.111   1_554 S
N165   Zn187   2.029   .     S
N166   Zn188   2.029   .     S
O167   Zn187   1.997   .     S
O178   Zn188   1.997   .     S
O180   Zn187   1.996   .     S
O181   Zn188   1.996   .     S
O182   Zn187   2.000   .     S
O183   Zn188   2.000   .     S
O184   Zn187   2.011   .     S
O185   Zn188   2.011   .     S
C189   O275    1.290   .     A
C189   C207    1.418   .     S
C189   O261    1.290   .     A
C190   C206    1.397   .     A
C190   H238    1.084   .     S
C190   C4      1.370   1_655 S
C191   C206    1.397   .     A
C191   H249    1.083   .     S
C191   C38     1.370   1_655 S
C192   H253    1.083   .     S
C192   C207    1.397   .     A
C193   C204    1.408   .     A
C193   C197    1.400   .     A
C193   O265    1.384   .     S
C194   O266    1.385   .     S
C194   C205    1.404   .     A
C194   C198    1.388   .     A
C195   C199    1.398   .     A
C195   C205    1.397   .     A
C195   O267    1.384   .     S
C196   C201    1.391   .     A
C196   C204    1.398   .     A
C196   O268    1.385   .     S
C197   C202    1.408   .     A
C197   O269    1.389   .     S
C198   C203    1.413   .     A
C198   O270    1.382   .     S
C199   C203    1.418   .     A
C199   O271    1.385   .     S
C200   O272    1.290   .     A
C200   C206    1.418   .     S
C200   O274    1.290   .     A
C201   C202    1.407   .     A
C201   O273    1.379   .     S
C202   C211    1.451   .     S
C203   C221    1.465   .     S
C204   C1051   1.450   1_554 S
C205   C1050   1.450   .     S
C207   C226    1.397   .     A
C208   O280    1.221   .     D
C208   H254    1.068   .     S
C208   C222    1.490   .     S
C209   H255    1.067   .     S
C209   O262    1.220   .     D
C209   C223    1.492   .     S
C210   O263    1.221   .     D
C210   H256    1.074   .     S
C210   C224    1.476   .     S
C211   O276    1.297   .     A
C211   O279    1.299   .     A
C212   H257    1.078   .     S
C212   O264    1.221   .     D
C212   C225    1.478   .     S
C213   O265    1.409   .     S
C213   H229    1.114   .     S
C213   H258    1.109   .     S
C213   H1074   1.110   1_554 S
C214   O266    1.409   .     S
C214   H230    1.114   .     S
C214   H1077   1.109   .     S
C214   H1078   1.111   .     S
C215   O267    1.410   .     S
C215   H233    1.109   .     S
C215   H234    1.113   .     S
C215   H235    1.112   .     S
C216   H239    1.113   .     S
C216   H237    1.109   .     S
C216   H236    1.112   .     S
C216   O268    1.410   .     S
C217   H242    1.110   .     S
C217   O269    1.414   .     S
C217   H241    1.110   .     S
C217   H240    1.115   .     S
C218   H245    1.112   .     S
C218   H244    1.115   .     S
C218   O270    1.412   .     S
C218   H243    1.108   .     S
C219   H246    1.105   .     S
C219   O271    1.412   .     S
C219   H247    1.115   .     S
C219   H248    1.110   .     S
C220   H252    1.112   .     S
C220   H251    1.114   .     S
C220   O273    1.413   .     S
C220   H250    1.105   .     S
C221   O277    1.302   .     A
C221   O278    1.300   .     A
C222   N260    1.381   .     A
C222   C789    1.435   1_545 S
C223   N259    1.379   .     A
C223   C506    1.434   .     S
C224   N260    1.371   .     A
C224   C787    1.434   1_545 S
C225   N259    1.370   .     A
C225   C504    1.435   .     S
C226   H227    1.084   .     S
H228   C1059   1.110   .     S
H231   C1060   1.109   1_554 S
H232   C1060   1.111   1_554 S
N259   Zn281   2.029   .     S
N260   Zn282   2.029   .     S
O261   Zn281   1.997   .     S
O272   Zn282   1.997   .     S
O274   Zn281   1.996   .     S
O275   Zn282   1.996   .     S
O276   Zn281   2.000   .     S
O277   Zn282   2.000   .     S
O278   Zn281   2.011   .     S
O279   Zn282   2.011   .     S
C283   O369    1.290   .     A
C283   C301    1.418   .     S
C283   O355    1.290   .     A
C284   C300    1.397   .     A
C284   H332    1.084   .     S
C284   C380    1.370   .     S
C285   C300    1.397   .     A
C285   H343    1.083   .     S
C285   C414    1.370   .     S
C286   H347    1.083   .     S
C286   C301    1.397   .     A
C286   C472    1.370   1_455 S
C287   C298    1.408   .     A
C287   C291    1.400   .     A
C287   O359    1.384   .     S
C288   O360    1.385   .     S
C288   C299    1.404   .     A
C288   C292    1.388   .     A
C289   C293    1.398   .     A
C289   C299    1.397   .     A
C289   O361    1.384   .     S
C290   C295    1.391   .     A
C290   C298    1.398   .     A
C290   O362    1.385   .     S
C291   C296    1.408   .     A
C291   O363    1.389   .     S
C292   C297    1.413   .     A
C292   O364    1.382   .     S
C293   C297    1.418   .     A
C293   O365    1.385   .     S
C294   O366    1.290   .     A
C294   C300    1.418   .     S
C294   O368    1.290   .     A
C295   C296    1.407   .     A
C295   O367    1.379   .     S
C296   C305    1.451   .     S
C297   C315    1.465   .     S
C298   C1145   1.450   1_554 S
C299   C1144   1.450   .     S
C301   C320    1.397   .     A
C302   O374    1.221   .     D
C302   H348    1.068   .     S
C302   C316    1.490   .     S
C303   H349    1.067   .     S
C303   O356    1.220   .     D
C303   C317    1.492   .     S
C304   O357    1.221   .     D
C304   H350    1.074   .     S
C304   C318    1.476   .     S
C305   O370    1.297   .     A
C305   O373    1.299   .     A
C306   H351    1.078   .     S
C306   O358    1.221   .     D
C306   C319    1.478   .     S
C307   O359    1.409   .     S
C307   H323    1.114   .     S
C307   H352    1.109   .     S
C307   H1168   1.110   1_554 S
C308   O360    1.409   .     S
C308   H324    1.114   .     S
C308   H1171   1.109   .     S
C308   H1172   1.111   .     S
C309   O361    1.410   .     S
C309   H327    1.109   .     S
C309   H328    1.113   .     S
C309   H329    1.112   .     S
C310   H333    1.113   .     S
C310   H331    1.109   .     S
C310   H330    1.112   .     S
C310   O362    1.410   .     S
C311   H336    1.110   .     S
C311   O363    1.414   .     S
C311   H335    1.110   .     S
C311   H334    1.115   .     S
C312   H339    1.112   .     S
C312   H338    1.115   .     S
C312   O364    1.412   .     S
C312   H337    1.108   .     S
C313   H340    1.105   .     S
C313   O365    1.412   .     S
C313   H341    1.115   .     S
C313   H342    1.110   .     S
C314   H346    1.112   .     S
C314   H345    1.114   .     S
C314   O367    1.413   .     S
C314   H344    1.105   .     S
C315   O371    1.302   .     A
C315   O372    1.300   .     A
C316   N354    1.381   .     A
C317   N353    1.379   .     A
C317   C600    1.434   .     S
C318   N354    1.371   .     A
C319   N353    1.370   .     A
C319   C598    1.435   .     S
C320   H321    1.084   .     S
C320   C473    1.370   1_455 S
H322   C1153   1.110   .     S
H325   C1154   1.109   1_554 S
H326   C1154   1.111   1_554 S
N353   Zn375   2.029   .     S
N354   Zn376   2.029   .     S
O355   Zn375   1.997   .     S
O366   Zn376   1.997   .     S
O368   Zn375   1.996   .     S
O369   Zn376   1.996   .     S
O370   Zn375   2.000   .     S
O371   Zn376   2.000   .     S
O372   Zn375   2.011   .     S
O373   Zn376   2.011   .     S
C377   O463    1.290   .     A
C377   C395    1.418   .     S
C377   O449    1.290   .     A
C378   C394    1.397   .     A
C378   H426    1.084   .     S
C378   C474    1.370   .     S
C379   C394    1.397   .     A
C379   H437    1.083   .     S
C379   C508    1.370   .     S
C380   H441    1.083   .     S
C380   C395    1.397   .     A
C381   C392    1.408   .     A
C381   C385    1.400   .     A
C381   O453    1.384   .     S
C382   O454    1.385   .     S
C382   C393    1.404   .     A
C382   C386    1.388   .     A
C383   C387    1.398   .     A
C383   C393    1.397   .     A
C383   O455    1.384   .     S
C384   C389    1.391   .     A
C384   C392    1.398   .     A
C384   O456    1.385   .     S
C385   C390    1.408   .     A
C385   O457    1.389   .     S
C386   C391    1.413   .     A
C386   O458    1.382   .     S
C387   C391    1.418   .     A
C387   O459    1.385   .     S
C388   O460    1.290   .     A
C388   C394    1.418   .     S
C388   O462    1.290   .     A
C389   C390    1.407   .     A
C389   O461    1.379   .     S
C390   C399    1.451   .     S
C391   C409    1.465   .     S
C392   C1239   1.450   1_554 S
C393   C1238   1.450   .     S
C395   C414    1.397   .     A
C396   O468    1.221   .     D
C396   H442    1.068   .     S
C396   C410    1.490   .     S
C397   H443    1.067   .     S
C397   O450    1.220   .     D
C397   C411    1.492   .     S
C398   O451    1.221   .     D
C398   H444    1.074   .     S
C398   C412    1.476   .     S
C399   O464    1.297   .     A
C399   O467    1.299   .     A
C400   H445    1.078   .     S
C400   O452    1.221   .     D
C400   C413    1.478   .     S
C401   O453    1.409   .     S
C401   H417    1.114   .     S
C401   H446    1.109   .     S
C401   H1262   1.110   1_554 S
C402   O454    1.409   .     S
C402   H418    1.114   .     S
C402   H1265   1.109   .     S
C402   H1266   1.111   .     S
C403   O455    1.410   .     S
C403   H421    1.109   .     S
C403   H422    1.113   .     S
C403   H423    1.112   .     S
C404   H427    1.113   .     S
C404   H425    1.109   .     S
C404   H424    1.112   .     S
C404   O456    1.410   .     S
C405   H430    1.110   .     S
C405   O457    1.414   .     S
C405   H429    1.110   .     S
C405   H428    1.115   .     S
C406   H433    1.112   .     S
C406   H432    1.115   .     S
C406   O458    1.412   .     S
C406   H431    1.108   .     S
C407   H434    1.105   .     S
C407   O459    1.412   .     S
C407   H435    1.115   .     S
C407   H436    1.110   .     S
C408   H440    1.112   .     S
C408   H439    1.114   .     S
C408   O461    1.413   .     S
C408   H438    1.105   .     S
C409   O465    1.302   .     A
C409   O466    1.300   .     A
C410   N448    1.381   .     A
C411   N447    1.379   .     A
C411   C694    1.434   .     S
C412   N448    1.371   .     A
C413   N447    1.370   .     A
C413   C692    1.435   .     S
C414   H415    1.084   .     S
H416   C1247   1.110   .     S
H419   C1248   1.109   1_554 S
H420   C1248   1.111   1_554 S
N447   Zn469   2.029   .     S
N448   Zn470   2.029   .     S
O449   Zn469   1.997   .     S
O460   Zn470   1.997   .     S
O462   Zn469   1.996   .     S
O463   Zn470   1.996   .     S
O464   Zn469   2.000   .     S
O465   Zn470   2.000   .     S
O466   Zn469   2.011   .     S
O467   Zn470   2.011   .     S
C471   O557    1.290   .     A
C471   C489    1.418   .     S
C471   O543    1.290   .     A
C472   C488    1.397   .     A
C472   H520    1.084   .     S
C472   C286    1.370   1_655 S
C473   C488    1.397   .     A
C473   H531    1.083   .     S
C473   C320    1.370   1_655 S
C474   H535    1.083   .     S
C474   C489    1.397   .     A
C475   C486    1.408   .     A
C475   C479    1.400   .     A
C475   O547    1.384   .     S
C476   O548    1.385   .     S
C476   C487    1.404   .     A
C476   C480    1.388   .     A
C477   C481    1.398   .     A
C477   C487    1.397   .     A
C477   O549    1.384   .     S
C478   C483    1.391   .     A
C478   C486    1.398   .     A
C478   O550    1.385   .     S
C479   C484    1.408   .     A
C479   O551    1.389   .     S
C480   C485    1.413   .     A
C480   O552    1.382   .     S
C481   C485    1.418   .     A
C481   O553    1.385   .     S
C482   O554    1.290   .     A
C482   C488    1.418   .     S
C482   O556    1.290   .     A
C483   C484    1.407   .     A
C483   O555    1.379   .     S
C484   C493    1.451   .     S
C485   C503    1.465   .     S
C486   C1333   1.450   1_554 S
C487   C1332   1.450   .     S
C489   C508    1.397   .     A
C490   O562    1.221   .     D
C490   H536    1.068   .     S
C490   C504    1.490   .     S
C491   H537    1.067   .     S
C491   O544    1.220   .     D
C491   C505    1.492   .     S
C492   O545    1.221   .     D
C492   H538    1.074   .     S
C492   C506    1.476   .     S
C493   O558    1.297   .     A
C493   O561    1.299   .     A
C494   H539    1.078   .     S
C494   O546    1.221   .     D
C494   C507    1.478   .     S
C495   O547    1.409   .     S
C495   H511    1.114   .     S
C495   H540    1.109   .     S
C495   H1356   1.110   1_554 S
C496   O548    1.409   .     S
C496   H512    1.114   .     S
C496   H1359   1.109   .     S
C496   H1360   1.111   .     S
C497   O549    1.410   .     S
C497   H515    1.109   .     S
C497   H516    1.113   .     S
C497   H517    1.112   .     S
C498   H521    1.113   .     S
C498   H519    1.109   .     S
C498   H518    1.112   .     S
C498   O550    1.410   .     S
C499   H524    1.110   .     S
C499   O551    1.414   .     S
C499   H523    1.110   .     S
C499   H522    1.115   .     S
C500   H527    1.112   .     S
C500   H526    1.115   .     S
C500   O552    1.412   .     S
C500   H525    1.108   .     S
C501   H528    1.105   .     S
C501   O553    1.412   .     S
C501   H529    1.115   .     S
C501   H530    1.110   .     S
C502   H534    1.112   .     S
C502   H533    1.114   .     S
C502   O555    1.413   .     S
C502   H532    1.105   .     S
C503   O559    1.302   .     A
C503   O560    1.300   .     A
C504   N542    1.381   .     A
C505   N541    1.379   .     A
C505   C788    1.434   .     S
C506   N542    1.371   .     A
C507   N541    1.370   .     A
C507   C786    1.435   .     S
C508   H509    1.084   .     S
H510   C1341   1.110   .     S
H513   C1342   1.109   1_554 S
H514   C1342   1.111   1_554 S
N541   Zn563   2.029   .     S
N542   Zn564   2.029   .     S
O543   Zn563   1.997   .     S
O554   Zn564   1.997   .     S
O556   Zn563   1.996   .     S
O557   Zn564   1.996   .     S
O558   Zn563   2.000   .     S
O559   Zn564   2.000   .     S
O560   Zn563   2.011   .     S
O561   Zn564   2.011   .     S
C565   O651    1.290   .     A
C565   C583    1.418   .     S
C565   O637    1.290   .     A
C566   C582    1.397   .     A
C566   H614    1.084   .     S
C566   C662    1.370   .     S
C567   C582    1.397   .     A
C567   H625    1.083   .     S
C567   C696    1.370   .     S
C568   H629    1.083   .     S
C568   C583    1.397   .     A
C568   C754    1.370   1_455 S
C569   C580    1.408   .     A
C569   C573    1.400   .     A
C569   O641    1.384   .     S
C570   O642    1.385   .     S
C570   C581    1.404   .     A
C570   C574    1.388   .     A
C571   C575    1.398   .     A
C571   C581    1.397   .     A
C571   O643    1.384   .     S
C572   C577    1.391   .     A
C572   C580    1.398   .     A
C572   O644    1.385   .     S
C573   C578    1.408   .     A
C573   O645    1.389   .     S
C574   C579    1.413   .     A
C574   O646    1.382   .     S
C575   C579    1.418   .     A
C575   O647    1.385   .     S
C576   O648    1.290   .     A
C576   C582    1.418   .     S
C576   O650    1.290   .     A
C577   C578    1.407   .     A
C577   O649    1.379   .     S
C578   C587    1.451   .     S
C579   C597    1.465   .     S
C580   C1427   1.450   1_554 S
C581   C1426   1.450   .     S
C583   C602    1.397   .     A
C584   O656    1.221   .     D
C584   H630    1.068   .     S
C584   C598    1.490   .     S
C585   H631    1.067   .     S
C585   O638    1.220   .     D
C585   C599    1.492   .     S
C586   O639    1.221   .     D
C586   H632    1.074   .     S
C586   C600    1.476   .     S
C587   O652    1.297   .     A
C587   O655    1.299   .     A
C588   H633    1.078   .     S
C588   O640    1.221   .     D
C588   C601    1.478   .     S
C589   O641    1.409   .     S
C589   H605    1.114   .     S
C589   H634    1.109   .     S
C589   H1450   1.110   1_554 S
C590   O642    1.409   .     S
C590   H606    1.114   .     S
C590   H1453   1.109   .     S
C590   H1454   1.111   .     S
C591   O643    1.410   .     S
C591   H609    1.109   .     S
C591   H610    1.113   .     S
C591   H611    1.112   .     S
C592   H615    1.113   .     S
C592   H613    1.109   .     S
C592   H612    1.112   .     S
C592   O644    1.410   .     S
C593   H618    1.110   .     S
C593   O645    1.414   .     S
C593   H617    1.110   .     S
C593   H616    1.115   .     S
C594   H621    1.112   .     S
C594   H620    1.115   .     S
C594   O646    1.412   .     S
C594   H619    1.108   .     S
C595   H622    1.105   .     S
C595   O647    1.412   .     S
C595   H623    1.115   .     S
C595   H624    1.110   .     S
C596   H628    1.112   .     S
C596   H627    1.114   .     S
C596   O649    1.413   .     S
C596   H626    1.105   .     S
C597   O653    1.302   .     A
C597   O654    1.300   .     A
C598   N636    1.381   .     A
C599   N635    1.379   .     A
C599   C36     1.434   1_565 S
C600   N636    1.371   .     A
C601   N635    1.370   .     A
C601   C34     1.435   1_565 S
C602   H603    1.084   .     S
C602   C755    1.370   1_455 S
H604   C1435   1.110   .     S
H607   C1436   1.109   1_554 S
H608   C1436   1.111   1_554 S
N635   Zn657   2.029   .     S
N636   Zn658   2.029   .     S
O637   Zn657   1.997   .     S
O648   Zn658   1.997   .     S
O650   Zn657   1.996   .     S
O651   Zn658   1.996   .     S
O652   Zn657   2.000   .     S
O653   Zn658   2.000   .     S
O654   Zn657   2.011   .     S
O655   Zn658   2.011   .     S
C659   O745    1.290   .     A
C659   C677    1.418   .     S
C659   O731    1.290   .     A
C660   C676    1.397   .     A
C660   H708    1.084   .     S
C660   C756    1.370   .     S
C661   C676    1.397   .     A
C661   H719    1.083   .     S
C661   C790    1.370   .     S
C662   H723    1.083   .     S
C662   C677    1.397   .     A
C663   C674    1.408   .     A
C663   C667    1.400   .     A
C663   O735    1.384   .     S
C664   O736    1.385   .     S
C664   C675    1.404   .     A
C664   C668    1.388   .     A
C665   C669    1.398   .     A
C665   C675    1.397   .     A
C665   O737    1.384   .     S
C666   C671    1.391   .     A
C666   C674    1.398   .     A
C666   O738    1.385   .     S
C667   C672    1.408   .     A
C667   O739    1.389   .     S
C668   C673    1.413   .     A
C668   O740    1.382   .     S
C669   C673    1.418   .     A
C669   O741    1.385   .     S
C670   O742    1.290   .     A
C670   C676    1.418   .     S
C670   O744    1.290   .     A
C671   C672    1.407   .     A
C671   O743    1.379   .     S
C672   C681    1.451   .     S
C673   C691    1.465   .     S
C674   C1521   1.450   1_554 S
C675   C1520   1.450   .     S
C677   C696    1.397   .     A
C678   O750    1.221   .     D
C678   H724    1.068   .     S
C678   C692    1.490   .     S
C679   H725    1.067   .     S
C679   O732    1.220   .     D
C679   C693    1.492   .     S
C680   O733    1.221   .     D
C680   H726    1.074   .     S
C680   C694    1.476   .     S
C681   O746    1.297   .     A
C681   O749    1.299   .     A
C682   H727    1.078   .     S
C682   O734    1.221   .     D
C682   C695    1.478   .     S
C683   O735    1.409   .     S
C683   H699    1.114   .     S
C683   H728    1.109   .     S
C683   H1544   1.110   1_554 S
C684   O736    1.409   .     S
C684   H700    1.114   .     S
C684   H1547   1.109   .     S
C684   H1548   1.111   .     S
C685   O737    1.410   .     S
C685   H703    1.109   .     S
C685   H704    1.113   .     S
C685   H705    1.112   .     S
C686   H709    1.113   .     S
C686   H707    1.109   .     S
C686   H706    1.112   .     S
C686   O738    1.410   .     S
C687   H712    1.110   .     S
C687   O739    1.414   .     S
C687   H711    1.110   .     S
C687   H710    1.115   .     S
C688   H715    1.112   .     S
C688   H714    1.115   .     S
C688   O740    1.412   .     S
C688   H713    1.108   .     S
C689   H716    1.105   .     S
C689   O741    1.412   .     S
C689   H717    1.115   .     S
C689   H718    1.110   .     S
C690   H722    1.112   .     S
C690   H721    1.114   .     S
C690   O743    1.413   .     S
C690   H720    1.105   .     S
C691   O747    1.302   .     A
C691   O748    1.300   .     A
C692   N730    1.381   .     A
C693   N729    1.379   .     A
C693   C130    1.434   1_565 S
C694   N730    1.371   .     A
C695   N729    1.370   .     A
C695   C128    1.435   1_565 S
C696   H697    1.084   .     S
H698   C1529   1.110   .     S
H701   C1530   1.109   1_554 S
H702   C1530   1.111   1_554 S
N729   Zn751   2.029   .     S
N730   Zn752   2.029   .     S
O731   Zn751   1.997   .     S
O742   Zn752   1.997   .     S
O744   Zn751   1.996   .     S
O745   Zn752   1.996   .     S
O746   Zn751   2.000   .     S
O747   Zn752   2.000   .     S
O748   Zn751   2.011   .     S
O749   Zn752   2.011   .     S
C753   O839    1.290   .     A
C753   C771    1.418   .     S
C753   O825    1.290   .     A
C754   C770    1.397   .     A
C754   H802    1.084   .     S
C754   C568    1.370   1_655 S
C755   C770    1.397   .     A
C755   H813    1.083   .     S
C755   C602    1.370   1_655 S
C756   H817    1.083   .     S
C756   C771    1.397   .     A
C757   C768    1.408   .     A
C757   C761    1.400   .     A
C757   O829    1.384   .     S
C758   O830    1.385   .     S
C758   C769    1.404   .     A
C758   C762    1.388   .     A
C759   C763    1.398   .     A
C759   C769    1.397   .     A
C759   O831    1.384   .     S
C760   C765    1.391   .     A
C760   C768    1.398   .     A
C760   O832    1.385   .     S
C761   C766    1.408   .     A
C761   O833    1.389   .     S
C762   C767    1.413   .     A
C762   O834    1.382   .     S
C763   C767    1.418   .     A
C763   O835    1.385   .     S
C764   O836    1.290   .     A
C764   C770    1.418   .     S
C764   O838    1.290   .     A
C765   C766    1.407   .     A
C765   O837    1.379   .     S
C766   C775    1.451   .     S
C767   C785    1.465   .     S
C768   C1615   1.450   1_554 S
C769   C1614   1.450   .     S
C771   C790    1.397   .     A
C772   O844    1.221   .     D
C772   H818    1.068   .     S
C772   C786    1.490   .     S
C773   H819    1.067   .     S
C773   O826    1.220   .     D
C773   C787    1.492   .     S
C774   O827    1.221   .     D
C774   H820    1.074   .     S
C774   C788    1.476   .     S
C775   O840    1.297   .     A
C775   O843    1.299   .     A
C776   H821    1.078   .     S
C776   O828    1.221   .     D
C776   C789    1.478   .     S
C777   O829    1.409   .     S
C777   H793    1.114   .     S
C777   H822    1.109   .     S
C777   H1638   1.110   1_554 S
C778   O830    1.409   .     S
C778   H794    1.114   .     S
C778   H1641   1.109   .     S
C778   H1642   1.111   .     S
C779   O831    1.410   .     S
C779   H797    1.109   .     S
C779   H798    1.113   .     S
C779   H799    1.112   .     S
C780   H803    1.113   .     S
C780   H801    1.109   .     S
C780   H800    1.112   .     S
C780   O832    1.410   .     S
C781   H806    1.110   .     S
C781   O833    1.414   .     S
C781   H805    1.110   .     S
C781   H804    1.115   .     S
C782   H809    1.112   .     S
C782   H808    1.115   .     S
C782   O834    1.412   .     S
C782   H807    1.108   .     S
C783   H810    1.105   .     S
C783   O835    1.412   .     S
C783   H811    1.115   .     S
C783   H812    1.110   .     S
C784   H816    1.112   .     S
C784   H815    1.114   .     S
C784   O837    1.413   .     S
C784   H814    1.105   .     S
C785   O841    1.302   .     A
C785   O842    1.300   .     A
C786   N824    1.381   .     A
C787   N823    1.379   .     A
C787   C224    1.434   1_565 S
C788   N824    1.371   .     A
C789   N823    1.370   .     A
C789   C222    1.435   1_565 S
C790   H791    1.084   .     S
H792   C1623   1.110   .     S
H795   C1624   1.109   1_554 S
H796   C1624   1.111   1_554 S
N823   Zn845   2.029   .     S
N824   Zn846   2.029   .     S
O825   Zn845   1.997   .     S
O836   Zn846   1.997   .     S
O838   Zn845   1.996   .     S
O839   Zn846   1.996   .     S
O840   Zn845   2.000   .     S
O841   Zn846   2.000   .     S
O842   Zn845   2.011   .     S
O843   Zn846   2.011   .     S
C847   O933    1.290   .     A
C847   C865    1.418   .     S
C847   O919    1.290   .     A
C848   C864    1.397   .     A
C848   H896    1.084   .     S
C848   C944    1.370   .     S
C849   C864    1.397   .     A
C849   H907    1.083   .     S
C849   C978    1.370   .     S
C850   H911    1.083   .     S
C850   C865    1.397   .     A
C850   C1036   1.370   1_455 S
C851   C862    1.408   .     A
C851   C855    1.400   .     A
C851   O923    1.384   .     S
C852   O924    1.385   .     S
C852   C863    1.404   .     A
C852   C856    1.388   .     A
C853   C857    1.398   .     A
C853   C863    1.397   .     A
C853   O925    1.384   .     S
C854   C859    1.391   .     A
C854   C862    1.398   .     A
C854   O926    1.385   .     S
C855   C860    1.408   .     A
C855   O927    1.389   .     S
C856   C861    1.413   .     A
C856   O928    1.382   .     S
C857   C861    1.418   .     A
C857   O929    1.385   .     S
C858   O930    1.290   .     A
C858   C864    1.418   .     S
C858   O932    1.290   .     A
C859   C860    1.407   .     A
C859   O931    1.379   .     S
C860   C869    1.451   .     S
C861   C879    1.465   .     S
C863   C16     1.450   1_556 S
C865   C884    1.397   .     A
C866   O938    1.221   .     D
C866   H912    1.068   .     S
C866   C880    1.490   .     S
C867   H913    1.067   .     S
C867   O920    1.220   .     D
C867   C881    1.492   .     S
C868   O921    1.221   .     D
C868   H914    1.074   .     S
C868   C882    1.476   .     S
C869   O934    1.297   .     A
C869   O937    1.299   .     A
C870   H915    1.078   .     S
C870   O922    1.221   .     D
C870   C883    1.478   .     S
C871   O923    1.409   .     S
C871   H887    1.114   .     S
C871   H916    1.109   .     S
C872   O924    1.409   .     S
C872   H888    1.114   .     S
C872   H43     1.109   1_556 S
C872   H44     1.111   1_556 S
C873   O925    1.410   .     S
C873   H891    1.109   .     S
C873   H892    1.113   .     S
C873   H893    1.112   .     S
C874   H897    1.113   .     S
C874   H895    1.109   .     S
C874   H894    1.112   .     S
C874   O926    1.410   .     S
C875   H900    1.110   .     S
C875   O927    1.414   .     S
C875   H899    1.110   .     S
C875   H898    1.115   .     S
C876   H903    1.112   .     S
C876   H902    1.115   .     S
C876   O928    1.412   .     S
C876   H901    1.108   .     S
C877   H904    1.105   .     S
C877   O929    1.412   .     S
C877   H905    1.115   .     S
C877   H906    1.110   .     S
C878   H910    1.112   .     S
C878   H909    1.114   .     S
C878   O931    1.413   .     S
C878   H908    1.105   .     S
C879   O935    1.302   .     A
C879   O936    1.300   .     A
C880   N918    1.381   .     A
C880   C1447   1.435   1_545 S
C881   N917    1.379   .     A
C881   C1164   1.434   .     S
C882   N918    1.371   .     A
C882   C1445   1.434   1_545 S
C883   N917    1.370   .     A
C883   C1162   1.435   .     S
C884   H885    1.084   .     S
C884   C1037   1.370   1_455 S
H886   C25     1.110   1_556 S
N917   Zn939   2.029   .     S
N918   Zn940   2.029   .     S
O919   Zn939   1.997   .     S
O930   Zn940   1.997   .     S
O932   Zn939   1.996   .     S
O933   Zn940   1.996   .     S
O934   Zn939   2.000   .     S
O935   Zn940   2.000   .     S
O936   Zn939   2.011   .     S
O937   Zn940   2.011   .     S
C941   O1027   1.290   .     A
C941   C959    1.418   .     S
C941   O1013   1.290   .     A
C942   C958    1.397   .     A
C942   H990    1.084   .     S
C942   C1038   1.370   .     S
C943   C958    1.397   .     A
C943   H1001   1.083   .     S
C943   C1072   1.370   .     S
C944   H1005   1.083   .     S
C944   C959    1.397   .     A
C945   C956    1.408   .     A
C945   C949    1.400   .     A
C945   O1017   1.384   .     S
C946   O1018   1.385   .     S
C946   C957    1.404   .     A
C946   C950    1.388   .     A
C947   C951    1.398   .     A
C947   C957    1.397   .     A
C947   O1019   1.384   .     S
C948   C953    1.391   .     A
C948   C956    1.398   .     A
C948   O1020   1.385   .     S
C949   C954    1.408   .     A
C949   O1021   1.389   .     S
C950   C955    1.413   .     A
C950   O1022   1.382   .     S
C951   C955    1.418   .     A
C951   O1023   1.385   .     S
C952   O1024   1.290   .     A
C952   C958    1.418   .     S
C952   O1026   1.290   .     A
C953   C954    1.407   .     A
C953   O1025   1.379   .     S
C954   C963    1.451   .     S
C955   C973    1.465   .     S
C957   C110    1.450   1_556 S
C959   C978    1.397   .     A
C960   O1032   1.221   .     D
C960   H1006   1.068   .     S
C960   C974    1.490   .     S
C961   H1007   1.067   .     S
C961   O1014   1.220   .     D
C961   C975    1.492   .     S
C962   O1015   1.221   .     D
C962   H1008   1.074   .     S
C962   C976    1.476   .     S
C963   O1028   1.297   .     A
C963   O1031   1.299   .     A
C964   H1009   1.078   .     S
C964   O1016   1.221   .     D
C964   C977    1.478   .     S
C965   O1017   1.409   .     S
C965   H981    1.114   .     S
C965   H1010   1.109   .     S
C966   O1018   1.409   .     S
C966   H982    1.114   .     S
C966   H137    1.109   1_556 S
C966   H138    1.111   1_556 S
C967   O1019   1.410   .     S
C967   H985    1.109   .     S
C967   H986    1.113   .     S
C967   H987    1.112   .     S
C968   H991    1.113   .     S
C968   H989    1.109   .     S
C968   H988    1.112   .     S
C968   O1020   1.410   .     S
C969   H994    1.110   .     S
C969   O1021   1.414   .     S
C969   H993    1.110   .     S
C969   H992    1.115   .     S
C970   H997    1.112   .     S
C970   H996    1.115   .     S
C970   O1022   1.412   .     S
C970   H995    1.108   .     S
C971   H998    1.105   .     S
C971   O1023   1.412   .     S
C971   H999    1.115   .     S
C971   H1000   1.110   .     S
C972   H1004   1.112   .     S
C972   H1003   1.114   .     S
C972   O1025   1.413   .     S
C972   H1002   1.105   .     S
C973   O1029   1.302   .     A
C973   O1030   1.300   .     A
C974   N1012   1.381   .     A
C974   C1541   1.435   1_545 S
C975   N1011   1.379   .     A
C975   C1258   1.434   .     S
C976   N1012   1.371   .     A
C976   C1539   1.434   1_545 S
C977   N1011   1.370   .     A
C977   C1256   1.435   .     S
C978   H979    1.084   .     S
H980   C119    1.110   1_556 S
N1011  Zn1033  2.029   .     S
N1012  Zn1034  2.029   .     S
O1013  Zn1033  1.997   .     S
O1024  Zn1034  1.997   .     S
O1026  Zn1033  1.996   .     S
O1027  Zn1034  1.996   .     S
O1028  Zn1033  2.000   .     S
O1029  Zn1034  2.000   .     S
O1030  Zn1033  2.011   .     S
O1031  Zn1034  2.011   .     S
C1035  O1121   1.290   .     A
C1035  C1053   1.418   .     S
C1035  O1107   1.290   .     A
C1036  C1052   1.397   .     A
C1036  H1084   1.084   .     S
C1036  C850    1.370   1_655 S
C1037  C1052   1.397   .     A
C1037  H1095   1.083   .     S
C1037  C884    1.370   1_655 S
C1038  H1099   1.083   .     S
C1038  C1053   1.397   .     A
C1039  C1050   1.408   .     A
C1039  C1043   1.400   .     A
C1039  O1111   1.384   .     S
C1040  O1112   1.385   .     S
C1040  C1051   1.404   .     A
C1040  C1044   1.388   .     A
C1041  C1045   1.398   .     A
C1041  C1051   1.397   .     A
C1041  O1113   1.384   .     S
C1042  C1047   1.391   .     A
C1042  C1050   1.398   .     A
C1042  O1114   1.385   .     S
C1043  C1048   1.408   .     A
C1043  O1115   1.389   .     S
C1044  C1049   1.413   .     A
C1044  O1116   1.382   .     S
C1045  C1049   1.418   .     A
C1045  O1117   1.385   .     S
C1046  O1118   1.290   .     A
C1046  C1052   1.418   .     S
C1046  O1120   1.290   .     A
C1047  C1048   1.407   .     A
C1047  O1119   1.379   .     S
C1048  C1057   1.451   .     S
C1049  C1067   1.465   .     S
C1051  C204    1.450   1_556 S
C1053  C1072   1.397   .     A
C1054  O1126   1.221   .     D
C1054  H1100   1.068   .     S
C1054  C1068   1.490   .     S
C1055  H1101   1.067   .     S
C1055  O1108   1.220   .     D
C1055  C1069   1.492   .     S
C1056  O1109   1.221   .     D
C1056  H1102   1.074   .     S
C1056  C1070   1.476   .     S
C1057  O1122   1.297   .     A
C1057  O1125   1.299   .     A
C1058  H1103   1.078   .     S
C1058  O1110   1.221   .     D
C1058  C1071   1.478   .     S
C1059  O1111   1.409   .     S
C1059  H1075   1.114   .     S
C1059  H1104   1.109   .     S
C1060  O1112   1.409   .     S
C1060  H1076   1.114   .     S
C1060  H231    1.109   1_556 S
C1060  H232    1.111   1_556 S
C1061  O1113   1.410   .     S
C1061  H1079   1.109   .     S
C1061  H1080   1.113   .     S
C1061  H1081   1.112   .     S
C1062  H1085   1.113   .     S
C1062  H1083   1.109   .     S
C1062  H1082   1.112   .     S
C1062  O1114   1.410   .     S
C1063  H1088   1.110   .     S
C1063  O1115   1.414   .     S
C1063  H1087   1.110   .     S
C1063  H1086   1.115   .     S
C1064  H1091   1.112   .     S
C1064  H1090   1.115   .     S
C1064  O1116   1.412   .     S
C1064  H1089   1.108   .     S
C1065  H1092   1.105   .     S
C1065  O1117   1.412   .     S
C1065  H1093   1.115   .     S
C1065  H1094   1.110   .     S
C1066  H1098   1.112   .     S
C1066  H1097   1.114   .     S
C1066  O1119   1.413   .     S
C1066  H1096   1.105   .     S
C1067  O1123   1.302   .     A
C1067  O1124   1.300   .     A
C1068  N1106   1.381   .     A
C1068  C1635   1.435   1_545 S
C1069  N1105   1.379   .     A
C1069  C1352   1.434   .     S
C1070  N1106   1.371   .     A
C1070  C1633   1.434   1_545 S
C1071  N1105   1.370   .     A
C1071  C1350   1.435   .     S
C1072  H1073   1.084   .     S
H1074  C213    1.110   1_556 S
N1105  Zn1127  2.029   .     S
N1106  Zn1128  2.029   .     S
O1107  Zn1127  1.997   .     S
O1118  Zn1128  1.997   .     S
O1120  Zn1127  1.996   .     S
O1121  Zn1128  1.996   .     S
O1122  Zn1127  2.000   .     S
O1123  Zn1128  2.000   .     S
O1124  Zn1127  2.011   .     S
O1125  Zn1128  2.011   .     S
C1129  O1215   1.290   .     A
C1129  C1147   1.418   .     S
C1129  O1201   1.290   .     A
C1130  C1146   1.397   .     A
C1130  H1178   1.084   .     S
C1130  C1226   1.370   .     S
C1131  C1146   1.397   .     A
C1131  H1189   1.083   .     S
C1131  C1260   1.370   .     S
C1132  H1193   1.083   .     S
C1132  C1147   1.397   .     A
C1132  C1318   1.370   1_455 S
C1133  C1144   1.408   .     A
C1133  C1137   1.400   .     A
C1133  O1205   1.384   .     S
C1134  O1206   1.385   .     S
C1134  C1145   1.404   .     A
C1134  C1138   1.388   .     A
C1135  C1139   1.398   .     A
C1135  C1145   1.397   .     A
C1135  O1207   1.384   .     S
C1136  C1141   1.391   .     A
C1136  C1144   1.398   .     A
C1136  O1208   1.385   .     S
C1137  C1142   1.408   .     A
C1137  O1209   1.389   .     S
C1138  C1143   1.413   .     A
C1138  O1210   1.382   .     S
C1139  C1143   1.418   .     A
C1139  O1211   1.385   .     S
C1140  O1212   1.290   .     A
C1140  C1146   1.418   .     S
C1140  O1214   1.290   .     A
C1141  C1142   1.407   .     A
C1141  O1213   1.379   .     S
C1142  C1151   1.451   .     S
C1143  C1161   1.465   .     S
C1145  C298    1.450   1_556 S
C1147  C1166   1.397   .     A
C1148  O1220   1.221   .     D
C1148  H1194   1.068   .     S
C1148  C1162   1.490   .     S
C1149  H1195   1.067   .     S
C1149  O1202   1.220   .     D
C1149  C1163   1.492   .     S
C1150  O1203   1.221   .     D
C1150  H1196   1.074   .     S
C1150  C1164   1.476   .     S
C1151  O1216   1.297   .     A
C1151  O1219   1.299   .     A
C1152  H1197   1.078   .     S
C1152  O1204   1.221   .     D
C1152  C1165   1.478   .     S
C1153  O1205   1.409   .     S
C1153  H1169   1.114   .     S
C1153  H1198   1.109   .     S
C1154  O1206   1.409   .     S
C1154  H1170   1.114   .     S
C1154  H325    1.109   1_556 S
C1154  H326    1.111   1_556 S
C1155  O1207   1.410   .     S
C1155  H1173   1.109   .     S
C1155  H1174   1.113   .     S
C1155  H1175   1.112   .     S
C1156  H1179   1.113   .     S
C1156  H1177   1.109   .     S
C1156  H1176   1.112   .     S
C1156  O1208   1.410   .     S
C1157  H1182   1.110   .     S
C1157  O1209   1.414   .     S
C1157  H1181   1.110   .     S
C1157  H1180   1.115   .     S
C1158  H1185   1.112   .     S
C1158  H1184   1.115   .     S
C1158  O1210   1.412   .     S
C1158  H1183   1.108   .     S
C1159  H1186   1.105   .     S
C1159  O1211   1.412   .     S
C1159  H1187   1.115   .     S
C1159  H1188   1.110   .     S
C1160  H1192   1.112   .     S
C1160  H1191   1.114   .     S
C1160  O1213   1.413   .     S
C1160  H1190   1.105   .     S
C1161  O1217   1.302   .     A
C1161  O1218   1.300   .     A
C1162  N1200   1.381   .     A
C1163  N1199   1.379   .     A
C1163  C1446   1.434   .     S
C1164  N1200   1.371   .     A
C1165  N1199   1.370   .     A
C1165  C1444   1.435   .     S
C1166  H1167   1.084   .     S
C1166  C1319   1.370   1_455 S
H1168  C307    1.110   1_556 S
N1199  Zn1221  2.029   .     S
N1200  Zn1222  2.029   .     S
O1201  Zn1221  1.997   .     S
O1212  Zn1222  1.997   .     S
O1214  Zn1221  1.996   .     S
O1215  Zn1222  1.996   .     S
O1216  Zn1221  2.000   .     S
O1217  Zn1222  2.000   .     S
O1218  Zn1221  2.011   .     S
O1219  Zn1222  2.011   .     S
C1223  O1309   1.290   .     A
C1223  C1241   1.418   .     S
C1223  O1295   1.290   .     A
C1224  C1240   1.397   .     A
C1224  H1272   1.084   .     S
C1224  C1320   1.370   .     S
C1225  C1240   1.397   .     A
C1225  H1283   1.083   .     S
C1225  C1354   1.370   .     S
C1226  H1287   1.083   .     S
C1226  C1241   1.397   .     A
C1227  C1238   1.408   .     A
C1227  C1231   1.400   .     A
C1227  O1299   1.384   .     S
C1228  O1300   1.385   .     S
C1228  C1239   1.404   .     A
C1228  C1232   1.388   .     A
C1229  C1233   1.398   .     A
C1229  C1239   1.397   .     A
C1229  O1301   1.384   .     S
C1230  C1235   1.391   .     A
C1230  C1238   1.398   .     A
C1230  O1302   1.385   .     S
C1231  C1236   1.408   .     A
C1231  O1303   1.389   .     S
C1232  C1237   1.413   .     A
C1232  O1304   1.382   .     S
C1233  C1237   1.418   .     A
C1233  O1305   1.385   .     S
C1234  O1306   1.290   .     A
C1234  C1240   1.418   .     S
C1234  O1308   1.290   .     A
C1235  C1236   1.407   .     A
C1235  O1307   1.379   .     S
C1236  C1245   1.451   .     S
C1237  C1255   1.465   .     S
C1239  C392    1.450   1_556 S
C1241  C1260   1.397   .     A
C1242  O1314   1.221   .     D
C1242  H1288   1.068   .     S
C1242  C1256   1.490   .     S
C1243  H1289   1.067   .     S
C1243  O1296   1.220   .     D
C1243  C1257   1.492   .     S
C1244  O1297   1.221   .     D
C1244  H1290   1.074   .     S
C1244  C1258   1.476   .     S
C1245  O1310   1.297   .     A
C1245  O1313   1.299   .     A
C1246  H1291   1.078   .     S
C1246  O1298   1.221   .     D
C1246  C1259   1.478   .     S
C1247  O1299   1.409   .     S
C1247  H1263   1.114   .     S
C1247  H1292   1.109   .     S
C1248  O1300   1.409   .     S
C1248  H1264   1.114   .     S
C1248  H419    1.109   1_556 S
C1248  H420    1.111   1_556 S
C1249  O1301   1.410   .     S
C1249  H1267   1.109   .     S
C1249  H1268   1.113   .     S
C1249  H1269   1.112   .     S
C1250  H1273   1.113   .     S
C1250  H1271   1.109   .     S
C1250  H1270   1.112   .     S
C1250  O1302   1.410   .     S
C1251  H1276   1.110   .     S
C1251  O1303   1.414   .     S
C1251  H1275   1.110   .     S
C1251  H1274   1.115   .     S
C1252  H1279   1.112   .     S
C1252  H1278   1.115   .     S
C1252  O1304   1.412   .     S
C1252  H1277   1.108   .     S
C1253  H1280   1.105   .     S
C1253  O1305   1.412   .     S
C1253  H1281   1.115   .     S
C1253  H1282   1.110   .     S
C1254  H1286   1.112   .     S
C1254  H1285   1.114   .     S
C1254  O1307   1.413   .     S
C1254  H1284   1.105   .     S
C1255  O1311   1.302   .     A
C1255  O1312   1.300   .     A
C1256  N1294   1.381   .     A
C1257  N1293   1.379   .     A
C1257  C1540   1.434   .     S
C1258  N1294   1.371   .     A
C1259  N1293   1.370   .     A
C1259  C1538   1.435   .     S
C1260  H1261   1.084   .     S
H1262  C401    1.110   1_556 S
N1293  Zn1315  2.029   .     S
N1294  Zn1316  2.029   .     S
O1295  Zn1315  1.997   .     S
O1306  Zn1316  1.997   .     S
O1308  Zn1315  1.996   .     S
O1309  Zn1316  1.996   .     S
O1310  Zn1315  2.000   .     S
O1311  Zn1316  2.000   .     S
O1312  Zn1315  2.011   .     S
O1313  Zn1316  2.011   .     S
C1317  O1403   1.290   .     A
C1317  C1335   1.418   .     S
C1317  O1389   1.290   .     A
C1318  C1334   1.397   .     A
C1318  H1366   1.084   .     S
C1318  C1132   1.370   1_655 S
C1319  C1334   1.397   .     A
C1319  H1377   1.083   .     S
C1319  C1166   1.370   1_655 S
C1320  H1381   1.083   .     S
C1320  C1335   1.397   .     A
C1321  C1332   1.408   .     A
C1321  C1325   1.400   .     A
C1321  O1393   1.384   .     S
C1322  O1394   1.385   .     S
C1322  C1333   1.404   .     A
C1322  C1326   1.388   .     A
C1323  C1327   1.398   .     A
C1323  C1333   1.397   .     A
C1323  O1395   1.384   .     S
C1324  C1329   1.391   .     A
C1324  C1332   1.398   .     A
C1324  O1396   1.385   .     S
C1325  C1330   1.408   .     A
C1325  O1397   1.389   .     S
C1326  C1331   1.413   .     A
C1326  O1398   1.382   .     S
C1327  C1331   1.418   .     A
C1327  O1399   1.385   .     S
C1328  O1400   1.290   .     A
C1328  C1334   1.418   .     S
C1328  O1402   1.290   .     A
C1329  C1330   1.407   .     A
C1329  O1401   1.379   .     S
C1330  C1339   1.451   .     S
C1331  C1349   1.465   .     S
C1333  C486    1.450   1_556 S
C1335  C1354   1.397   .     A
C1336  O1408   1.221   .     D
C1336  H1382   1.068   .     S
C1336  C1350   1.490   .     S
C1337  H1383   1.067   .     S
C1337  O1390   1.220   .     D
C1337  C1351   1.492   .     S
C1338  O1391   1.221   .     D
C1338  H1384   1.074   .     S
C1338  C1352   1.476   .     S
C1339  O1404   1.297   .     A
C1339  O1407   1.299   .     A
C1340  H1385   1.078   .     S
C1340  O1392   1.221   .     D
C1340  C1353   1.478   .     S
C1341  O1393   1.409   .     S
C1341  H1357   1.114   .     S
C1341  H1386   1.109   .     S
C1342  O1394   1.409   .     S
C1342  H1358   1.114   .     S
C1342  H513    1.109   1_556 S
C1342  H514    1.111   1_556 S
C1343  O1395   1.410   .     S
C1343  H1361   1.109   .     S
C1343  H1362   1.113   .     S
C1343  H1363   1.112   .     S
C1344  H1367   1.113   .     S
C1344  H1365   1.109   .     S
C1344  H1364   1.112   .     S
C1344  O1396   1.410   .     S
C1345  H1370   1.110   .     S
C1345  O1397   1.414   .     S
C1345  H1369   1.110   .     S
C1345  H1368   1.115   .     S
C1346  H1373   1.112   .     S
C1346  H1372   1.115   .     S
C1346  O1398   1.412   .     S
C1346  H1371   1.108   .     S
C1347  H1374   1.105   .     S
C1347  O1399   1.412   .     S
C1347  H1375   1.115   .     S
C1347  H1376   1.110   .     S
C1348  H1380   1.112   .     S
C1348  H1379   1.114   .     S
C1348  O1401   1.413   .     S
C1348  H1378   1.105   .     S
C1349  O1405   1.302   .     A
C1349  O1406   1.300   .     A
C1350  N1388   1.381   .     A
C1351  N1387   1.379   .     A
C1351  C1634   1.434   .     S
C1352  N1388   1.371   .     A
C1353  N1387   1.370   .     A
C1353  C1632   1.435   .     S
C1354  H1355   1.084   .     S
H1356  C495    1.110   1_556 S
N1387  Zn1409  2.029   .     S
N1388  Zn1410  2.029   .     S
O1389  Zn1409  1.997   .     S
O1400  Zn1410  1.997   .     S
O1402  Zn1409  1.996   .     S
O1403  Zn1410  1.996   .     S
O1404  Zn1409  2.000   .     S
O1405  Zn1410  2.000   .     S
O1406  Zn1409  2.011   .     S
O1407  Zn1410  2.011   .     S
C1411  O1497   1.290   .     A
C1411  C1429   1.418   .     S
C1411  O1483   1.290   .     A
C1412  C1428   1.397   .     A
C1412  H1460   1.084   .     S
C1412  C1508   1.370   .     S
C1413  C1428   1.397   .     A
C1413  H1471   1.083   .     S
C1413  C1542   1.370   .     S
C1414  H1475   1.083   .     S
C1414  C1429   1.397   .     A
C1414  C1600   1.370   1_455 S
C1415  C1426   1.408   .     A
C1415  C1419   1.400   .     A
C1415  O1487   1.384   .     S
C1416  O1488   1.385   .     S
C1416  C1427   1.404   .     A
C1416  C1420   1.388   .     A
C1417  C1421   1.398   .     A
C1417  C1427   1.397   .     A
C1417  O1489   1.384   .     S
C1418  C1423   1.391   .     A
C1418  C1426   1.398   .     A
C1418  O1490   1.385   .     S
C1419  C1424   1.408   .     A
C1419  O1491   1.389   .     S
C1420  C1425   1.413   .     A
C1420  O1492   1.382   .     S
C1421  C1425   1.418   .     A
C1421  O1493   1.385   .     S
C1422  O1494   1.290   .     A
C1422  C1428   1.418   .     S
C1422  O1496   1.290   .     A
C1423  C1424   1.407   .     A
C1423  O1495   1.379   .     S
C1424  C1433   1.451   .     S
C1425  C1443   1.465   .     S
C1427  C580    1.450   1_556 S
C1429  C1448   1.397   .     A
C1430  O1502   1.221   .     D
C1430  H1476   1.068   .     S
C1430  C1444   1.490   .     S
C1431  H1477   1.067   .     S
C1431  O1484   1.220   .     D
C1431  C1445   1.492   .     S
C1432  O1485   1.221   .     D
C1432  H1478   1.074   .     S
C1432  C1446   1.476   .     S
C1433  O1498   1.297   .     A
C1433  O1501   1.299   .     A
C1434  H1479   1.078   .     S
C1434  O1486   1.221   .     D
C1434  C1447   1.478   .     S
C1435  O1487   1.409   .     S
C1435  H1451   1.114   .     S
C1435  H1480   1.109   .     S
C1436  O1488   1.409   .     S
C1436  H1452   1.114   .     S
C1436  H607    1.109   1_556 S
C1436  H608    1.111   1_556 S
C1437  O1489   1.410   .     S
C1437  H1455   1.109   .     S
C1437  H1456   1.113   .     S
C1437  H1457   1.112   .     S
C1438  H1461   1.113   .     S
C1438  H1459   1.109   .     S
C1438  H1458   1.112   .     S
C1438  O1490   1.410   .     S
C1439  H1464   1.110   .     S
C1439  O1491   1.414   .     S
C1439  H1463   1.110   .     S
C1439  H1462   1.115   .     S
C1440  H1467   1.112   .     S
C1440  H1466   1.115   .     S
C1440  O1492   1.412   .     S
C1440  H1465   1.108   .     S
C1441  H1468   1.105   .     S
C1441  O1493   1.412   .     S
C1441  H1469   1.115   .     S
C1441  H1470   1.110   .     S
C1442  H1474   1.112   .     S
C1442  H1473   1.114   .     S
C1442  O1495   1.413   .     S
C1442  H1472   1.105   .     S
C1443  O1499   1.302   .     A
C1443  O1500   1.300   .     A
C1444  N1482   1.381   .     A
C1445  N1481   1.379   .     A
C1445  C882    1.434   1_565 S
C1446  N1482   1.371   .     A
C1447  N1481   1.370   .     A
C1447  C880    1.435   1_565 S
C1448  H1449   1.084   .     S
C1448  C1601   1.370   1_455 S
H1450  C589    1.110   1_556 S
N1481  Zn1503  2.029   .     S
N1482  Zn1504  2.029   .     S
O1483  Zn1503  1.997   .     S
O1494  Zn1504  1.997   .     S
O1496  Zn1503  1.996   .     S
O1497  Zn1504  1.996   .     S
O1498  Zn1503  2.000   .     S
O1499  Zn1504  2.000   .     S
O1500  Zn1503  2.011   .     S
O1501  Zn1504  2.011   .     S
C1505  O1591   1.290   .     A
C1505  C1523   1.418   .     S
C1505  O1577   1.290   .     A
C1506  C1522   1.397   .     A
C1506  H1554   1.084   .     S
C1506  C1602   1.370   .     S
C1507  C1522   1.397   .     A
C1507  H1565   1.083   .     S
C1507  C1636   1.370   .     S
C1508  H1569   1.083   .     S
C1508  C1523   1.397   .     A
C1509  C1520   1.408   .     A
C1509  C1513   1.400   .     A
C1509  O1581   1.384   .     S
C1510  O1582   1.385   .     S
C1510  C1521   1.404   .     A
C1510  C1514   1.388   .     A
C1511  C1515   1.398   .     A
C1511  C1521   1.397   .     A
C1511  O1583   1.384   .     S
C1512  C1517   1.391   .     A
C1512  C1520   1.398   .     A
C1512  O1584   1.385   .     S
C1513  C1518   1.408   .     A
C1513  O1585   1.389   .     S
C1514  C1519   1.413   .     A
C1514  O1586   1.382   .     S
C1515  C1519   1.418   .     A
C1515  O1587   1.385   .     S
C1516  O1588   1.290   .     A
C1516  C1522   1.418   .     S
C1516  O1590   1.290   .     A
C1517  C1518   1.407   .     A
C1517  O1589   1.379   .     S
C1518  C1527   1.451   .     S
C1519  C1537   1.465   .     S
C1521  C674    1.450   1_556 S
C1523  C1542   1.397   .     A
C1524  O1596   1.221   .     D
C1524  H1570   1.068   .     S
C1524  C1538   1.490   .     S
C1525  H1571   1.067   .     S
C1525  O1578   1.220   .     D
C1525  C1539   1.492   .     S
C1526  O1579   1.221   .     D
C1526  H1572   1.074   .     S
C1526  C1540   1.476   .     S
C1527  O1592   1.297   .     A
C1527  O1595   1.299   .     A
C1528  H1573   1.078   .     S
C1528  O1580   1.221   .     D
C1528  C1541   1.478   .     S
C1529  O1581   1.409   .     S
C1529  H1545   1.114   .     S
C1529  H1574   1.109   .     S
C1530  O1582   1.409   .     S
C1530  H1546   1.114   .     S
C1530  H701    1.109   1_556 S
C1530  H702    1.111   1_556 S
C1531  O1583   1.410   .     S
C1531  H1549   1.109   .     S
C1531  H1550   1.113   .     S
C1531  H1551   1.112   .     S
C1532  H1555   1.113   .     S
C1532  H1553   1.109   .     S
C1532  H1552   1.112   .     S
C1532  O1584   1.410   .     S
C1533  H1558   1.110   .     S
C1533  O1585   1.414   .     S
C1533  H1557   1.110   .     S
C1533  H1556   1.115   .     S
C1534  H1561   1.112   .     S
C1534  H1560   1.115   .     S
C1534  O1586   1.412   .     S
C1534  H1559   1.108   .     S
C1535  H1562   1.105   .     S
C1535  O1587   1.412   .     S
C1535  H1563   1.115   .     S
C1535  H1564   1.110   .     S
C1536  H1568   1.112   .     S
C1536  H1567   1.114   .     S
C1536  O1589   1.413   .     S
C1536  H1566   1.105   .     S
C1537  O1593   1.302   .     A
C1537  O1594   1.300   .     A
C1538  N1576   1.381   .     A
C1539  N1575   1.379   .     A
C1539  C976    1.434   1_565 S
C1540  N1576   1.371   .     A
C1541  N1575   1.370   .     A
C1541  C974    1.435   1_565 S
C1542  H1543   1.084   .     S
H1544  C683    1.110   1_556 S
N1575  Zn1597  2.029   .     S
N1576  Zn1598  2.029   .     S
O1577  Zn1597  1.997   .     S
O1588  Zn1598  1.997   .     S
O1590  Zn1597  1.996   .     S
O1591  Zn1598  1.996   .     S
O1592  Zn1597  2.000   .     S
O1593  Zn1598  2.000   .     S
O1594  Zn1597  2.011   .     S
O1595  Zn1598  2.011   .     S
C1599  O1685   1.290   .     A
C1599  C1617   1.418   .     S
C1599  O1671   1.290   .     A
C1600  C1616   1.397   .     A
C1600  H1648   1.084   .     S
C1600  C1414   1.370   1_655 S
C1601  C1616   1.397   .     A
C1601  H1659   1.083   .     S
C1601  C1448   1.370   1_655 S
C1602  H1663   1.083   .     S
C1602  C1617   1.397   .     A
C1603  C1614   1.408   .     A
C1603  C1607   1.400   .     A
C1603  O1675   1.384   .     S
C1604  O1676   1.385   .     S
C1604  C1615   1.404   .     A
C1604  C1608   1.388   .     A
C1605  C1609   1.398   .     A
C1605  C1615   1.397   .     A
C1605  O1677   1.384   .     S
C1606  C1611   1.391   .     A
C1606  C1614   1.398   .     A
C1606  O1678   1.385   .     S
C1607  C1612   1.408   .     A
C1607  O1679   1.389   .     S
C1608  C1613   1.413   .     A
C1608  O1680   1.382   .     S
C1609  C1613   1.418   .     A
C1609  O1681   1.385   .     S
C1610  O1682   1.290   .     A
C1610  C1616   1.418   .     S
C1610  O1684   1.290   .     A
C1611  C1612   1.407   .     A
C1611  O1683   1.379   .     S
C1612  C1621   1.451   .     S
C1613  C1631   1.465   .     S
C1615  C768    1.450   1_556 S
C1617  C1636   1.397   .     A
C1618  O1690   1.221   .     D
C1618  H1664   1.068   .     S
C1618  C1632   1.490   .     S
C1619  H1665   1.067   .     S
C1619  O1672   1.220   .     D
C1619  C1633   1.492   .     S
C1620  O1673   1.221   .     D
C1620  H1666   1.074   .     S
C1620  C1634   1.476   .     S
C1621  O1686   1.297   .     A
C1621  O1689   1.299   .     A
C1622  H1667   1.078   .     S
C1622  O1674   1.221   .     D
C1622  C1635   1.478   .     S
C1623  O1675   1.409   .     S
C1623  H1639   1.114   .     S
C1623  H1668   1.109   .     S
C1624  O1676   1.409   .     S
C1624  H1640   1.114   .     S
C1624  H795    1.109   1_556 S
C1624  H796    1.111   1_556 S
C1625  O1677   1.410   .     S
C1625  H1643   1.109   .     S
C1625  H1644   1.113   .     S
C1625  H1645   1.112   .     S
C1626  H1649   1.113   .     S
C1626  H1647   1.109   .     S
C1626  H1646   1.112   .     S
C1626  O1678   1.410   .     S
C1627  H1652   1.110   .     S
C1627  O1679   1.414   .     S
C1627  H1651   1.110   .     S
C1627  H1650   1.115   .     S
C1628  H1655   1.112   .     S
C1628  H1654   1.115   .     S
C1628  O1680   1.412   .     S
C1628  H1653   1.108   .     S
C1629  H1656   1.105   .     S
C1629  O1681   1.412   .     S
C1629  H1657   1.115   .     S
C1629  H1658   1.110   .     S
C1630  H1662   1.112   .     S
C1630  H1661   1.114   .     S
C1630  O1683   1.413   .     S
C1630  H1660   1.105   .     S
C1631  O1687   1.302   .     A
C1631  O1688   1.300   .     A
C1632  N1670   1.381   .     A
C1633  N1669   1.379   .     A
C1633  C1070   1.434   1_565 S
C1634  N1670   1.371   .     A
C1635  N1669   1.370   .     A
C1635  C1068   1.435   1_565 S
C1636  H1637   1.084   .     S
H1638  C777    1.110   1_556 S
N1669  Zn1691  2.029   .     S
N1670  Zn1692  2.029   .     S
O1671  Zn1691  1.997   .     S
O1682  Zn1692  1.997   .     S
O1684  Zn1691  1.996   .     S
O1685  Zn1692  1.996   .     S
O1686  Zn1691  2.000   .     S
O1687  Zn1692  2.000   .     S
O1688  Zn1691  2.011   .     S
O1689  Zn1692  2.011   .     S
