data_str_m2_o1_o16_pcu_sym.30
_audit_creation_date              2020-01-03
_audit_creation_method            'Materials Studio'
_symmetry_space_group_name_H-M    'P1'
_symmetry_Int_Tables_number       1
_symmetry_cell_setting            triclinic
loop_
_symmetry_equiv_pos_as_xyz
  x,y,z
_cell_length_a                    28.9053
_cell_length_b                    32.2343
_cell_length_c                    26.7397
_cell_angle_alpha                 90.9704
_cell_angle_beta                  71.7956
_cell_angle_gamma                 89.4930
loop_
_atom_site_label
_atom_site_type_symbol
_atom_site_fract_x
_atom_site_fract_y
_atom_site_fract_z
_atom_site_U_iso_or_equiv
_atom_site_adp_type
_atom_site_occupancy
C1     C     0.16675   0.24574   0.24934   0.00000  Uiso   1.00
C2     C     0.12322   0.16495   0.40921   0.00000  Uiso   1.00
C3     C     0.20008   0.31156   0.21005   0.00000  Uiso   1.00
C4     C     0.13997   0.16605   0.35055   0.00000  Uiso   1.00
C5     C     0.19923   0.02108   0.21055   0.00000  Uiso   1.00
C6     C     0.16623   0.04302   0.25192   0.00000  Uiso   1.00
C7     C     0.13320   0.02254   0.29386   0.00000  Uiso   1.00
C8     C     0.13228   0.31233   0.29284   0.00000  Uiso   1.00
C9     C     0.16624   0.29049   0.25073   0.00000  Uiso   1.00
C10    C     0.30163   0.19749   0.27584   0.00000  Uiso   1.00
C11    C     0.01733   0.19686   0.27613   0.00000  Uiso   1.00
C12    C     0.14586   0.16058   0.49018   0.00000  Uiso   1.00
C13    C     0.03278   0.13735   0.22218   0.00000  Uiso   1.00
C14    C     0.31572   0.13360   0.23015   0.00000  Uiso   1.00
C15    C     0.16662   0.08760   0.25052   0.00000  Uiso   1.00
C16    C     0.19327   0.16450   0.14975   0.00000  Uiso   1.00
C17    C     0.25648   0.11578   0.01465   0.00000  Uiso   1.00
C18    C     0.20918   0.15620   0.09230   0.00000  Uiso   1.00
C19    C     0.07640   0.18016   0.43986   0.00000  Uiso   1.00
C20    C     0.06400   0.18212   0.49456   0.00000  Uiso   1.00
C21    C     0.09821   0.17292   0.01944   0.00000  Uiso   1.00
C22    C     0.09798   0.28928   0.33631   0.00000  Uiso   1.00
C23    C     0.15552   0.15063   0.43610   0.00000  Uiso   1.00
C24    C     0.30000   0.08976   0.48778   0.00000  Uiso   1.00
C25    C     0.18249   0.15365   0.01440   0.00000  Uiso   1.00
C26    C     0.22277   0.12728   0.48851   0.00000  Uiso   1.00
C27    C     0.22744   0.11183   0.43765   0.00000  Uiso   1.00
C28    C     0.19536   0.12419   0.41147   0.00000  Uiso   1.00
C29    C     0.18041   0.17225   0.06331   0.00000  Uiso   1.00
C30    C     0.24806   0.12825   0.06754   0.00000  Uiso   1.00
Cu31   Cu    0.11978   0.16666   0.25000   0.00000  Uiso   1.00
Cu32   Cu    0.21355   0.16667   0.25000   0.00000  Uiso   1.00
H33    H     0.22444   0.03741   0.17855   0.00000  Uiso   1.00
H34    H     0.02984   0.22089   0.29726   0.00000  Uiso   1.00
H35    H     0.25576   0.08983   0.41728   0.00000  Uiso   1.00
H36    H     0.08636   0.17381   0.06199   0.00000  Uiso   1.00
H37    H     0.02767   0.19183   0.01823   0.00000  Uiso   1.00
H38    H     0.20044   0.11030   0.37300   0.00000  Uiso   1.00
H39    H     0.10967   0.26048   0.34939   0.00000  Uiso   1.00
H40    H     0.30845   0.06229   0.00636   0.00000  Uiso   1.00
I41    I     0.29658   0.10492   0.10719   0.00000  Uiso   1.00
I42    I     0.09113   0.05763   0.36161   0.00000  Uiso   1.00
I43    I     0.25770   0.24339   0.32759   0.00000  Uiso   1.00
I44    I     0.08032   0.09659   0.16400   0.00000  Uiso   1.00
I45    I     0.29642   0.07041   0.24852   0.00000  Uiso   1.00
I46    I     0.14732   0.23261   0.08708   0.00000  Uiso   1.00
I47    I     0.01989   0.20075   0.41077   0.00000  Uiso   1.00
I48    I     0.25254   0.28105   0.14551   0.00000  Uiso   1.00
N49    N     0.04931   0.16666   0.24998   0.00000  Uiso   1.00
N50    N     0.28402   0.16669   0.24999   0.00000  Uiso   1.00
O51    O     0.12708   0.22678   0.25000   0.00000  Uiso   1.00
O52    O     0.32767   0.09967   0.44520   0.00000  Uiso   1.00
O53    O     0.20627   0.22679   0.25000   0.00000  Uiso   1.00
O54    O     0.10775   0.16665   0.32549   0.00000  Uiso   1.00
O55    O     0.18694   0.16666   0.32549   0.00000  Uiso   1.00
O56    O     0.12706   0.10654   0.24999   0.00000  Uiso   1.00
O57    O     0.20625   0.10655   0.24999   0.00000  Uiso   1.00
O58    O     0.14640   0.16667   0.17451   0.00000  Uiso   1.00
O59    O     0.22559   0.16668   0.17451   0.00000  Uiso   1.00
O60    O     0.05590   0.30112   0.35628   0.00000  Uiso   1.00
C61    C     0.50008   0.24574   0.24934   0.00000  Uiso   1.00
C62    C     0.45655   0.16495   0.40921   0.00000  Uiso   1.00
C63    C     0.53341   0.31156   0.21005   0.00000  Uiso   1.00
C64    C     0.47331   0.16605   0.35055   0.00000  Uiso   1.00
C65    C     0.53256   0.02108   0.21055   0.00000  Uiso   1.00
C66    C     0.49956   0.04302   0.25192   0.00000  Uiso   1.00
C67    C     0.46654   0.02254   0.29386   0.00000  Uiso   1.00
C68    C     0.46561   0.31233   0.29284   0.00000  Uiso   1.00
C69    C     0.49957   0.29049   0.25073   0.00000  Uiso   1.00
C70    C     0.63496   0.19749   0.27584   0.00000  Uiso   1.00
C71    C     0.35067   0.19686   0.27613   0.00000  Uiso   1.00
C72    C     0.47920   0.16058   0.49018   0.00000  Uiso   1.00
C73    C     0.36611   0.13735   0.22218   0.00000  Uiso   1.00
C74    C     0.64905   0.13360   0.23015   0.00000  Uiso   1.00
C75    C     0.49996   0.08760   0.25052   0.00000  Uiso   1.00
C76    C     0.52660   0.16450   0.14975   0.00000  Uiso   1.00
C77    C     0.58982   0.11578   0.01465   0.00000  Uiso   1.00
C78    C     0.54251   0.15620   0.09230   0.00000  Uiso   1.00
C79    C     0.40973   0.18016   0.43986   0.00000  Uiso   1.00
C80    C     0.39733   0.18212   0.49456   0.00000  Uiso   1.00
C81    C     0.43155   0.17292   0.01944   0.00000  Uiso   1.00
C82    C     0.43131   0.28928   0.33631   0.00000  Uiso   1.00
C83    C     0.48885   0.15063   0.43610   0.00000  Uiso   1.00
C84    C     0.63334   0.08976   0.48778   0.00000  Uiso   1.00
C85    C     0.51582   0.15365   0.01440   0.00000  Uiso   1.00
C86    C     0.55610   0.12728   0.48851   0.00000  Uiso   1.00
C87    C     0.56078   0.11183   0.43765   0.00000  Uiso   1.00
C88    C     0.52869   0.12419   0.41147   0.00000  Uiso   1.00
C89    C     0.51374   0.17225   0.06331   0.00000  Uiso   1.00
C90    C     0.58140   0.12825   0.06754   0.00000  Uiso   1.00
Cu91   Cu    0.45311   0.16666   0.25000   0.00000  Uiso   1.00
Cu92   Cu    0.54689   0.16667   0.25000   0.00000  Uiso   1.00
H93    H     0.55777   0.03741   0.17855   0.00000  Uiso   1.00
H94    H     0.36317   0.22089   0.29726   0.00000  Uiso   1.00
H95    H     0.58910   0.08983   0.41728   0.00000  Uiso   1.00
H96    H     0.41969   0.17381   0.06199   0.00000  Uiso   1.00
H97    H     0.36101   0.19183   0.01823   0.00000  Uiso   1.00
H98    H     0.53377   0.11030   0.37300   0.00000  Uiso   1.00
H99    H     0.44300   0.26048   0.34939   0.00000  Uiso   1.00
H100   H     0.64178   0.06229   0.00636   0.00000  Uiso   1.00
I101   I     0.62991   0.10492   0.10719   0.00000  Uiso   1.00
I102   I     0.42447   0.05763   0.36161   0.00000  Uiso   1.00
I103   I     0.59103   0.24339   0.32759   0.00000  Uiso   1.00
I104   I     0.41365   0.09659   0.16400   0.00000  Uiso   1.00
I105   I     0.62975   0.07041   0.24852   0.00000  Uiso   1.00
I106   I     0.48065   0.23261   0.08708   0.00000  Uiso   1.00
I107   I     0.35322   0.20075   0.41077   0.00000  Uiso   1.00
I108   I     0.58587   0.28105   0.14551   0.00000  Uiso   1.00
N109   N     0.38265   0.16666   0.24998   0.00000  Uiso   1.00
N110   N     0.61735   0.16669   0.24999   0.00000  Uiso   1.00
O111   O     0.46042   0.22678   0.25000   0.00000  Uiso   1.00
O112   O     0.66101   0.09967   0.44520   0.00000  Uiso   1.00
O113   O     0.53961   0.22679   0.25000   0.00000  Uiso   1.00
O114   O     0.44108   0.16665   0.32549   0.00000  Uiso   1.00
O115   O     0.52027   0.16666   0.32549   0.00000  Uiso   1.00
O116   O     0.46039   0.10654   0.24999   0.00000  Uiso   1.00
O117   O     0.53958   0.10655   0.24999   0.00000  Uiso   1.00
O118   O     0.47973   0.16667   0.17451   0.00000  Uiso   1.00
O119   O     0.55892   0.16668   0.17451   0.00000  Uiso   1.00
O120   O     0.38923   0.30112   0.35628   0.00000  Uiso   1.00
C121   C     0.83342   0.24574   0.24934   0.00000  Uiso   1.00
C122   C     0.78989   0.16495   0.40921   0.00000  Uiso   1.00
C123   C     0.86675   0.31156   0.21005   0.00000  Uiso   1.00
C124   C     0.80664   0.16605   0.35055   0.00000  Uiso   1.00
C125   C     0.86590   0.02108   0.21055   0.00000  Uiso   1.00
C126   C     0.83289   0.04302   0.25192   0.00000  Uiso   1.00
C127   C     0.79987   0.02254   0.29386   0.00000  Uiso   1.00
C128   C     0.79894   0.31233   0.29284   0.00000  Uiso   1.00
C129   C     0.83291   0.29049   0.25073   0.00000  Uiso   1.00
C130   C     0.96830   0.19749   0.27584   0.00000  Uiso   1.00
C131   C     0.68400   0.19686   0.27613   0.00000  Uiso   1.00
C132   C     0.81253   0.16058   0.49018   0.00000  Uiso   1.00
C133   C     0.69944   0.13735   0.22218   0.00000  Uiso   1.00
C134   C     0.98239   0.13360   0.23015   0.00000  Uiso   1.00
C135   C     0.83329   0.08760   0.25052   0.00000  Uiso   1.00
C136   C     0.85994   0.16450   0.14975   0.00000  Uiso   1.00
C137   C     0.92315   0.11578   0.01465   0.00000  Uiso   1.00
C138   C     0.87585   0.15620   0.09230   0.00000  Uiso   1.00
C139   C     0.74307   0.18016   0.43986   0.00000  Uiso   1.00
C140   C     0.73066   0.18212   0.49456   0.00000  Uiso   1.00
C141   C     0.76488   0.17292   0.01944   0.00000  Uiso   1.00
C142   C     0.76464   0.28928   0.33631   0.00000  Uiso   1.00
C143   C     0.82218   0.15063   0.43610   0.00000  Uiso   1.00
C144   C     0.96667   0.08976   0.48778   0.00000  Uiso   1.00
C145   C     0.84916   0.15365   0.01440   0.00000  Uiso   1.00
C146   C     0.88943   0.12728   0.48851   0.00000  Uiso   1.00
C147   C     0.89411   0.11183   0.43765   0.00000  Uiso   1.00
C148   C     0.86203   0.12419   0.41147   0.00000  Uiso   1.00
C149   C     0.84707   0.17225   0.06331   0.00000  Uiso   1.00
C150   C     0.91473   0.12825   0.06754   0.00000  Uiso   1.00
Cu151  Cu    0.78645   0.16666   0.25000   0.00000  Uiso   1.00
Cu152  Cu    0.88022   0.16667   0.25000   0.00000  Uiso   1.00
H153   H     0.89111   0.03741   0.17855   0.00000  Uiso   1.00
H154   H     0.69650   0.22089   0.29726   0.00000  Uiso   1.00
H155   H     0.92243   0.08983   0.41728   0.00000  Uiso   1.00
H156   H     0.75303   0.17381   0.06199   0.00000  Uiso   1.00
H157   H     0.69434   0.19183   0.01823   0.00000  Uiso   1.00
H158   H     0.86710   0.11030   0.37300   0.00000  Uiso   1.00
H159   H     0.77633   0.26048   0.34939   0.00000  Uiso   1.00
H160   H     0.97512   0.06229   0.00636   0.00000  Uiso   1.00
I161   I     0.96325   0.10492   0.10719   0.00000  Uiso   1.00
I162   I     0.75780   0.05763   0.36161   0.00000  Uiso   1.00
I163   I     0.92437   0.24339   0.32759   0.00000  Uiso   1.00
I164   I     0.74699   0.09659   0.16400   0.00000  Uiso   1.00
I165   I     0.96309   0.07041   0.24852   0.00000  Uiso   1.00
I166   I     0.81399   0.23261   0.08708   0.00000  Uiso   1.00
I167   I     0.68656   0.20075   0.41077   0.00000  Uiso   1.00
I168   I     0.91920   0.28105   0.14551   0.00000  Uiso   1.00
N169   N     0.71598   0.16666   0.24998   0.00000  Uiso   1.00
N170   N     0.95069   0.16669   0.24999   0.00000  Uiso   1.00
O171   O     0.79375   0.22678   0.25000   0.00000  Uiso   1.00
O172   O     0.99434   0.09967   0.44520   0.00000  Uiso   1.00
O173   O     0.87294   0.22679   0.25000   0.00000  Uiso   1.00
O174   O     0.77441   0.16665   0.32549   0.00000  Uiso   1.00
O175   O     0.85360   0.16666   0.32549   0.00000  Uiso   1.00
O176   O     0.79373   0.10654   0.24999   0.00000  Uiso   1.00
O177   O     0.87292   0.10655   0.24999   0.00000  Uiso   1.00
O178   O     0.81306   0.16667   0.17451   0.00000  Uiso   1.00
O179   O     0.89225   0.16668   0.17451   0.00000  Uiso   1.00
O180   O     0.72256   0.30112   0.35628   0.00000  Uiso   1.00
C181   C     0.16675   0.57907   0.24934   0.00000  Uiso   1.00
C182   C     0.12322   0.49828   0.40921   0.00000  Uiso   1.00
C183   C     0.20008   0.64490   0.21005   0.00000  Uiso   1.00
C184   C     0.13997   0.49938   0.35055   0.00000  Uiso   1.00
C185   C     0.19923   0.35441   0.21055   0.00000  Uiso   1.00
C186   C     0.16623   0.37635   0.25192   0.00000  Uiso   1.00
C187   C     0.13320   0.35587   0.29386   0.00000  Uiso   1.00
C188   C     0.13228   0.64566   0.29284   0.00000  Uiso   1.00
C189   C     0.16624   0.62383   0.25073   0.00000  Uiso   1.00
C190   C     0.30163   0.53082   0.27584   0.00000  Uiso   1.00
C191   C     0.01733   0.53019   0.27613   0.00000  Uiso   1.00
C192   C     0.14586   0.49392   0.49018   0.00000  Uiso   1.00
C193   C     0.03278   0.47068   0.22218   0.00000  Uiso   1.00
C194   C     0.31572   0.46694   0.23015   0.00000  Uiso   1.00
C195   C     0.16662   0.42093   0.25052   0.00000  Uiso   1.00
C196   C     0.19327   0.49783   0.14975   0.00000  Uiso   1.00
C197   C     0.25648   0.44912   0.01465   0.00000  Uiso   1.00
C198   C     0.20918   0.48953   0.09230   0.00000  Uiso   1.00
C199   C     0.07640   0.51350   0.43986   0.00000  Uiso   1.00
C200   C     0.06400   0.51545   0.49456   0.00000  Uiso   1.00
C201   C     0.09821   0.50626   0.01944   0.00000  Uiso   1.00
C202   C     0.09798   0.62261   0.33631   0.00000  Uiso   1.00
C203   C     0.15552   0.48396   0.43610   0.00000  Uiso   1.00
C204   C     0.30000   0.42309   0.48778   0.00000  Uiso   1.00
C205   C     0.18249   0.48698   0.01440   0.00000  Uiso   1.00
C206   C     0.22277   0.46061   0.48851   0.00000  Uiso   1.00
C207   C     0.22744   0.44516   0.43765   0.00000  Uiso   1.00
C208   C     0.19536   0.45752   0.41147   0.00000  Uiso   1.00
C209   C     0.18041   0.50558   0.06331   0.00000  Uiso   1.00
C210   C     0.24806   0.46158   0.06754   0.00000  Uiso   1.00
Cu211  Cu    0.11978   0.49999   0.25000   0.00000  Uiso   1.00
Cu212  Cu    0.21355   0.50001   0.25000   0.00000  Uiso   1.00
H213   H     0.22444   0.37074   0.17855   0.00000  Uiso   1.00
H214   H     0.02984   0.55422   0.29726   0.00000  Uiso   1.00
H215   H     0.25576   0.42316   0.41728   0.00000  Uiso   1.00
H216   H     0.08636   0.50714   0.06199   0.00000  Uiso   1.00
H217   H     0.02767   0.52516   0.01823   0.00000  Uiso   1.00
H218   H     0.20044   0.44364   0.37300   0.00000  Uiso   1.00
H219   H     0.10967   0.59381   0.34939   0.00000  Uiso   1.00
H220   H     0.30845   0.39562   0.00636   0.00000  Uiso   1.00
I221   I     0.29658   0.43826   0.10719   0.00000  Uiso   1.00
I222   I     0.09113   0.39097   0.36161   0.00000  Uiso   1.00
I223   I     0.25770   0.57672   0.32759   0.00000  Uiso   1.00
I224   I     0.08032   0.42993   0.16400   0.00000  Uiso   1.00
I225   I     0.29642   0.40374   0.24852   0.00000  Uiso   1.00
I226   I     0.14732   0.56594   0.08708   0.00000  Uiso   1.00
I227   I     0.01989   0.53409   0.41077   0.00000  Uiso   1.00
I228   I     0.25254   0.61439   0.14551   0.00000  Uiso   1.00
N229   N     0.04931   0.49999   0.24998   0.00000  Uiso   1.00
N230   N     0.28402   0.50002   0.24999   0.00000  Uiso   1.00
O231   O     0.12708   0.56011   0.25000   0.00000  Uiso   1.00
O232   O     0.32767   0.43300   0.44520   0.00000  Uiso   1.00
O233   O     0.20627   0.56012   0.25000   0.00000  Uiso   1.00
O234   O     0.10775   0.49998   0.32549   0.00000  Uiso   1.00
O235   O     0.18694   0.49999   0.32549   0.00000  Uiso   1.00
O236   O     0.12706   0.43988   0.24999   0.00000  Uiso   1.00
O237   O     0.20625   0.43989   0.24999   0.00000  Uiso   1.00
O238   O     0.14640   0.50001   0.17451   0.00000  Uiso   1.00
O239   O     0.22559   0.50002   0.17451   0.00000  Uiso   1.00
O240   O     0.05590   0.63446   0.35628   0.00000  Uiso   1.00
C241   C     0.50008   0.57907   0.24934   0.00000  Uiso   1.00
C242   C     0.45655   0.49828   0.40921   0.00000  Uiso   1.00
C243   C     0.53341   0.64490   0.21005   0.00000  Uiso   1.00
C244   C     0.47331   0.49938   0.35055   0.00000  Uiso   1.00
C245   C     0.53256   0.35441   0.21055   0.00000  Uiso   1.00
C246   C     0.49956   0.37635   0.25192   0.00000  Uiso   1.00
C247   C     0.46654   0.35587   0.29386   0.00000  Uiso   1.00
C248   C     0.46561   0.64566   0.29284   0.00000  Uiso   1.00
C249   C     0.49957   0.62383   0.25073   0.00000  Uiso   1.00
C250   C     0.63496   0.53082   0.27584   0.00000  Uiso   1.00
C251   C     0.35067   0.53019   0.27613   0.00000  Uiso   1.00
C252   C     0.47920   0.49392   0.49018   0.00000  Uiso   1.00
C253   C     0.36611   0.47068   0.22218   0.00000  Uiso   1.00
C254   C     0.64905   0.46694   0.23015   0.00000  Uiso   1.00
C255   C     0.49996   0.42093   0.25052   0.00000  Uiso   1.00
C256   C     0.52660   0.49783   0.14975   0.00000  Uiso   1.00
C257   C     0.58982   0.44912   0.01465   0.00000  Uiso   1.00
C258   C     0.54251   0.48953   0.09230   0.00000  Uiso   1.00
C259   C     0.40973   0.51350   0.43986   0.00000  Uiso   1.00
C260   C     0.39733   0.51545   0.49456   0.00000  Uiso   1.00
C261   C     0.43155   0.50626   0.01944   0.00000  Uiso   1.00
C262   C     0.43131   0.62261   0.33631   0.00000  Uiso   1.00
C263   C     0.48885   0.48396   0.43610   0.00000  Uiso   1.00
C264   C     0.63334   0.42309   0.48778   0.00000  Uiso   1.00
C265   C     0.51582   0.48698   0.01440   0.00000  Uiso   1.00
C266   C     0.55610   0.46061   0.48851   0.00000  Uiso   1.00
C267   C     0.56078   0.44516   0.43765   0.00000  Uiso   1.00
C268   C     0.52869   0.45752   0.41147   0.00000  Uiso   1.00
C269   C     0.51374   0.50558   0.06331   0.00000  Uiso   1.00
C270   C     0.58140   0.46158   0.06754   0.00000  Uiso   1.00
Cu271  Cu    0.45311   0.49999   0.25000   0.00000  Uiso   1.00
Cu272  Cu    0.54689   0.50001   0.25000   0.00000  Uiso   1.00
H273   H     0.55777   0.37074   0.17855   0.00000  Uiso   1.00
H274   H     0.36317   0.55422   0.29726   0.00000  Uiso   1.00
H275   H     0.58910   0.42316   0.41728   0.00000  Uiso   1.00
H276   H     0.41969   0.50714   0.06199   0.00000  Uiso   1.00
H277   H     0.36101   0.52516   0.01823   0.00000  Uiso   1.00
H278   H     0.53377   0.44364   0.37300   0.00000  Uiso   1.00
H279   H     0.44300   0.59381   0.34939   0.00000  Uiso   1.00
H280   H     0.64178   0.39562   0.00636   0.00000  Uiso   1.00
I281   I     0.62991   0.43826   0.10719   0.00000  Uiso   1.00
I282   I     0.42447   0.39097   0.36161   0.00000  Uiso   1.00
I283   I     0.59103   0.57672   0.32759   0.00000  Uiso   1.00
I284   I     0.41365   0.42993   0.16400   0.00000  Uiso   1.00
I285   I     0.62975   0.40374   0.24852   0.00000  Uiso   1.00
I286   I     0.48065   0.56594   0.08708   0.00000  Uiso   1.00
I287   I     0.35322   0.53409   0.41077   0.00000  Uiso   1.00
I288   I     0.58587   0.61439   0.14551   0.00000  Uiso   1.00
N289   N     0.38265   0.49999   0.24998   0.00000  Uiso   1.00
N290   N     0.61735   0.50002   0.24999   0.00000  Uiso   1.00
O291   O     0.46042   0.56011   0.25000   0.00000  Uiso   1.00
O292   O     0.66101   0.43300   0.44520   0.00000  Uiso   1.00
O293   O     0.53961   0.56012   0.25000   0.00000  Uiso   1.00
O294   O     0.44108   0.49998   0.32549   0.00000  Uiso   1.00
O295   O     0.52027   0.49999   0.32549   0.00000  Uiso   1.00
O296   O     0.46039   0.43988   0.24999   0.00000  Uiso   1.00
O297   O     0.53958   0.43989   0.24999   0.00000  Uiso   1.00
O298   O     0.47973   0.50001   0.17451   0.00000  Uiso   1.00
O299   O     0.55892   0.50002   0.17451   0.00000  Uiso   1.00
O300   O     0.38923   0.63446   0.35628   0.00000  Uiso   1.00
C301   C     0.83342   0.57907   0.24934   0.00000  Uiso   1.00
C302   C     0.78989   0.49828   0.40921   0.00000  Uiso   1.00
C303   C     0.86675   0.64490   0.21005   0.00000  Uiso   1.00
C304   C     0.80664   0.49938   0.35055   0.00000  Uiso   1.00
C305   C     0.86590   0.35441   0.21055   0.00000  Uiso   1.00
C306   C     0.83289   0.37635   0.25192   0.00000  Uiso   1.00
C307   C     0.79987   0.35587   0.29386   0.00000  Uiso   1.00
C308   C     0.79894   0.64566   0.29284   0.00000  Uiso   1.00
C309   C     0.83291   0.62383   0.25073   0.00000  Uiso   1.00
C310   C     0.96830   0.53082   0.27584   0.00000  Uiso   1.00
C311   C     0.68400   0.53019   0.27613   0.00000  Uiso   1.00
C312   C     0.81253   0.49392   0.49018   0.00000  Uiso   1.00
C313   C     0.69944   0.47068   0.22218   0.00000  Uiso   1.00
C314   C     0.98239   0.46694   0.23015   0.00000  Uiso   1.00
C315   C     0.83329   0.42093   0.25052   0.00000  Uiso   1.00
C316   C     0.85994   0.49783   0.14975   0.00000  Uiso   1.00
C317   C     0.92315   0.44912   0.01465   0.00000  Uiso   1.00
C318   C     0.87585   0.48953   0.09230   0.00000  Uiso   1.00
C319   C     0.74307   0.51350   0.43986   0.00000  Uiso   1.00
C320   C     0.73066   0.51545   0.49456   0.00000  Uiso   1.00
C321   C     0.76488   0.50626   0.01944   0.00000  Uiso   1.00
C322   C     0.76464   0.62261   0.33631   0.00000  Uiso   1.00
C323   C     0.82218   0.48396   0.43610   0.00000  Uiso   1.00
C324   C     0.96667   0.42309   0.48778   0.00000  Uiso   1.00
C325   C     0.84916   0.48698   0.01440   0.00000  Uiso   1.00
C326   C     0.88943   0.46061   0.48851   0.00000  Uiso   1.00
C327   C     0.89411   0.44516   0.43765   0.00000  Uiso   1.00
C328   C     0.86203   0.45752   0.41147   0.00000  Uiso   1.00
C329   C     0.84707   0.50558   0.06331   0.00000  Uiso   1.00
C330   C     0.91473   0.46158   0.06754   0.00000  Uiso   1.00
Cu331  Cu    0.78645   0.49999   0.25000   0.00000  Uiso   1.00
Cu332  Cu    0.88022   0.50001   0.25000   0.00000  Uiso   1.00
H333   H     0.89111   0.37074   0.17855   0.00000  Uiso   1.00
H334   H     0.69650   0.55422   0.29726   0.00000  Uiso   1.00
H335   H     0.92243   0.42316   0.41728   0.00000  Uiso   1.00
H336   H     0.75303   0.50714   0.06199   0.00000  Uiso   1.00
H337   H     0.69434   0.52516   0.01823   0.00000  Uiso   1.00
H338   H     0.86710   0.44364   0.37300   0.00000  Uiso   1.00
H339   H     0.77633   0.59381   0.34939   0.00000  Uiso   1.00
H340   H     0.97512   0.39562   0.00636   0.00000  Uiso   1.00
I341   I     0.96325   0.43826   0.10719   0.00000  Uiso   1.00
I342   I     0.75780   0.39097   0.36161   0.00000  Uiso   1.00
I343   I     0.92437   0.57672   0.32759   0.00000  Uiso   1.00
I344   I     0.74699   0.42993   0.16400   0.00000  Uiso   1.00
I345   I     0.96309   0.40374   0.24852   0.00000  Uiso   1.00
I346   I     0.81399   0.56594   0.08708   0.00000  Uiso   1.00
I347   I     0.68656   0.53409   0.41077   0.00000  Uiso   1.00
I348   I     0.91920   0.61439   0.14551   0.00000  Uiso   1.00
N349   N     0.71598   0.49999   0.24998   0.00000  Uiso   1.00
N350   N     0.95069   0.50002   0.24999   0.00000  Uiso   1.00
O351   O     0.79375   0.56011   0.25000   0.00000  Uiso   1.00
O352   O     0.99434   0.43300   0.44520   0.00000  Uiso   1.00
O353   O     0.87294   0.56012   0.25000   0.00000  Uiso   1.00
O354   O     0.77441   0.49998   0.32549   0.00000  Uiso   1.00
O355   O     0.85360   0.49999   0.32549   0.00000  Uiso   1.00
O356   O     0.79373   0.43988   0.24999   0.00000  Uiso   1.00
O357   O     0.87292   0.43989   0.24999   0.00000  Uiso   1.00
O358   O     0.81306   0.50001   0.17451   0.00000  Uiso   1.00
O359   O     0.89225   0.50002   0.17451   0.00000  Uiso   1.00
O360   O     0.72256   0.63446   0.35628   0.00000  Uiso   1.00
C361   C     0.16675   0.91241   0.24934   0.00000  Uiso   1.00
C362   C     0.12322   0.83161   0.40921   0.00000  Uiso   1.00
C363   C     0.20008   0.97823   0.21005   0.00000  Uiso   1.00
C364   C     0.13997   0.83271   0.35055   0.00000  Uiso   1.00
C365   C     0.19923   0.68774   0.21055   0.00000  Uiso   1.00
C366   C     0.16623   0.70969   0.25192   0.00000  Uiso   1.00
C367   C     0.13320   0.68920   0.29386   0.00000  Uiso   1.00
C368   C     0.13228   0.97900   0.29284   0.00000  Uiso   1.00
C369   C     0.16624   0.95716   0.25073   0.00000  Uiso   1.00
C370   C     0.30163   0.86415   0.27584   0.00000  Uiso   1.00
C371   C     0.01733   0.86352   0.27613   0.00000  Uiso   1.00
C372   C     0.14586   0.82725   0.49018   0.00000  Uiso   1.00
C373   C     0.03278   0.80402   0.22218   0.00000  Uiso   1.00
C374   C     0.31572   0.80027   0.23015   0.00000  Uiso   1.00
C375   C     0.16662   0.75426   0.25052   0.00000  Uiso   1.00
C376   C     0.19327   0.83116   0.14975   0.00000  Uiso   1.00
C377   C     0.25648   0.78245   0.01465   0.00000  Uiso   1.00
C378   C     0.20918   0.82286   0.09230   0.00000  Uiso   1.00
C379   C     0.07640   0.84683   0.43986   0.00000  Uiso   1.00
C380   C     0.06400   0.84879   0.49456   0.00000  Uiso   1.00
C381   C     0.09821   0.83959   0.01944   0.00000  Uiso   1.00
C382   C     0.09798   0.95595   0.33631   0.00000  Uiso   1.00
C383   C     0.15552   0.81729   0.43610   0.00000  Uiso   1.00
C384   C     0.30000   0.75642   0.48778   0.00000  Uiso   1.00
C385   C     0.18249   0.82032   0.01440   0.00000  Uiso   1.00
C386   C     0.22277   0.79395   0.48851   0.00000  Uiso   1.00
C387   C     0.22744   0.77850   0.43765   0.00000  Uiso   1.00
C388   C     0.19536   0.79086   0.41147   0.00000  Uiso   1.00
C389   C     0.18041   0.83891   0.06331   0.00000  Uiso   1.00
C390   C     0.24806   0.79492   0.06754   0.00000  Uiso   1.00
Cu391  Cu    0.11978   0.83333   0.25000   0.00000  Uiso   1.00
Cu392  Cu    0.21355   0.83334   0.25000   0.00000  Uiso   1.00
H393   H     0.22444   0.70407   0.17855   0.00000  Uiso   1.00
H394   H     0.02984   0.88755   0.29726   0.00000  Uiso   1.00
H395   H     0.25576   0.75649   0.41728   0.00000  Uiso   1.00
H396   H     0.08636   0.84048   0.06199   0.00000  Uiso   1.00
H397   H     0.02767   0.85850   0.01823   0.00000  Uiso   1.00
H398   H     0.20044   0.77697   0.37300   0.00000  Uiso   1.00
H399   H     0.10967   0.92714   0.34939   0.00000  Uiso   1.00
H400   H     0.30845   0.72896   0.00636   0.00000  Uiso   1.00
I401   I     0.29658   0.77159   0.10719   0.00000  Uiso   1.00
I402   I     0.09113   0.72430   0.36161   0.00000  Uiso   1.00
I403   I     0.25770   0.91005   0.32759   0.00000  Uiso   1.00
I404   I     0.08032   0.76326   0.16400   0.00000  Uiso   1.00
I405   I     0.29642   0.73707   0.24852   0.00000  Uiso   1.00
I406   I     0.14732   0.89927   0.08708   0.00000  Uiso   1.00
I407   I     0.01989   0.86742   0.41077   0.00000  Uiso   1.00
I408   I     0.25254   0.94772   0.14551   0.00000  Uiso   1.00
N409   N     0.04931   0.83332   0.24998   0.00000  Uiso   1.00
N410   N     0.28402   0.83335   0.24999   0.00000  Uiso   1.00
O411   O     0.12708   0.89345   0.25000   0.00000  Uiso   1.00
O412   O     0.32767   0.76634   0.44520   0.00000  Uiso   1.00
O413   O     0.20627   0.89346   0.25000   0.00000  Uiso   1.00
O414   O     0.10775   0.83332   0.32549   0.00000  Uiso   1.00
O415   O     0.18694   0.83333   0.32549   0.00000  Uiso   1.00
O416   O     0.12706   0.77321   0.24999   0.00000  Uiso   1.00
O417   O     0.20625   0.77322   0.24999   0.00000  Uiso   1.00
O418   O     0.14640   0.83334   0.17451   0.00000  Uiso   1.00
O419   O     0.22559   0.83335   0.17451   0.00000  Uiso   1.00
O420   O     0.05590   0.96779   0.35628   0.00000  Uiso   1.00
C421   C     0.50008   0.91241   0.24934   0.00000  Uiso   1.00
C422   C     0.45655   0.83161   0.40921   0.00000  Uiso   1.00
C423   C     0.53341   0.97823   0.21005   0.00000  Uiso   1.00
C424   C     0.47331   0.83271   0.35055   0.00000  Uiso   1.00
C425   C     0.53256   0.68774   0.21055   0.00000  Uiso   1.00
C426   C     0.49956   0.70969   0.25192   0.00000  Uiso   1.00
C427   C     0.46654   0.68920   0.29386   0.00000  Uiso   1.00
C428   C     0.46561   0.97900   0.29284   0.00000  Uiso   1.00
C429   C     0.49957   0.95716   0.25073   0.00000  Uiso   1.00
C430   C     0.63496   0.86415   0.27584   0.00000  Uiso   1.00
C431   C     0.35067   0.86352   0.27613   0.00000  Uiso   1.00
C432   C     0.47920   0.82725   0.49018   0.00000  Uiso   1.00
C433   C     0.36611   0.80402   0.22218   0.00000  Uiso   1.00
C434   C     0.64905   0.80027   0.23015   0.00000  Uiso   1.00
C435   C     0.49996   0.75426   0.25052   0.00000  Uiso   1.00
C436   C     0.52660   0.83116   0.14975   0.00000  Uiso   1.00
C437   C     0.58982   0.78245   0.01465   0.00000  Uiso   1.00
C438   C     0.54251   0.82286   0.09230   0.00000  Uiso   1.00
C439   C     0.40973   0.84683   0.43986   0.00000  Uiso   1.00
C440   C     0.39733   0.84879   0.49456   0.00000  Uiso   1.00
C441   C     0.43155   0.83959   0.01944   0.00000  Uiso   1.00
C442   C     0.43131   0.95595   0.33631   0.00000  Uiso   1.00
C443   C     0.48885   0.81729   0.43610   0.00000  Uiso   1.00
C444   C     0.63334   0.75642   0.48778   0.00000  Uiso   1.00
C445   C     0.51582   0.82032   0.01440   0.00000  Uiso   1.00
C446   C     0.55610   0.79395   0.48851   0.00000  Uiso   1.00
C447   C     0.56078   0.77850   0.43765   0.00000  Uiso   1.00
C448   C     0.52869   0.79086   0.41147   0.00000  Uiso   1.00
C449   C     0.51374   0.83891   0.06331   0.00000  Uiso   1.00
C450   C     0.58140   0.79492   0.06754   0.00000  Uiso   1.00
Cu451  Cu    0.45311   0.83333   0.25000   0.00000  Uiso   1.00
Cu452  Cu    0.54689   0.83334   0.25000   0.00000  Uiso   1.00
H453   H     0.55777   0.70407   0.17855   0.00000  Uiso   1.00
H454   H     0.36317   0.88755   0.29726   0.00000  Uiso   1.00
H455   H     0.58910   0.75649   0.41728   0.00000  Uiso   1.00
H456   H     0.41969   0.84048   0.06199   0.00000  Uiso   1.00
H457   H     0.36101   0.85850   0.01823   0.00000  Uiso   1.00
H458   H     0.53377   0.77697   0.37300   0.00000  Uiso   1.00
H459   H     0.44300   0.92714   0.34939   0.00000  Uiso   1.00
H460   H     0.64178   0.72896   0.00636   0.00000  Uiso   1.00
I461   I     0.62991   0.77159   0.10719   0.00000  Uiso   1.00
I462   I     0.42447   0.72430   0.36161   0.00000  Uiso   1.00
I463   I     0.59103   0.91005   0.32759   0.00000  Uiso   1.00
I464   I     0.41365   0.76326   0.16400   0.00000  Uiso   1.00
I465   I     0.62975   0.73707   0.24852   0.00000  Uiso   1.00
I466   I     0.48065   0.89927   0.08708   0.00000  Uiso   1.00
I467   I     0.35322   0.86742   0.41077   0.00000  Uiso   1.00
I468   I     0.58587   0.94772   0.14551   0.00000  Uiso   1.00
N469   N     0.38265   0.83332   0.24998   0.00000  Uiso   1.00
N470   N     0.61735   0.83335   0.24999   0.00000  Uiso   1.00
O471   O     0.46042   0.89345   0.25000   0.00000  Uiso   1.00
O472   O     0.66101   0.76634   0.44520   0.00000  Uiso   1.00
O473   O     0.53961   0.89346   0.25000   0.00000  Uiso   1.00
O474   O     0.44108   0.83332   0.32549   0.00000  Uiso   1.00
O475   O     0.52027   0.83333   0.32549   0.00000  Uiso   1.00
O476   O     0.46039   0.77321   0.24999   0.00000  Uiso   1.00
O477   O     0.53958   0.77322   0.24999   0.00000  Uiso   1.00
O478   O     0.47973   0.83334   0.17451   0.00000  Uiso   1.00
O479   O     0.55892   0.83335   0.17451   0.00000  Uiso   1.00
O480   O     0.38923   0.96779   0.35628   0.00000  Uiso   1.00
C481   C     0.83342   0.91241   0.24934   0.00000  Uiso   1.00
C482   C     0.78989   0.83161   0.40921   0.00000  Uiso   1.00
C483   C     0.86675   0.97823   0.21005   0.00000  Uiso   1.00
C484   C     0.80664   0.83271   0.35055   0.00000  Uiso   1.00
C485   C     0.86590   0.68774   0.21055   0.00000  Uiso   1.00
C486   C     0.83289   0.70969   0.25192   0.00000  Uiso   1.00
C487   C     0.79987   0.68920   0.29386   0.00000  Uiso   1.00
C488   C     0.79894   0.97900   0.29284   0.00000  Uiso   1.00
C489   C     0.83291   0.95716   0.25073   0.00000  Uiso   1.00
C490   C     0.96830   0.86415   0.27584   0.00000  Uiso   1.00
C491   C     0.68400   0.86352   0.27613   0.00000  Uiso   1.00
C492   C     0.81253   0.82725   0.49018   0.00000  Uiso   1.00
C493   C     0.69944   0.80402   0.22218   0.00000  Uiso   1.00
C494   C     0.98239   0.80027   0.23015   0.00000  Uiso   1.00
C495   C     0.83329   0.75426   0.25052   0.00000  Uiso   1.00
C496   C     0.85994   0.83116   0.14975   0.00000  Uiso   1.00
C497   C     0.92315   0.78245   0.01465   0.00000  Uiso   1.00
C498   C     0.87585   0.82286   0.09230   0.00000  Uiso   1.00
C499   C     0.74307   0.84683   0.43986   0.00000  Uiso   1.00
C500   C     0.73066   0.84879   0.49456   0.00000  Uiso   1.00
C501   C     0.76488   0.83959   0.01944   0.00000  Uiso   1.00
C502   C     0.76464   0.95595   0.33631   0.00000  Uiso   1.00
C503   C     0.82218   0.81729   0.43610   0.00000  Uiso   1.00
C504   C     0.96667   0.75642   0.48778   0.00000  Uiso   1.00
C505   C     0.84916   0.82032   0.01440   0.00000  Uiso   1.00
C506   C     0.88943   0.79395   0.48851   0.00000  Uiso   1.00
C507   C     0.89411   0.77850   0.43765   0.00000  Uiso   1.00
C508   C     0.86203   0.79086   0.41147   0.00000  Uiso   1.00
C509   C     0.84707   0.83891   0.06331   0.00000  Uiso   1.00
C510   C     0.91473   0.79492   0.06754   0.00000  Uiso   1.00
Cu511  Cu    0.78645   0.83333   0.25000   0.00000  Uiso   1.00
Cu512  Cu    0.88022   0.83334   0.25000   0.00000  Uiso   1.00
H513   H     0.89111   0.70407   0.17855   0.00000  Uiso   1.00
H514   H     0.69650   0.88755   0.29726   0.00000  Uiso   1.00
H515   H     0.92243   0.75649   0.41728   0.00000  Uiso   1.00
H516   H     0.75303   0.84048   0.06199   0.00000  Uiso   1.00
H517   H     0.69434   0.85850   0.01823   0.00000  Uiso   1.00
H518   H     0.86710   0.77697   0.37300   0.00000  Uiso   1.00
H519   H     0.77633   0.92714   0.34939   0.00000  Uiso   1.00
H520   H     0.97512   0.72896   0.00636   0.00000  Uiso   1.00
I521   I     0.96325   0.77159   0.10719   0.00000  Uiso   1.00
I522   I     0.75780   0.72430   0.36161   0.00000  Uiso   1.00
I523   I     0.92437   0.91005   0.32759   0.00000  Uiso   1.00
I524   I     0.74699   0.76326   0.16400   0.00000  Uiso   1.00
I525   I     0.96309   0.73707   0.24852   0.00000  Uiso   1.00
I526   I     0.81399   0.89927   0.08708   0.00000  Uiso   1.00
I527   I     0.68656   0.86742   0.41077   0.00000  Uiso   1.00
I528   I     0.91920   0.94772   0.14551   0.00000  Uiso   1.00
N529   N     0.71598   0.83332   0.24998   0.00000  Uiso   1.00
N530   N     0.95069   0.83335   0.24999   0.00000  Uiso   1.00
O531   O     0.79375   0.89345   0.25000   0.00000  Uiso   1.00
O532   O     0.99434   0.76634   0.44520   0.00000  Uiso   1.00
O533   O     0.87294   0.89346   0.25000   0.00000  Uiso   1.00
O534   O     0.77441   0.83332   0.32549   0.00000  Uiso   1.00
O535   O     0.85360   0.83333   0.32549   0.00000  Uiso   1.00
O536   O     0.79373   0.77321   0.24999   0.00000  Uiso   1.00
O537   O     0.87292   0.77322   0.24999   0.00000  Uiso   1.00
O538   O     0.81306   0.83334   0.17451   0.00000  Uiso   1.00
O539   O     0.89225   0.83335   0.17451   0.00000  Uiso   1.00
O540   O     0.72256   0.96779   0.35628   0.00000  Uiso   1.00
C541   C     0.16675   0.24574   0.74934   0.00000  Uiso   1.00
C542   C     0.12322   0.16495   0.90921   0.00000  Uiso   1.00
C543   C     0.20008   0.31156   0.71005   0.00000  Uiso   1.00
C544   C     0.13997   0.16605   0.85055   0.00000  Uiso   1.00
C545   C     0.19923   0.02108   0.71055   0.00000  Uiso   1.00
C546   C     0.16623   0.04302   0.75192   0.00000  Uiso   1.00
C547   C     0.13320   0.02254   0.79386   0.00000  Uiso   1.00
C548   C     0.13228   0.31233   0.79284   0.00000  Uiso   1.00
C549   C     0.16624   0.29049   0.75073   0.00000  Uiso   1.00
C550   C     0.30163   0.19749   0.77584   0.00000  Uiso   1.00
C551   C     0.01733   0.19686   0.77613   0.00000  Uiso   1.00
C552   C     0.14586   0.16058   0.99018   0.00000  Uiso   1.00
C553   C     0.03278   0.13735   0.72218   0.00000  Uiso   1.00
C554   C     0.31572   0.13360   0.73015   0.00000  Uiso   1.00
C555   C     0.16662   0.08760   0.75052   0.00000  Uiso   1.00
C556   C     0.19327   0.16450   0.64975   0.00000  Uiso   1.00
C557   C     0.25648   0.11578   0.51465   0.00000  Uiso   1.00
C558   C     0.20918   0.15620   0.59230   0.00000  Uiso   1.00
C559   C     0.07640   0.18016   0.93986   0.00000  Uiso   1.00
C560   C     0.06400   0.18212   0.99456   0.00000  Uiso   1.00
C561   C     0.09821   0.17292   0.51944   0.00000  Uiso   1.00
C562   C     0.09798   0.28928   0.83631   0.00000  Uiso   1.00
C563   C     0.15552   0.15063   0.93610   0.00000  Uiso   1.00
C564   C     0.30000   0.08976   0.98778   0.00000  Uiso   1.00
C565   C     0.18249   0.15365   0.51440   0.00000  Uiso   1.00
C566   C     0.22277   0.12728   0.98851   0.00000  Uiso   1.00
C567   C     0.22744   0.11183   0.93765   0.00000  Uiso   1.00
C568   C     0.19536   0.12419   0.91147   0.00000  Uiso   1.00
C569   C     0.18041   0.17225   0.56331   0.00000  Uiso   1.00
C570   C     0.24806   0.12825   0.56754   0.00000  Uiso   1.00
Cu571  Cu    0.11978   0.16666   0.75000   0.00000  Uiso   1.00
Cu572  Cu    0.21355   0.16667   0.75000   0.00000  Uiso   1.00
H573   H     0.22444   0.03741   0.67855   0.00000  Uiso   1.00
H574   H     0.02984   0.22089   0.79726   0.00000  Uiso   1.00
H575   H     0.25576   0.08983   0.91728   0.00000  Uiso   1.00
H576   H     0.08636   0.17381   0.56199   0.00000  Uiso   1.00
H577   H     0.02767   0.19183   0.51823   0.00000  Uiso   1.00
H578   H     0.20044   0.11030   0.87300   0.00000  Uiso   1.00
H579   H     0.10967   0.26048   0.84939   0.00000  Uiso   1.00
H580   H     0.30845   0.06229   0.50636   0.00000  Uiso   1.00
I581   I     0.29658   0.10492   0.60719   0.00000  Uiso   1.00
I582   I     0.09113   0.05763   0.86161   0.00000  Uiso   1.00
I583   I     0.25770   0.24339   0.82759   0.00000  Uiso   1.00
I584   I     0.08032   0.09659   0.66400   0.00000  Uiso   1.00
I585   I     0.29642   0.07041   0.74852   0.00000  Uiso   1.00
I586   I     0.14732   0.23261   0.58708   0.00000  Uiso   1.00
I587   I     0.01989   0.20075   0.91077   0.00000  Uiso   1.00
I588   I     0.25254   0.28105   0.64551   0.00000  Uiso   1.00
N589   N     0.04931   0.16666   0.74998   0.00000  Uiso   1.00
N590   N     0.28402   0.16669   0.74999   0.00000  Uiso   1.00
O591   O     0.12708   0.22678   0.75000   0.00000  Uiso   1.00
O592   O     0.32767   0.09967   0.94520   0.00000  Uiso   1.00
O593   O     0.20627   0.22679   0.75000   0.00000  Uiso   1.00
O594   O     0.10775   0.16665   0.82549   0.00000  Uiso   1.00
O595   O     0.18694   0.16666   0.82549   0.00000  Uiso   1.00
O596   O     0.12706   0.10654   0.74999   0.00000  Uiso   1.00
O597   O     0.20625   0.10655   0.74999   0.00000  Uiso   1.00
O598   O     0.14640   0.16667   0.67451   0.00000  Uiso   1.00
O599   O     0.22559   0.16668   0.67451   0.00000  Uiso   1.00
O600   O     0.05590   0.30112   0.85628   0.00000  Uiso   1.00
C601   C     0.50008   0.24574   0.74934   0.00000  Uiso   1.00
C602   C     0.45655   0.16495   0.90921   0.00000  Uiso   1.00
C603   C     0.53341   0.31156   0.71005   0.00000  Uiso   1.00
C604   C     0.47331   0.16605   0.85055   0.00000  Uiso   1.00
C605   C     0.53256   0.02108   0.71055   0.00000  Uiso   1.00
C606   C     0.49956   0.04302   0.75192   0.00000  Uiso   1.00
C607   C     0.46654   0.02254   0.79386   0.00000  Uiso   1.00
C608   C     0.46561   0.31233   0.79284   0.00000  Uiso   1.00
C609   C     0.49957   0.29049   0.75073   0.00000  Uiso   1.00
C610   C     0.63496   0.19749   0.77584   0.00000  Uiso   1.00
C611   C     0.35067   0.19686   0.77613   0.00000  Uiso   1.00
C612   C     0.47920   0.16058   0.99018   0.00000  Uiso   1.00
C613   C     0.36611   0.13735   0.72218   0.00000  Uiso   1.00
C614   C     0.64905   0.13360   0.73015   0.00000  Uiso   1.00
C615   C     0.49996   0.08760   0.75052   0.00000  Uiso   1.00
C616   C     0.52660   0.16450   0.64975   0.00000  Uiso   1.00
C617   C     0.58982   0.11578   0.51465   0.00000  Uiso   1.00
C618   C     0.54251   0.15620   0.59230   0.00000  Uiso   1.00
C619   C     0.40973   0.18016   0.93986   0.00000  Uiso   1.00
C620   C     0.39733   0.18212   0.99456   0.00000  Uiso   1.00
C621   C     0.43155   0.17292   0.51944   0.00000  Uiso   1.00
C622   C     0.43131   0.28928   0.83631   0.00000  Uiso   1.00
C623   C     0.48885   0.15063   0.93610   0.00000  Uiso   1.00
C624   C     0.63334   0.08976   0.98778   0.00000  Uiso   1.00
C625   C     0.51582   0.15365   0.51440   0.00000  Uiso   1.00
C626   C     0.55610   0.12728   0.98851   0.00000  Uiso   1.00
C627   C     0.56078   0.11183   0.93765   0.00000  Uiso   1.00
C628   C     0.52869   0.12419   0.91147   0.00000  Uiso   1.00
C629   C     0.51374   0.17225   0.56331   0.00000  Uiso   1.00
C630   C     0.58140   0.12825   0.56754   0.00000  Uiso   1.00
Cu631  Cu    0.45311   0.16666   0.75000   0.00000  Uiso   1.00
Cu632  Cu    0.54689   0.16667   0.75000   0.00000  Uiso   1.00
H633   H     0.55777   0.03741   0.67855   0.00000  Uiso   1.00
H634   H     0.36317   0.22089   0.79726   0.00000  Uiso   1.00
H635   H     0.58910   0.08983   0.91728   0.00000  Uiso   1.00
H636   H     0.41969   0.17381   0.56199   0.00000  Uiso   1.00
H637   H     0.36101   0.19183   0.51823   0.00000  Uiso   1.00
H638   H     0.53377   0.11030   0.87300   0.00000  Uiso   1.00
H639   H     0.44300   0.26048   0.84939   0.00000  Uiso   1.00
H640   H     0.64178   0.06229   0.50636   0.00000  Uiso   1.00
I641   I     0.62991   0.10492   0.60719   0.00000  Uiso   1.00
I642   I     0.42447   0.05763   0.86161   0.00000  Uiso   1.00
I643   I     0.59103   0.24339   0.82759   0.00000  Uiso   1.00
I644   I     0.41365   0.09659   0.66400   0.00000  Uiso   1.00
I645   I     0.62975   0.07041   0.74852   0.00000  Uiso   1.00
I646   I     0.48065   0.23261   0.58708   0.00000  Uiso   1.00
I647   I     0.35322   0.20075   0.91077   0.00000  Uiso   1.00
I648   I     0.58587   0.28105   0.64551   0.00000  Uiso   1.00
N649   N     0.38265   0.16666   0.74998   0.00000  Uiso   1.00
N650   N     0.61735   0.16669   0.74999   0.00000  Uiso   1.00
O651   O     0.46042   0.22678   0.75000   0.00000  Uiso   1.00
O652   O     0.66101   0.09967   0.94520   0.00000  Uiso   1.00
O653   O     0.53961   0.22679   0.75000   0.00000  Uiso   1.00
O654   O     0.44108   0.16665   0.82549   0.00000  Uiso   1.00
O655   O     0.52027   0.16666   0.82549   0.00000  Uiso   1.00
O656   O     0.46039   0.10654   0.74999   0.00000  Uiso   1.00
O657   O     0.53958   0.10655   0.74999   0.00000  Uiso   1.00
O658   O     0.47973   0.16667   0.67451   0.00000  Uiso   1.00
O659   O     0.55892   0.16668   0.67451   0.00000  Uiso   1.00
O660   O     0.38923   0.30112   0.85628   0.00000  Uiso   1.00
C661   C     0.83342   0.24574   0.74934   0.00000  Uiso   1.00
C662   C     0.78989   0.16495   0.90921   0.00000  Uiso   1.00
C663   C     0.86675   0.31156   0.71005   0.00000  Uiso   1.00
C664   C     0.80664   0.16605   0.85055   0.00000  Uiso   1.00
C665   C     0.86590   0.02108   0.71055   0.00000  Uiso   1.00
C666   C     0.83289   0.04302   0.75192   0.00000  Uiso   1.00
C667   C     0.79987   0.02254   0.79386   0.00000  Uiso   1.00
C668   C     0.79894   0.31233   0.79284   0.00000  Uiso   1.00
C669   C     0.83291   0.29049   0.75073   0.00000  Uiso   1.00
C670   C     0.96830   0.19749   0.77584   0.00000  Uiso   1.00
C671   C     0.68400   0.19686   0.77613   0.00000  Uiso   1.00
C672   C     0.81253   0.16058   0.99018   0.00000  Uiso   1.00
C673   C     0.69944   0.13735   0.72218   0.00000  Uiso   1.00
C674   C     0.98239   0.13360   0.73015   0.00000  Uiso   1.00
C675   C     0.83329   0.08760   0.75052   0.00000  Uiso   1.00
C676   C     0.85994   0.16450   0.64975   0.00000  Uiso   1.00
C677   C     0.92315   0.11578   0.51465   0.00000  Uiso   1.00
C678   C     0.87585   0.15620   0.59230   0.00000  Uiso   1.00
C679   C     0.74307   0.18016   0.93986   0.00000  Uiso   1.00
C680   C     0.73066   0.18212   0.99456   0.00000  Uiso   1.00
C681   C     0.76488   0.17292   0.51944   0.00000  Uiso   1.00
C682   C     0.76464   0.28928   0.83631   0.00000  Uiso   1.00
C683   C     0.82218   0.15063   0.93610   0.00000  Uiso   1.00
C684   C     0.96667   0.08976   0.98778   0.00000  Uiso   1.00
C685   C     0.84916   0.15365   0.51440   0.00000  Uiso   1.00
C686   C     0.88943   0.12728   0.98851   0.00000  Uiso   1.00
C687   C     0.89411   0.11183   0.93765   0.00000  Uiso   1.00
C688   C     0.86203   0.12419   0.91147   0.00000  Uiso   1.00
C689   C     0.84707   0.17225   0.56331   0.00000  Uiso   1.00
C690   C     0.91473   0.12825   0.56754   0.00000  Uiso   1.00
Cu691  Cu    0.78645   0.16666   0.75000   0.00000  Uiso   1.00
Cu692  Cu    0.88022   0.16667   0.75000   0.00000  Uiso   1.00
H693   H     0.89111   0.03741   0.67855   0.00000  Uiso   1.00
H694   H     0.69650   0.22089   0.79726   0.00000  Uiso   1.00
H695   H     0.92243   0.08983   0.91728   0.00000  Uiso   1.00
H696   H     0.75303   0.17381   0.56199   0.00000  Uiso   1.00
H697   H     0.69434   0.19183   0.51823   0.00000  Uiso   1.00
H698   H     0.86710   0.11030   0.87300   0.00000  Uiso   1.00
H699   H     0.77633   0.26048   0.84939   0.00000  Uiso   1.00
H700   H     0.97512   0.06229   0.50636   0.00000  Uiso   1.00
I701   I     0.96325   0.10492   0.60719   0.00000  Uiso   1.00
I702   I     0.75780   0.05763   0.86161   0.00000  Uiso   1.00
I703   I     0.92437   0.24339   0.82759   0.00000  Uiso   1.00
I704   I     0.74699   0.09659   0.66400   0.00000  Uiso   1.00
I705   I     0.96309   0.07041   0.74852   0.00000  Uiso   1.00
I706   I     0.81399   0.23261   0.58708   0.00000  Uiso   1.00
I707   I     0.68656   0.20075   0.91077   0.00000  Uiso   1.00
I708   I     0.91920   0.28105   0.64551   0.00000  Uiso   1.00
N709   N     0.71598   0.16666   0.74998   0.00000  Uiso   1.00
N710   N     0.95069   0.16669   0.74999   0.00000  Uiso   1.00
O711   O     0.79375   0.22678   0.75000   0.00000  Uiso   1.00
O712   O     0.99434   0.09967   0.94520   0.00000  Uiso   1.00
O713   O     0.87294   0.22679   0.75000   0.00000  Uiso   1.00
O714   O     0.77441   0.16665   0.82549   0.00000  Uiso   1.00
O715   O     0.85360   0.16666   0.82549   0.00000  Uiso   1.00
O716   O     0.79373   0.10654   0.74999   0.00000  Uiso   1.00
O717   O     0.87292   0.10655   0.74999   0.00000  Uiso   1.00
O718   O     0.81306   0.16667   0.67451   0.00000  Uiso   1.00
O719   O     0.89225   0.16668   0.67451   0.00000  Uiso   1.00
O720   O     0.72256   0.30112   0.85628   0.00000  Uiso   1.00
C721   C     0.16675   0.57907   0.74934   0.00000  Uiso   1.00
C722   C     0.12322   0.49828   0.90921   0.00000  Uiso   1.00
C723   C     0.20008   0.64490   0.71005   0.00000  Uiso   1.00
C724   C     0.13997   0.49938   0.85055   0.00000  Uiso   1.00
C725   C     0.19923   0.35441   0.71055   0.00000  Uiso   1.00
C726   C     0.16623   0.37635   0.75192   0.00000  Uiso   1.00
C727   C     0.13320   0.35587   0.79386   0.00000  Uiso   1.00
C728   C     0.13228   0.64566   0.79284   0.00000  Uiso   1.00
C729   C     0.16624   0.62383   0.75073   0.00000  Uiso   1.00
C730   C     0.30163   0.53082   0.77584   0.00000  Uiso   1.00
C731   C     0.01733   0.53019   0.77613   0.00000  Uiso   1.00
C732   C     0.14586   0.49392   0.99018   0.00000  Uiso   1.00
C733   C     0.03278   0.47068   0.72218   0.00000  Uiso   1.00
C734   C     0.31572   0.46694   0.73015   0.00000  Uiso   1.00
C735   C     0.16662   0.42093   0.75052   0.00000  Uiso   1.00
C736   C     0.19327   0.49783   0.64975   0.00000  Uiso   1.00
C737   C     0.25648   0.44912   0.51465   0.00000  Uiso   1.00
C738   C     0.20918   0.48953   0.59230   0.00000  Uiso   1.00
C739   C     0.07640   0.51350   0.93986   0.00000  Uiso   1.00
C740   C     0.06400   0.51545   0.99456   0.00000  Uiso   1.00
C741   C     0.09821   0.50626   0.51944   0.00000  Uiso   1.00
C742   C     0.09798   0.62261   0.83631   0.00000  Uiso   1.00
C743   C     0.15552   0.48396   0.93610   0.00000  Uiso   1.00
C744   C     0.30000   0.42309   0.98778   0.00000  Uiso   1.00
C745   C     0.18249   0.48698   0.51440   0.00000  Uiso   1.00
C746   C     0.22277   0.46061   0.98851   0.00000  Uiso   1.00
C747   C     0.22744   0.44516   0.93765   0.00000  Uiso   1.00
C748   C     0.19536   0.45752   0.91147   0.00000  Uiso   1.00
C749   C     0.18041   0.50558   0.56331   0.00000  Uiso   1.00
C750   C     0.24806   0.46158   0.56754   0.00000  Uiso   1.00
Cu751  Cu    0.11978   0.49999   0.75000   0.00000  Uiso   1.00
Cu752  Cu    0.21355   0.50001   0.75000   0.00000  Uiso   1.00
H753   H     0.22444   0.37074   0.67855   0.00000  Uiso   1.00
H754   H     0.02984   0.55422   0.79726   0.00000  Uiso   1.00
H755   H     0.25576   0.42316   0.91728   0.00000  Uiso   1.00
H756   H     0.08636   0.50714   0.56199   0.00000  Uiso   1.00
H757   H     0.02767   0.52516   0.51823   0.00000  Uiso   1.00
H758   H     0.20044   0.44364   0.87300   0.00000  Uiso   1.00
H759   H     0.10967   0.59381   0.84939   0.00000  Uiso   1.00
H760   H     0.30845   0.39562   0.50636   0.00000  Uiso   1.00
I761   I     0.29658   0.43826   0.60719   0.00000  Uiso   1.00
I762   I     0.09113   0.39097   0.86161   0.00000  Uiso   1.00
I763   I     0.25770   0.57672   0.82759   0.00000  Uiso   1.00
I764   I     0.08032   0.42993   0.66400   0.00000  Uiso   1.00
I765   I     0.29642   0.40374   0.74852   0.00000  Uiso   1.00
I766   I     0.14732   0.56594   0.58708   0.00000  Uiso   1.00
I767   I     0.01989   0.53409   0.91077   0.00000  Uiso   1.00
I768   I     0.25254   0.61439   0.64551   0.00000  Uiso   1.00
N769   N     0.04931   0.49999   0.74998   0.00000  Uiso   1.00
N770   N     0.28402   0.50002   0.74999   0.00000  Uiso   1.00
O771   O     0.12708   0.56011   0.75000   0.00000  Uiso   1.00
O772   O     0.32767   0.43300   0.94520   0.00000  Uiso   1.00
O773   O     0.20627   0.56012   0.75000   0.00000  Uiso   1.00
O774   O     0.10775   0.49998   0.82549   0.00000  Uiso   1.00
O775   O     0.18694   0.49999   0.82549   0.00000  Uiso   1.00
O776   O     0.12706   0.43988   0.74999   0.00000  Uiso   1.00
O777   O     0.20625   0.43989   0.74999   0.00000  Uiso   1.00
O778   O     0.14640   0.50001   0.67451   0.00000  Uiso   1.00
O779   O     0.22559   0.50002   0.67451   0.00000  Uiso   1.00
O780   O     0.05590   0.63446   0.85628   0.00000  Uiso   1.00
C781   C     0.50008   0.57907   0.74934   0.00000  Uiso   1.00
C782   C     0.45655   0.49828   0.90921   0.00000  Uiso   1.00
C783   C     0.53341   0.64490   0.71005   0.00000  Uiso   1.00
C784   C     0.47331   0.49938   0.85055   0.00000  Uiso   1.00
C785   C     0.53256   0.35441   0.71055   0.00000  Uiso   1.00
C786   C     0.49956   0.37635   0.75192   0.00000  Uiso   1.00
C787   C     0.46654   0.35587   0.79386   0.00000  Uiso   1.00
C788   C     0.46561   0.64566   0.79284   0.00000  Uiso   1.00
C789   C     0.49957   0.62383   0.75073   0.00000  Uiso   1.00
C790   C     0.63496   0.53082   0.77584   0.00000  Uiso   1.00
C791   C     0.35067   0.53019   0.77613   0.00000  Uiso   1.00
C792   C     0.47920   0.49392   0.99018   0.00000  Uiso   1.00
C793   C     0.36611   0.47068   0.72218   0.00000  Uiso   1.00
C794   C     0.64905   0.46694   0.73015   0.00000  Uiso   1.00
C795   C     0.49996   0.42093   0.75052   0.00000  Uiso   1.00
C796   C     0.52660   0.49783   0.64975   0.00000  Uiso   1.00
C797   C     0.58982   0.44912   0.51465   0.00000  Uiso   1.00
C798   C     0.54251   0.48953   0.59230   0.00000  Uiso   1.00
C799   C     0.40973   0.51350   0.93986   0.00000  Uiso   1.00
C800   C     0.39733   0.51545   0.99456   0.00000  Uiso   1.00
C801   C     0.43155   0.50626   0.51944   0.00000  Uiso   1.00
C802   C     0.43131   0.62261   0.83631   0.00000  Uiso   1.00
C803   C     0.48885   0.48396   0.93610   0.00000  Uiso   1.00
C804   C     0.63334   0.42309   0.98778   0.00000  Uiso   1.00
C805   C     0.51582   0.48698   0.51440   0.00000  Uiso   1.00
C806   C     0.55610   0.46061   0.98851   0.00000  Uiso   1.00
C807   C     0.56078   0.44516   0.93765   0.00000  Uiso   1.00
C808   C     0.52869   0.45752   0.91147   0.00000  Uiso   1.00
C809   C     0.51374   0.50558   0.56331   0.00000  Uiso   1.00
C810   C     0.58140   0.46158   0.56754   0.00000  Uiso   1.00
Cu811  Cu    0.45311   0.49999   0.75000   0.00000  Uiso   1.00
Cu812  Cu    0.54689   0.50001   0.75000   0.00000  Uiso   1.00
H813   H     0.55777   0.37074   0.67855   0.00000  Uiso   1.00
H814   H     0.36317   0.55422   0.79726   0.00000  Uiso   1.00
H815   H     0.58910   0.42316   0.91728   0.00000  Uiso   1.00
H816   H     0.41969   0.50714   0.56199   0.00000  Uiso   1.00
H817   H     0.36101   0.52516   0.51823   0.00000  Uiso   1.00
H818   H     0.53377   0.44364   0.87300   0.00000  Uiso   1.00
H819   H     0.44300   0.59381   0.84939   0.00000  Uiso   1.00
H820   H     0.64178   0.39562   0.50636   0.00000  Uiso   1.00
I821   I     0.62991   0.43826   0.60719   0.00000  Uiso   1.00
I822   I     0.42447   0.39097   0.86161   0.00000  Uiso   1.00
I823   I     0.59103   0.57672   0.82759   0.00000  Uiso   1.00
I824   I     0.41365   0.42993   0.66400   0.00000  Uiso   1.00
I825   I     0.62975   0.40374   0.74852   0.00000  Uiso   1.00
I826   I     0.48065   0.56594   0.58708   0.00000  Uiso   1.00
I827   I     0.35322   0.53409   0.91077   0.00000  Uiso   1.00
I828   I     0.58587   0.61439   0.64551   0.00000  Uiso   1.00
N829   N     0.38265   0.49999   0.74998   0.00000  Uiso   1.00
N830   N     0.61735   0.50002   0.74999   0.00000  Uiso   1.00
O831   O     0.46042   0.56011   0.75000   0.00000  Uiso   1.00
O832   O     0.66101   0.43300   0.94520   0.00000  Uiso   1.00
O833   O     0.53961   0.56012   0.75000   0.00000  Uiso   1.00
O834   O     0.44108   0.49998   0.82549   0.00000  Uiso   1.00
O835   O     0.52027   0.49999   0.82549   0.00000  Uiso   1.00
O836   O     0.46039   0.43988   0.74999   0.00000  Uiso   1.00
O837   O     0.53958   0.43989   0.74999   0.00000  Uiso   1.00
O838   O     0.47973   0.50001   0.67451   0.00000  Uiso   1.00
O839   O     0.55892   0.50002   0.67451   0.00000  Uiso   1.00
O840   O     0.38923   0.63446   0.85628   0.00000  Uiso   1.00
C841   C     0.83342   0.57907   0.74934   0.00000  Uiso   1.00
C842   C     0.78989   0.49828   0.90921   0.00000  Uiso   1.00
C843   C     0.86675   0.64490   0.71005   0.00000  Uiso   1.00
C844   C     0.80664   0.49938   0.85055   0.00000  Uiso   1.00
C845   C     0.86590   0.35441   0.71055   0.00000  Uiso   1.00
C846   C     0.83289   0.37635   0.75192   0.00000  Uiso   1.00
C847   C     0.79987   0.35587   0.79386   0.00000  Uiso   1.00
C848   C     0.79894   0.64566   0.79284   0.00000  Uiso   1.00
C849   C     0.83291   0.62383   0.75073   0.00000  Uiso   1.00
C850   C     0.96830   0.53082   0.77584   0.00000  Uiso   1.00
C851   C     0.68400   0.53019   0.77613   0.00000  Uiso   1.00
C852   C     0.81253   0.49392   0.99018   0.00000  Uiso   1.00
C853   C     0.69944   0.47068   0.72218   0.00000  Uiso   1.00
C854   C     0.98239   0.46694   0.73015   0.00000  Uiso   1.00
C855   C     0.83329   0.42093   0.75052   0.00000  Uiso   1.00
C856   C     0.85994   0.49783   0.64975   0.00000  Uiso   1.00
C857   C     0.92315   0.44912   0.51465   0.00000  Uiso   1.00
C858   C     0.87585   0.48953   0.59230   0.00000  Uiso   1.00
C859   C     0.74307   0.51350   0.93986   0.00000  Uiso   1.00
C860   C     0.73066   0.51545   0.99456   0.00000  Uiso   1.00
C861   C     0.76488   0.50626   0.51944   0.00000  Uiso   1.00
C862   C     0.76464   0.62261   0.83631   0.00000  Uiso   1.00
C863   C     0.82218   0.48396   0.93610   0.00000  Uiso   1.00
C864   C     0.96667   0.42309   0.98778   0.00000  Uiso   1.00
C865   C     0.84916   0.48698   0.51440   0.00000  Uiso   1.00
C866   C     0.88943   0.46061   0.98851   0.00000  Uiso   1.00
C867   C     0.89411   0.44516   0.93765   0.00000  Uiso   1.00
C868   C     0.86203   0.45752   0.91147   0.00000  Uiso   1.00
C869   C     0.84707   0.50558   0.56331   0.00000  Uiso   1.00
C870   C     0.91473   0.46158   0.56754   0.00000  Uiso   1.00
Cu871  Cu    0.78645   0.49999   0.75000   0.00000  Uiso   1.00
Cu872  Cu    0.88022   0.50001   0.75000   0.00000  Uiso   1.00
H873   H     0.89111   0.37074   0.67855   0.00000  Uiso   1.00
H874   H     0.69650   0.55422   0.79726   0.00000  Uiso   1.00
H875   H     0.92243   0.42316   0.91728   0.00000  Uiso   1.00
H876   H     0.75303   0.50714   0.56199   0.00000  Uiso   1.00
H877   H     0.69434   0.52516   0.51823   0.00000  Uiso   1.00
H878   H     0.86710   0.44364   0.87300   0.00000  Uiso   1.00
H879   H     0.77633   0.59381   0.84939   0.00000  Uiso   1.00
H880   H     0.97512   0.39562   0.50636   0.00000  Uiso   1.00
I881   I     0.96325   0.43826   0.60719   0.00000  Uiso   1.00
I882   I     0.75780   0.39097   0.86161   0.00000  Uiso   1.00
I883   I     0.92437   0.57672   0.82759   0.00000  Uiso   1.00
I884   I     0.74699   0.42993   0.66400   0.00000  Uiso   1.00
I885   I     0.96309   0.40374   0.74852   0.00000  Uiso   1.00
I886   I     0.81399   0.56594   0.58708   0.00000  Uiso   1.00
I887   I     0.68656   0.53409   0.91077   0.00000  Uiso   1.00
I888   I     0.91920   0.61439   0.64551   0.00000  Uiso   1.00
N889   N     0.71598   0.49999   0.74998   0.00000  Uiso   1.00
N890   N     0.95069   0.50002   0.74999   0.00000  Uiso   1.00
O891   O     0.79375   0.56011   0.75000   0.00000  Uiso   1.00
O892   O     0.99434   0.43300   0.94520   0.00000  Uiso   1.00
O893   O     0.87294   0.56012   0.75000   0.00000  Uiso   1.00
O894   O     0.77441   0.49998   0.82549   0.00000  Uiso   1.00
O895   O     0.85360   0.49999   0.82549   0.00000  Uiso   1.00
O896   O     0.79373   0.43988   0.74999   0.00000  Uiso   1.00
O897   O     0.87292   0.43989   0.74999   0.00000  Uiso   1.00
O898   O     0.81306   0.50001   0.67451   0.00000  Uiso   1.00
O899   O     0.89225   0.50002   0.67451   0.00000  Uiso   1.00
O900   O     0.72256   0.63446   0.85628   0.00000  Uiso   1.00
C901   C     0.16675   0.91241   0.74934   0.00000  Uiso   1.00
C902   C     0.12322   0.83161   0.90921   0.00000  Uiso   1.00
C903   C     0.20008   0.97823   0.71005   0.00000  Uiso   1.00
C904   C     0.13997   0.83271   0.85055   0.00000  Uiso   1.00
C905   C     0.19923   0.68774   0.71055   0.00000  Uiso   1.00
C906   C     0.16623   0.70969   0.75192   0.00000  Uiso   1.00
C907   C     0.13320   0.68920   0.79386   0.00000  Uiso   1.00
C908   C     0.13228   0.97900   0.79284   0.00000  Uiso   1.00
C909   C     0.16624   0.95716   0.75073   0.00000  Uiso   1.00
C910   C     0.30163   0.86415   0.77584   0.00000  Uiso   1.00
C911   C     0.01733   0.86352   0.77613   0.00000  Uiso   1.00
C912   C     0.14586   0.82725   0.99018   0.00000  Uiso   1.00
C913   C     0.03278   0.80402   0.72218   0.00000  Uiso   1.00
C914   C     0.31572   0.80027   0.73015   0.00000  Uiso   1.00
C915   C     0.16662   0.75426   0.75052   0.00000  Uiso   1.00
C916   C     0.19327   0.83116   0.64975   0.00000  Uiso   1.00
C917   C     0.25648   0.78245   0.51465   0.00000  Uiso   1.00
C918   C     0.20918   0.82286   0.59230   0.00000  Uiso   1.00
C919   C     0.07640   0.84683   0.93986   0.00000  Uiso   1.00
C920   C     0.06400   0.84879   0.99456   0.00000  Uiso   1.00
C921   C     0.09821   0.83959   0.51944   0.00000  Uiso   1.00
C922   C     0.09798   0.95595   0.83631   0.00000  Uiso   1.00
C923   C     0.15552   0.81729   0.93610   0.00000  Uiso   1.00
C924   C     0.30000   0.75642   0.98778   0.00000  Uiso   1.00
C925   C     0.18249   0.82032   0.51440   0.00000  Uiso   1.00
C926   C     0.22277   0.79395   0.98851   0.00000  Uiso   1.00
C927   C     0.22744   0.77850   0.93765   0.00000  Uiso   1.00
C928   C     0.19536   0.79086   0.91147   0.00000  Uiso   1.00
C929   C     0.18041   0.83891   0.56331   0.00000  Uiso   1.00
C930   C     0.24806   0.79492   0.56754   0.00000  Uiso   1.00
Cu931  Cu    0.11978   0.83333   0.75000   0.00000  Uiso   1.00
Cu932  Cu    0.21355   0.83334   0.75000   0.00000  Uiso   1.00
H933   H     0.22444   0.70407   0.67855   0.00000  Uiso   1.00
H934   H     0.02984   0.88755   0.79726   0.00000  Uiso   1.00
H935   H     0.25576   0.75649   0.91728   0.00000  Uiso   1.00
H936   H     0.08636   0.84048   0.56199   0.00000  Uiso   1.00
H937   H     0.02767   0.85850   0.51823   0.00000  Uiso   1.00
H938   H     0.20044   0.77697   0.87300   0.00000  Uiso   1.00
H939   H     0.10967   0.92714   0.84939   0.00000  Uiso   1.00
H940   H     0.30845   0.72896   0.50636   0.00000  Uiso   1.00
I941   I     0.29658   0.77159   0.60719   0.00000  Uiso   1.00
I942   I     0.09113   0.72430   0.86161   0.00000  Uiso   1.00
I943   I     0.25770   0.91005   0.82759   0.00000  Uiso   1.00
I944   I     0.08032   0.76326   0.66400   0.00000  Uiso   1.00
I945   I     0.29642   0.73707   0.74852   0.00000  Uiso   1.00
I946   I     0.14732   0.89927   0.58708   0.00000  Uiso   1.00
I947   I     0.01989   0.86742   0.91077   0.00000  Uiso   1.00
I948   I     0.25254   0.94772   0.64551   0.00000  Uiso   1.00
N949   N     0.04931   0.83332   0.74998   0.00000  Uiso   1.00
N950   N     0.28402   0.83335   0.74999   0.00000  Uiso   1.00
O951   O     0.12708   0.89345   0.75000   0.00000  Uiso   1.00
O952   O     0.32767   0.76634   0.94520   0.00000  Uiso   1.00
O953   O     0.20627   0.89346   0.75000   0.00000  Uiso   1.00
O954   O     0.10775   0.83332   0.82549   0.00000  Uiso   1.00
O955   O     0.18694   0.83333   0.82549   0.00000  Uiso   1.00
O956   O     0.12706   0.77321   0.74999   0.00000  Uiso   1.00
O957   O     0.20625   0.77322   0.74999   0.00000  Uiso   1.00
O958   O     0.14640   0.83334   0.67451   0.00000  Uiso   1.00
O959   O     0.22559   0.83335   0.67451   0.00000  Uiso   1.00
O960   O     0.05590   0.96779   0.85628   0.00000  Uiso   1.00
C961   C     0.50008   0.91241   0.74934   0.00000  Uiso   1.00
C962   C     0.45655   0.83161   0.90921   0.00000  Uiso   1.00
C963   C     0.53341   0.97823   0.71005   0.00000  Uiso   1.00
C964   C     0.47331   0.83271   0.85055   0.00000  Uiso   1.00
C965   C     0.53256   0.68774   0.71055   0.00000  Uiso   1.00
C966   C     0.49956   0.70969   0.75192   0.00000  Uiso   1.00
C967   C     0.46654   0.68920   0.79386   0.00000  Uiso   1.00
C968   C     0.46561   0.97900   0.79284   0.00000  Uiso   1.00
C969   C     0.49957   0.95716   0.75073   0.00000  Uiso   1.00
C970   C     0.63496   0.86415   0.77584   0.00000  Uiso   1.00
C971   C     0.35067   0.86352   0.77613   0.00000  Uiso   1.00
C972   C     0.47920   0.82725   0.99018   0.00000  Uiso   1.00
C973   C     0.36611   0.80402   0.72218   0.00000  Uiso   1.00
C974   C     0.64905   0.80027   0.73015   0.00000  Uiso   1.00
C975   C     0.49996   0.75426   0.75052   0.00000  Uiso   1.00
C976   C     0.52660   0.83116   0.64975   0.00000  Uiso   1.00
C977   C     0.58982   0.78245   0.51465   0.00000  Uiso   1.00
C978   C     0.54251   0.82286   0.59230   0.00000  Uiso   1.00
C979   C     0.40973   0.84683   0.93986   0.00000  Uiso   1.00
C980   C     0.39733   0.84879   0.99456   0.00000  Uiso   1.00
C981   C     0.43155   0.83959   0.51944   0.00000  Uiso   1.00
C982   C     0.43131   0.95595   0.83631   0.00000  Uiso   1.00
C983   C     0.48885   0.81729   0.93610   0.00000  Uiso   1.00
C984   C     0.63334   0.75642   0.98778   0.00000  Uiso   1.00
C985   C     0.51582   0.82032   0.51440   0.00000  Uiso   1.00
C986   C     0.55610   0.79395   0.98851   0.00000  Uiso   1.00
C987   C     0.56078   0.77850   0.93765   0.00000  Uiso   1.00
C988   C     0.52869   0.79086   0.91147   0.00000  Uiso   1.00
C989   C     0.51374   0.83891   0.56331   0.00000  Uiso   1.00
C990   C     0.58140   0.79492   0.56754   0.00000  Uiso   1.00
Cu991  Cu    0.45311   0.83333   0.75000   0.00000  Uiso   1.00
Cu992  Cu    0.54689   0.83334   0.75000   0.00000  Uiso   1.00
H993   H     0.55777   0.70407   0.67855   0.00000  Uiso   1.00
H994   H     0.36317   0.88755   0.79726   0.00000  Uiso   1.00
H995   H     0.58910   0.75649   0.91728   0.00000  Uiso   1.00
H996   H     0.41969   0.84048   0.56199   0.00000  Uiso   1.00
H997   H     0.36101   0.85850   0.51823   0.00000  Uiso   1.00
H998   H     0.53377   0.77697   0.87300   0.00000  Uiso   1.00
H999   H     0.44300   0.92714   0.84939   0.00000  Uiso   1.00
H1000  H     0.64178   0.72896   0.50636   0.00000  Uiso   1.00
I1001  I     0.62991   0.77159   0.60719   0.00000  Uiso   1.00
I1002  I     0.42447   0.72430   0.86161   0.00000  Uiso   1.00
I1003  I     0.59103   0.91005   0.82759   0.00000  Uiso   1.00
I1004  I     0.41365   0.76326   0.66400   0.00000  Uiso   1.00
I1005  I     0.62975   0.73707   0.74852   0.00000  Uiso   1.00
I1006  I     0.48065   0.89927   0.58708   0.00000  Uiso   1.00
I1007  I     0.35322   0.86742   0.91077   0.00000  Uiso   1.00
I1008  I     0.58587   0.94772   0.64551   0.00000  Uiso   1.00
N1009  N     0.38265   0.83332   0.74998   0.00000  Uiso   1.00
N1010  N     0.61735   0.83335   0.74999   0.00000  Uiso   1.00
O1011  O     0.46042   0.89345   0.75000   0.00000  Uiso   1.00
O1012  O     0.66101   0.76634   0.94520   0.00000  Uiso   1.00
O1013  O     0.53961   0.89346   0.75000   0.00000  Uiso   1.00
O1014  O     0.44108   0.83332   0.82549   0.00000  Uiso   1.00
O1015  O     0.52027   0.83333   0.82549   0.00000  Uiso   1.00
O1016  O     0.46039   0.77321   0.74999   0.00000  Uiso   1.00
O1017  O     0.53958   0.77322   0.74999   0.00000  Uiso   1.00
O1018  O     0.47973   0.83334   0.67451   0.00000  Uiso   1.00
O1019  O     0.55892   0.83335   0.67451   0.00000  Uiso   1.00
O1020  O     0.38923   0.96779   0.85628   0.00000  Uiso   1.00
C1021  C     0.83342   0.91241   0.74934   0.00000  Uiso   1.00
C1022  C     0.78989   0.83161   0.90921   0.00000  Uiso   1.00
C1023  C     0.86675   0.97823   0.71005   0.00000  Uiso   1.00
C1024  C     0.80664   0.83271   0.85055   0.00000  Uiso   1.00
C1025  C     0.86590   0.68774   0.71055   0.00000  Uiso   1.00
C1026  C     0.83289   0.70969   0.75192   0.00000  Uiso   1.00
C1027  C     0.79987   0.68920   0.79386   0.00000  Uiso   1.00
C1028  C     0.79894   0.97900   0.79284   0.00000  Uiso   1.00
C1029  C     0.83291   0.95716   0.75073   0.00000  Uiso   1.00
C1030  C     0.96830   0.86415   0.77584   0.00000  Uiso   1.00
C1031  C     0.68400   0.86352   0.77613   0.00000  Uiso   1.00
C1032  C     0.81253   0.82725   0.99018   0.00000  Uiso   1.00
C1033  C     0.69944   0.80402   0.72218   0.00000  Uiso   1.00
C1034  C     0.98239   0.80027   0.73015   0.00000  Uiso   1.00
C1035  C     0.83329   0.75426   0.75052   0.00000  Uiso   1.00
C1036  C     0.85994   0.83116   0.64975   0.00000  Uiso   1.00
C1037  C     0.92315   0.78245   0.51465   0.00000  Uiso   1.00
C1038  C     0.87585   0.82286   0.59230   0.00000  Uiso   1.00
C1039  C     0.74307   0.84683   0.93986   0.00000  Uiso   1.00
C1040  C     0.73066   0.84879   0.99456   0.00000  Uiso   1.00
C1041  C     0.76488   0.83959   0.51944   0.00000  Uiso   1.00
C1042  C     0.76464   0.95595   0.83631   0.00000  Uiso   1.00
C1043  C     0.82218   0.81729   0.93610   0.00000  Uiso   1.00
C1044  C     0.96667   0.75642   0.98778   0.00000  Uiso   1.00
C1045  C     0.84916   0.82032   0.51440   0.00000  Uiso   1.00
C1046  C     0.88943   0.79395   0.98851   0.00000  Uiso   1.00
C1047  C     0.89411   0.77850   0.93765   0.00000  Uiso   1.00
C1048  C     0.86203   0.79086   0.91147   0.00000  Uiso   1.00
C1049  C     0.84707   0.83891   0.56331   0.00000  Uiso   1.00
C1050  C     0.91473   0.79492   0.56754   0.00000  Uiso   1.00
Cu1051 Cu    0.78645   0.83333   0.75000   0.00000  Uiso   1.00
Cu1052 Cu    0.88022   0.83334   0.75000   0.00000  Uiso   1.00
H1053  H     0.89111   0.70407   0.67855   0.00000  Uiso   1.00
H1054  H     0.69650   0.88755   0.79726   0.00000  Uiso   1.00
H1055  H     0.92243   0.75649   0.91728   0.00000  Uiso   1.00
H1056  H     0.75303   0.84048   0.56199   0.00000  Uiso   1.00
H1057  H     0.69434   0.85850   0.51823   0.00000  Uiso   1.00
H1058  H     0.86710   0.77697   0.87300   0.00000  Uiso   1.00
H1059  H     0.77633   0.92714   0.84939   0.00000  Uiso   1.00
H1060  H     0.97512   0.72896   0.50636   0.00000  Uiso   1.00
I1061  I     0.96325   0.77159   0.60719   0.00000  Uiso   1.00
I1062  I     0.75780   0.72430   0.86161   0.00000  Uiso   1.00
I1063  I     0.92437   0.91005   0.82759   0.00000  Uiso   1.00
I1064  I     0.74699   0.76326   0.66400   0.00000  Uiso   1.00
I1065  I     0.96309   0.73707   0.74852   0.00000  Uiso   1.00
I1066  I     0.81399   0.89927   0.58708   0.00000  Uiso   1.00
I1067  I     0.68656   0.86742   0.91077   0.00000  Uiso   1.00
I1068  I     0.91920   0.94772   0.64551   0.00000  Uiso   1.00
N1069  N     0.71598   0.83332   0.74998   0.00000  Uiso   1.00
N1070  N     0.95069   0.83335   0.74999   0.00000  Uiso   1.00
O1071  O     0.79375   0.89345   0.75000   0.00000  Uiso   1.00
O1072  O     0.99434   0.76634   0.94520   0.00000  Uiso   1.00
O1073  O     0.87294   0.89346   0.75000   0.00000  Uiso   1.00
O1074  O     0.77441   0.83332   0.82549   0.00000  Uiso   1.00
O1075  O     0.85360   0.83333   0.82549   0.00000  Uiso   1.00
O1076  O     0.79373   0.77321   0.74999   0.00000  Uiso   1.00
O1077  O     0.87292   0.77322   0.74999   0.00000  Uiso   1.00
O1078  O     0.81306   0.83334   0.67451   0.00000  Uiso   1.00
O1079  O     0.89225   0.83335   0.67451   0.00000  Uiso   1.00
O1080  O     0.72256   0.96779   0.85628   0.00000  Uiso   1.00
loop_
_geom_bond_atom_site_label_1
_geom_bond_atom_site_label_2
_geom_bond_distance
_geom_bond_site_symmetry_2
_ccdc_geom_bond_type
C1     O51     1.299   .     A
C1     C9      1.442   .     S
C1     O53     1.296   .     A
C2     C4      1.491   .     S
C2     C23     1.423   .     A
C2     C19     1.423   .     A
C3     C9      1.405   .     A
C3     I48     2.127   .     S
C3     C185    1.381   .     S
C4     O55     1.313   .     A
C4     O54     1.307   .     A
C5     C6      1.391   .     A
C5     H33     1.083   .     S
C5     C363    1.381   1_545 S
C6     C7      1.404   .     A
C6     C15     1.438   .     S
C7     I42     2.138   .     S
C7     C368    1.404   1_545 S
C8     C22     1.486   .     S
C8     C9      1.413   .     A
C8     C187    1.404   .     S
C10    I43     2.125   .     S
C10    N50     1.388   .     A
C10    C71     1.420   .     S
C11    N49     1.359   .     A
C11    H34     1.080   .     S
C11    C130    1.420   1_455 S
C12    C23     1.415   .     A
C12    C561    1.405   .     S
C12    C565    1.421   .     S
C13    N49     1.371   .     A
C13    I44     2.144   .     S
C13    C134    1.411   1_455 S
C14    N50     1.385   .     A
C14    I45     2.141   .     S
C14    C73     1.411   .     S
C15    O57     1.299   .     A
C15    O56     1.296   .     A
C16    O58     1.310   .     A
C16    C18     1.478   .     S
C16    O59     1.305   .     A
C17    C30     1.409   .     A
C17    C564    1.483   1_554 S
C17    C566    1.416   1_554 S
C18    C29     1.403   .     A
C18    C30     1.418   .     A
C19    C20     1.393   .     A
C19    I47     2.123   .     S
C20    C561    1.386   .     S
C20    H577    1.083   .     S
C21    H36     1.081   .     S
C21    C560    1.386   1_554 S
C21    C552    1.405   1_554 S
C22    O60     1.220   .     D
C22    H39     1.085   .     S
C23    C28     1.406   .     A
C24    O52     1.219   .     D
C24    C557    1.483   .     S
C24    H580    1.085   .     S
C25    C29     1.413   .     A
C25    C552    1.421   1_554 S
C25    C566    1.420   1_554 S
C26    C27     1.406   .     A
C26    C565    1.420   .     S
C26    C557    1.416   .     S
C27    H35     1.081   .     S
C27    C28     1.385   .     A
C28    H38     1.081   .     S
C29    I46     2.156   .     S
C30    I41     2.143   .     S
Cu31   O56     1.947   .     S
Cu31   N49     2.037   .     S
Cu31   O58     1.923   .     S
Cu31   O54     1.938   .     S
Cu31   Cu32    2.711   .     S
Cu31   O51     1.951   .     S
Cu32   O55     1.923   .     S
Cu32   O59     1.938   .     S
Cu32   N50     2.037   .     S
Cu32   O57     1.951   .     S
Cu32   O53     1.947   .     S
H37    C560    1.083   1_554 S
H40    C564    1.085   1_554 S
C61    O111    1.299   .     A
C61    C69     1.442   .     S
C61    O113    1.296   .     A
C62    C64     1.491   .     S
C62    C83     1.423   .     A
C62    C79     1.423   .     A
C63    C69     1.405   .     A
C63    I108    2.127   .     S
C63    C245    1.381   .     S
C64    O115    1.313   .     A
C64    O114    1.307   .     A
C65    C66     1.391   .     A
C65    H93     1.083   .     S
C65    C423    1.381   1_545 S
C66    C67     1.404   .     A
C66    C75     1.438   .     S
C67    I102    2.138   .     S
C67    C428    1.404   1_545 S
C68    C82     1.486   .     S
C68    C69     1.413   .     A
C68    C247    1.404   .     S
C70    I103    2.125   .     S
C70    N110    1.388   .     A
C70    C131    1.420   .     S
C71    N109    1.359   .     A
C71    H94     1.080   .     S
C72    C83     1.415   .     A
C72    C621    1.405   .     S
C72    C625    1.421   .     S
C73    N109    1.371   .     A
C73    I104    2.144   .     S
C74    N110    1.385   .     A
C74    I105    2.141   .     S
C74    C133    1.411   .     S
C75    O117    1.299   .     A
C75    O116    1.296   .     A
C76    O118    1.310   .     A
C76    C78     1.478   .     S
C76    O119    1.305   .     A
C77    C90     1.409   .     A
C77    C624    1.483   1_554 S
C77    C626    1.416   1_554 S
C78    C89     1.403   .     A
C78    C90     1.418   .     A
C79    C80     1.393   .     A
C79    I107    2.123   .     S
C80    C621    1.386   .     S
C80    H637    1.083   .     S
C81    H96     1.081   .     S
C81    C620    1.386   1_554 S
C81    C612    1.405   1_554 S
C82    O120    1.220   .     D
C82    H99     1.085   .     S
C83    C88     1.406   .     A
C84    O112    1.219   .     D
C84    C617    1.483   .     S
C84    H640    1.085   .     S
C85    C89     1.413   .     A
C85    C612    1.421   1_554 S
C85    C626    1.420   1_554 S
C86    C87     1.406   .     A
C86    C625    1.420   .     S
C86    C617    1.416   .     S
C87    H95     1.081   .     S
C87    C88     1.385   .     A
C88    H98     1.081   .     S
C89    I106    2.156   .     S
C90    I101    2.143   .     S
Cu91   O116    1.947   .     S
Cu91   N109    2.037   .     S
Cu91   O118    1.923   .     S
Cu91   O114    1.938   .     S
Cu91   Cu92    2.711   .     S
Cu91   O111    1.951   .     S
Cu92   O115    1.923   .     S
Cu92   O119    1.938   .     S
Cu92   N110    2.037   .     S
Cu92   O117    1.951   .     S
Cu92   O113    1.947   .     S
H97    C620    1.083   1_554 S
H100   C624    1.085   1_554 S
C121   O171    1.299   .     A
C121   C129    1.442   .     S
C121   O173    1.296   .     A
C122   C124    1.491   .     S
C122   C143    1.423   .     A
C122   C139    1.423   .     A
C123   C129    1.405   .     A
C123   I168    2.127   .     S
C123   C305    1.381   .     S
C124   O175    1.313   .     A
C124   O174    1.307   .     A
C125   C126    1.391   .     A
C125   H153    1.083   .     S
C125   C483    1.381   1_545 S
C126   C127    1.404   .     A
C126   C135    1.438   .     S
C127   I162    2.138   .     S
C127   C488    1.404   1_545 S
C128   C142    1.486   .     S
C128   C129    1.413   .     A
C128   C307    1.404   .     S
C130   I163    2.125   .     S
C130   N170    1.388   .     A
C130   C11     1.420   1_655 S
C131   N169    1.359   .     A
C131   H154    1.080   .     S
C132   C143    1.415   .     A
C132   C681    1.405   .     S
C132   C685    1.421   .     S
C133   N169    1.371   .     A
C133   I164    2.144   .     S
C134   N170    1.385   .     A
C134   I165    2.141   .     S
C134   C13     1.411   1_655 S
C135   O177    1.299   .     A
C135   O176    1.296   .     A
C136   O178    1.310   .     A
C136   C138    1.478   .     S
C136   O179    1.305   .     A
C137   C150    1.409   .     A
C137   C684    1.483   1_554 S
C137   C686    1.416   1_554 S
C138   C149    1.403   .     A
C138   C150    1.418   .     A
C139   C140    1.393   .     A
C139   I167    2.123   .     S
C140   C681    1.386   .     S
C140   H697    1.083   .     S
C141   H156    1.081   .     S
C141   C680    1.386   1_554 S
C141   C672    1.405   1_554 S
C142   O180    1.220   .     D
C142   H159    1.085   .     S
C143   C148    1.406   .     A
C144   O172    1.219   .     D
C144   C677    1.483   .     S
C144   H700    1.085   .     S
C145   C149    1.413   .     A
C145   C672    1.421   1_554 S
C145   C686    1.420   1_554 S
C146   C147    1.406   .     A
C146   C685    1.420   .     S
C146   C677    1.416   .     S
C147   H155    1.081   .     S
C147   C148    1.385   .     A
C148   H158    1.081   .     S
C149   I166    2.156   .     S
C150   I161    2.143   .     S
Cu151  O176    1.947   .     S
Cu151  N169    2.037   .     S
Cu151  O178    1.923   .     S
Cu151  O174    1.938   .     S
Cu151  Cu152   2.711   .     S
Cu151  O171    1.951   .     S
Cu152  O175    1.923   .     S
Cu152  O179    1.938   .     S
Cu152  N170    2.037   .     S
Cu152  O177    1.951   .     S
Cu152  O173    1.947   .     S
H157   C680    1.083   1_554 S
H160   C684    1.085   1_554 S
C181   O231    1.299   .     A
C181   C189    1.442   .     S
C181   O233    1.296   .     A
C182   C184    1.491   .     S
C182   C203    1.423   .     A
C182   C199    1.423   .     A
C183   C189    1.405   .     A
C183   I228    2.127   .     S
C183   C365    1.381   .     S
C184   O235    1.313   .     A
C184   O234    1.307   .     A
C185   C186    1.391   .     A
C185   H213    1.083   .     S
C186   C187    1.404   .     A
C186   C195    1.438   .     S
C187   I222    2.138   .     S
C188   C202    1.486   .     S
C188   C189    1.413   .     A
C188   C367    1.404   .     S
C190   I223    2.125   .     S
C190   N230    1.388   .     A
C190   C251    1.420   .     S
C191   N229    1.359   .     A
C191   H214    1.080   .     S
C191   C310    1.420   1_455 S
C192   C203    1.415   .     A
C192   C741    1.405   .     S
C192   C745    1.421   .     S
C193   N229    1.371   .     A
C193   I224    2.144   .     S
C193   C314    1.411   1_455 S
C194   N230    1.385   .     A
C194   I225    2.141   .     S
C194   C253    1.411   .     S
C195   O237    1.299   .     A
C195   O236    1.296   .     A
C196   O238    1.310   .     A
C196   C198    1.478   .     S
C196   O239    1.305   .     A
C197   C210    1.409   .     A
C197   C744    1.483   1_554 S
C197   C746    1.416   1_554 S
C198   C209    1.403   .     A
C198   C210    1.418   .     A
C199   C200    1.393   .     A
C199   I227    2.123   .     S
C200   C741    1.386   .     S
C200   H757    1.083   .     S
C201   H216    1.081   .     S
C201   C740    1.386   1_554 S
C201   C732    1.405   1_554 S
C202   O240    1.220   .     D
C202   H219    1.085   .     S
C203   C208    1.406   .     A
C204   O232    1.219   .     D
C204   C737    1.483   .     S
C204   H760    1.085   .     S
C205   C209    1.413   .     A
C205   C732    1.421   1_554 S
C205   C746    1.420   1_554 S
C206   C207    1.406   .     A
C206   C745    1.420   .     S
C206   C737    1.416   .     S
C207   H215    1.081   .     S
C207   C208    1.385   .     A
C208   H218    1.081   .     S
C209   I226    2.156   .     S
C210   I221    2.143   .     S
Cu211  O236    1.947   .     S
Cu211  N229    2.037   .     S
Cu211  O238    1.923   .     S
Cu211  O234    1.938   .     S
Cu211  Cu212   2.711   .     S
Cu211  O231    1.951   .     S
Cu212  O235    1.923   .     S
Cu212  O239    1.938   .     S
Cu212  N230    2.037   .     S
Cu212  O237    1.951   .     S
Cu212  O233    1.947   .     S
H217   C740    1.083   1_554 S
H220   C744    1.085   1_554 S
C241   O291    1.299   .     A
C241   C249    1.442   .     S
C241   O293    1.296   .     A
C242   C244    1.491   .     S
C242   C263    1.423   .     A
C242   C259    1.423   .     A
C243   C249    1.405   .     A
C243   I288    2.127   .     S
C243   C425    1.381   .     S
C244   O295    1.313   .     A
C244   O294    1.307   .     A
C245   C246    1.391   .     A
C245   H273    1.083   .     S
C246   C247    1.404   .     A
C246   C255    1.438   .     S
C247   I282    2.138   .     S
C248   C262    1.486   .     S
C248   C249    1.413   .     A
C248   C427    1.404   .     S
C250   I283    2.125   .     S
C250   N290    1.388   .     A
C250   C311    1.420   .     S
C251   N289    1.359   .     A
C251   H274    1.080   .     S
C252   C263    1.415   .     A
C252   C801    1.405   .     S
C252   C805    1.421   .     S
C253   N289    1.371   .     A
C253   I284    2.144   .     S
C254   N290    1.385   .     A
C254   I285    2.141   .     S
C254   C313    1.411   .     S
C255   O297    1.299   .     A
C255   O296    1.296   .     A
C256   O298    1.310   .     A
C256   C258    1.478   .     S
C256   O299    1.305   .     A
C257   C270    1.409   .     A
C257   C804    1.483   1_554 S
C257   C806    1.416   1_554 S
C258   C269    1.403   .     A
C258   C270    1.418   .     A
C259   C260    1.393   .     A
C259   I287    2.123   .     S
C260   C801    1.386   .     S
C260   H817    1.083   .     S
C261   H276    1.081   .     S
C261   C800    1.386   1_554 S
C261   C792    1.405   1_554 S
C262   O300    1.220   .     D
C262   H279    1.085   .     S
C263   C268    1.406   .     A
C264   O292    1.219   .     D
C264   C797    1.483   .     S
C264   H820    1.085   .     S
C265   C269    1.413   .     A
C265   C792    1.421   1_554 S
C265   C806    1.420   1_554 S
C266   C267    1.406   .     A
C266   C805    1.420   .     S
C266   C797    1.416   .     S
C267   H275    1.081   .     S
C267   C268    1.385   .     A
C268   H278    1.081   .     S
C269   I286    2.156   .     S
C270   I281    2.143   .     S
Cu271  O296    1.947   .     S
Cu271  N289    2.037   .     S
Cu271  O298    1.923   .     S
Cu271  O294    1.938   .     S
Cu271  Cu272   2.711   .     S
Cu271  O291    1.951   .     S
Cu272  O295    1.923   .     S
Cu272  O299    1.938   .     S
Cu272  N290    2.037   .     S
Cu272  O297    1.951   .     S
Cu272  O293    1.947   .     S
H277   C800    1.083   1_554 S
H280   C804    1.085   1_554 S
C301   O351    1.299   .     A
C301   C309    1.442   .     S
C301   O353    1.296   .     A
C302   C304    1.491   .     S
C302   C323    1.423   .     A
C302   C319    1.423   .     A
C303   C309    1.405   .     A
C303   I348    2.127   .     S
C303   C485    1.381   .     S
C304   O355    1.313   .     A
C304   O354    1.307   .     A
C305   C306    1.391   .     A
C305   H333    1.083   .     S
C306   C307    1.404   .     A
C306   C315    1.438   .     S
C307   I342    2.138   .     S
C308   C322    1.486   .     S
C308   C309    1.413   .     A
C308   C487    1.404   .     S
C310   I343    2.125   .     S
C310   N350    1.388   .     A
C310   C191    1.420   1_655 S
C311   N349    1.359   .     A
C311   H334    1.080   .     S
C312   C323    1.415   .     A
C312   C861    1.405   .     S
C312   C865    1.421   .     S
C313   N349    1.371   .     A
C313   I344    2.144   .     S
C314   N350    1.385   .     A
C314   I345    2.141   .     S
C314   C193    1.411   1_655 S
C315   O357    1.299   .     A
C315   O356    1.296   .     A
C316   O358    1.310   .     A
C316   C318    1.478   .     S
C316   O359    1.305   .     A
C317   C330    1.409   .     A
C317   C864    1.483   1_554 S
C317   C866    1.416   1_554 S
C318   C329    1.403   .     A
C318   C330    1.418   .     A
C319   C320    1.393   .     A
C319   I347    2.123   .     S
C320   C861    1.386   .     S
C320   H877    1.083   .     S
C321   H336    1.081   .     S
C321   C860    1.386   1_554 S
C321   C852    1.405   1_554 S
C322   O360    1.220   .     D
C322   H339    1.085   .     S
C323   C328    1.406   .     A
C324   O352    1.219   .     D
C324   C857    1.483   .     S
C324   H880    1.085   .     S
C325   C329    1.413   .     A
C325   C852    1.421   1_554 S
C325   C866    1.420   1_554 S
C326   C327    1.406   .     A
C326   C865    1.420   .     S
C326   C857    1.416   .     S
C327   H335    1.081   .     S
C327   C328    1.385   .     A
C328   H338    1.081   .     S
C329   I346    2.156   .     S
C330   I341    2.143   .     S
Cu331  O356    1.947   .     S
Cu331  N349    2.037   .     S
Cu331  O358    1.923   .     S
Cu331  O354    1.938   .     S
Cu331  Cu332   2.711   .     S
Cu331  O351    1.951   .     S
Cu332  O355    1.923   .     S
Cu332  O359    1.938   .     S
Cu332  N350    2.037   .     S
Cu332  O357    1.951   .     S
Cu332  O353    1.947   .     S
H337   C860    1.083   1_554 S
H340   C864    1.085   1_554 S
C361   O411    1.299   .     A
C361   C369    1.442   .     S
C361   O413    1.296   .     A
C362   C364    1.491   .     S
C362   C383    1.423   .     A
C362   C379    1.423   .     A
C363   C369    1.405   .     A
C363   I408    2.127   .     S
C363   C5      1.381   1_565 S
C364   O415    1.313   .     A
C364   O414    1.307   .     A
C365   C366    1.391   .     A
C365   H393    1.083   .     S
C366   C367    1.404   .     A
C366   C375    1.438   .     S
C367   I402    2.138   .     S
C368   C382    1.486   .     S
C368   C369    1.413   .     A
C368   C7      1.404   1_565 S
C370   I403    2.125   .     S
C370   N410    1.388   .     A
C370   C431    1.420   .     S
C371   N409    1.359   .     A
C371   H394    1.080   .     S
C371   C490    1.420   1_455 S
C372   C383    1.415   .     A
C372   C921    1.405   .     S
C372   C925    1.421   .     S
C373   N409    1.371   .     A
C373   I404    2.144   .     S
C373   C494    1.411   1_455 S
C374   N410    1.385   .     A
C374   I405    2.141   .     S
C374   C433    1.411   .     S
C375   O417    1.299   .     A
C375   O416    1.296   .     A
C376   O418    1.310   .     A
C376   C378    1.478   .     S
C376   O419    1.305   .     A
C377   C390    1.409   .     A
C377   C924    1.483   1_554 S
C377   C926    1.416   1_554 S
C378   C389    1.403   .     A
C378   C390    1.418   .     A
C379   C380    1.393   .     A
C379   I407    2.123   .     S
C380   C921    1.386   .     S
C380   H937    1.083   .     S
C381   H396    1.081   .     S
C381   C920    1.386   1_554 S
C381   C912    1.405   1_554 S
C382   O420    1.220   .     D
C382   H399    1.085   .     S
C383   C388    1.406   .     A
C384   O412    1.219   .     D
C384   C917    1.483   .     S
C384   H940    1.085   .     S
C385   C389    1.413   .     A
C385   C912    1.421   1_554 S
C385   C926    1.420   1_554 S
C386   C387    1.406   .     A
C386   C925    1.420   .     S
C386   C917    1.416   .     S
C387   H395    1.081   .     S
C387   C388    1.385   .     A
C388   H398    1.081   .     S
C389   I406    2.156   .     S
C390   I401    2.143   .     S
Cu391  O416    1.947   .     S
Cu391  N409    2.037   .     S
Cu391  O418    1.923   .     S
Cu391  O414    1.938   .     S
Cu391  Cu392   2.711   .     S
Cu391  O411    1.951   .     S
Cu392  O415    1.923   .     S
Cu392  O419    1.938   .     S
Cu392  N410    2.037   .     S
Cu392  O417    1.951   .     S
Cu392  O413    1.947   .     S
H397   C920    1.083   1_554 S
H400   C924    1.085   1_554 S
C421   O471    1.299   .     A
C421   C429    1.442   .     S
C421   O473    1.296   .     A
C422   C424    1.491   .     S
C422   C443    1.423   .     A
C422   C439    1.423   .     A
C423   C429    1.405   .     A
C423   I468    2.127   .     S
C423   C65     1.381   1_565 S
C424   O475    1.313   .     A
C424   O474    1.307   .     A
C425   C426    1.391   .     A
C425   H453    1.083   .     S
C426   C427    1.404   .     A
C426   C435    1.438   .     S
C427   I462    2.138   .     S
C428   C442    1.486   .     S
C428   C429    1.413   .     A
C428   C67     1.404   1_565 S
C430   I463    2.125   .     S
C430   N470    1.388   .     A
C430   C491    1.420   .     S
C431   N469    1.359   .     A
C431   H454    1.080   .     S
C432   C443    1.415   .     A
C432   C981    1.405   .     S
C432   C985    1.421   .     S
C433   N469    1.371   .     A
C433   I464    2.144   .     S
C434   N470    1.385   .     A
C434   I465    2.141   .     S
C434   C493    1.411   .     S
C435   O477    1.299   .     A
C435   O476    1.296   .     A
C436   O478    1.310   .     A
C436   C438    1.478   .     S
C436   O479    1.305   .     A
C437   C450    1.409   .     A
C437   C984    1.483   1_554 S
C437   C986    1.416   1_554 S
C438   C449    1.403   .     A
C438   C450    1.418   .     A
C439   C440    1.393   .     A
C439   I467    2.123   .     S
C440   C981    1.386   .     S
C440   H997    1.083   .     S
C441   H456    1.081   .     S
C441   C980    1.386   1_554 S
C441   C972    1.405   1_554 S
C442   O480    1.220   .     D
C442   H459    1.085   .     S
C443   C448    1.406   .     A
C444   O472    1.219   .     D
C444   C977    1.483   .     S
C444   H1000   1.085   .     S
C445   C449    1.413   .     A
C445   C972    1.421   1_554 S
C445   C986    1.420   1_554 S
C446   C447    1.406   .     A
C446   C985    1.420   .     S
C446   C977    1.416   .     S
C447   H455    1.081   .     S
C447   C448    1.385   .     A
C448   H458    1.081   .     S
C449   I466    2.156   .     S
C450   I461    2.143   .     S
Cu451  O476    1.947   .     S
Cu451  N469    2.037   .     S
Cu451  O478    1.923   .     S
Cu451  O474    1.938   .     S
Cu451  Cu452   2.711   .     S
Cu451  O471    1.951   .     S
Cu452  O475    1.923   .     S
Cu452  O479    1.938   .     S
Cu452  N470    2.037   .     S
Cu452  O477    1.951   .     S
Cu452  O473    1.947   .     S
H457   C980    1.083   1_554 S
H460   C984    1.085   1_554 S
C481   O531    1.299   .     A
C481   C489    1.442   .     S
C481   O533    1.296   .     A
C482   C484    1.491   .     S
C482   C503    1.423   .     A
C482   C499    1.423   .     A
C483   C489    1.405   .     A
C483   I528    2.127   .     S
C483   C125    1.381   1_565 S
C484   O535    1.313   .     A
C484   O534    1.307   .     A
C485   C486    1.391   .     A
C485   H513    1.083   .     S
C486   C487    1.404   .     A
C486   C495    1.438   .     S
C487   I522    2.138   .     S
C488   C502    1.486   .     S
C488   C489    1.413   .     A
C488   C127    1.404   1_565 S
C490   I523    2.125   .     S
C490   N530    1.388   .     A
C490   C371    1.420   1_655 S
C491   N529    1.359   .     A
C491   H514    1.080   .     S
C492   C503    1.415   .     A
C492   C1041   1.405   .     S
C492   C1045   1.421   .     S
C493   N529    1.371   .     A
C493   I524    2.144   .     S
C494   N530    1.385   .     A
C494   I525    2.141   .     S
C494   C373    1.411   1_655 S
C495   O537    1.299   .     A
C495   O536    1.296   .     A
C496   O538    1.310   .     A
C496   C498    1.478   .     S
C496   O539    1.305   .     A
C497   C510    1.409   .     A
C497   C1044   1.483   1_554 S
C497   C1046   1.416   1_554 S
C498   C509    1.403   .     A
C498   C510    1.418   .     A
C499   C500    1.393   .     A
C499   I527    2.123   .     S
C500   C1041   1.386   .     S
C500   H1057   1.083   .     S
C501   H516    1.081   .     S
C501   C1040   1.386   1_554 S
C501   C1032   1.405   1_554 S
C502   O540    1.220   .     D
C502   H519    1.085   .     S
C503   C508    1.406   .     A
C504   O532    1.219   .     D
C504   C1037   1.483   .     S
C504   H1060   1.085   .     S
C505   C509    1.413   .     A
C505   C1032   1.421   1_554 S
C505   C1046   1.420   1_554 S
C506   C507    1.406   .     A
C506   C1045   1.420   .     S
C506   C1037   1.416   .     S
C507   H515    1.081   .     S
C507   C508    1.385   .     A
C508   H518    1.081   .     S
C509   I526    2.156   .     S
C510   I521    2.143   .     S
Cu511  O536    1.947   .     S
Cu511  N529    2.037   .     S
Cu511  O538    1.923   .     S
Cu511  O534    1.938   .     S
Cu511  Cu512   2.711   .     S
Cu511  O531    1.951   .     S
Cu512  O535    1.923   .     S
Cu512  O539    1.938   .     S
Cu512  N530    2.037   .     S
Cu512  O537    1.951   .     S
Cu512  O533    1.947   .     S
H517   C1040   1.083   1_554 S
H520   C1044   1.085   1_554 S
C541   O591    1.299   .     A
C541   C549    1.442   .     S
C541   O593    1.296   .     A
C542   C544    1.491   .     S
C542   C563    1.423   .     A
C542   C559    1.423   .     A
C543   C549    1.405   .     A
C543   I588    2.127   .     S
C543   C725    1.381   .     S
C544   O595    1.313   .     A
C544   O594    1.307   .     A
C545   C546    1.391   .     A
C545   H573    1.083   .     S
C545   C903    1.381   1_545 S
C546   C547    1.404   .     A
C546   C555    1.438   .     S
C547   I582    2.138   .     S
C547   C908    1.404   1_545 S
C548   C562    1.486   .     S
C548   C549    1.413   .     A
C548   C727    1.404   .     S
C550   I583    2.125   .     S
C550   N590    1.388   .     A
C550   C611    1.420   .     S
C551   N589    1.359   .     A
C551   H574    1.080   .     S
C551   C670    1.420   1_455 S
C552   C563    1.415   .     A
C552   C21     1.405   1_556 S
C552   C25     1.421   1_556 S
C553   N589    1.371   .     A
C553   I584    2.144   .     S
C553   C674    1.411   1_455 S
C554   N590    1.385   .     A
C554   I585    2.141   .     S
C554   C613    1.411   .     S
C555   O597    1.299   .     A
C555   O596    1.296   .     A
C556   O598    1.310   .     A
C556   C558    1.478   .     S
C556   O599    1.305   .     A
C557   C570    1.409   .     A
C558   C569    1.403   .     A
C558   C570    1.418   .     A
C559   C560    1.393   .     A
C559   I587    2.123   .     S
C560   C21     1.386   1_556 S
C560   H37     1.083   1_556 S
C561   H576    1.081   .     S
C562   O600    1.220   .     D
C562   H579    1.085   .     S
C563   C568    1.406   .     A
C564   O592    1.219   .     D
C564   C17     1.483   1_556 S
C564   H40     1.085   1_556 S
C565   C569    1.413   .     A
C566   C567    1.406   .     A
C566   C25     1.420   1_556 S
C566   C17     1.416   1_556 S
C567   H575    1.081   .     S
C567   C568    1.385   .     A
C568   H578    1.081   .     S
C569   I586    2.156   .     S
C570   I581    2.143   .     S
Cu571  O596    1.947   .     S
Cu571  N589    2.037   .     S
Cu571  O598    1.923   .     S
Cu571  O594    1.938   .     S
Cu571  Cu572   2.711   .     S
Cu571  O591    1.951   .     S
Cu572  O595    1.923   .     S
Cu572  O599    1.938   .     S
Cu572  N590    2.037   .     S
Cu572  O597    1.951   .     S
Cu572  O593    1.947   .     S
C601   O651    1.299   .     A
C601   C609    1.442   .     S
C601   O653    1.296   .     A
C602   C604    1.491   .     S
C602   C623    1.423   .     A
C602   C619    1.423   .     A
C603   C609    1.405   .     A
C603   I648    2.127   .     S
C603   C785    1.381   .     S
C604   O655    1.313   .     A
C604   O654    1.307   .     A
C605   C606    1.391   .     A
C605   H633    1.083   .     S
C605   C963    1.381   1_545 S
C606   C607    1.404   .     A
C606   C615    1.438   .     S
C607   I642    2.138   .     S
C607   C968    1.404   1_545 S
C608   C622    1.486   .     S
C608   C609    1.413   .     A
C608   C787    1.404   .     S
C610   I643    2.125   .     S
C610   N650    1.388   .     A
C610   C671    1.420   .     S
C611   N649    1.359   .     A
C611   H634    1.080   .     S
C612   C623    1.415   .     A
C612   C81     1.405   1_556 S
C612   C85     1.421   1_556 S
C613   N649    1.371   .     A
C613   I644    2.144   .     S
C614   N650    1.385   .     A
C614   I645    2.141   .     S
C614   C673    1.411   .     S
C615   O657    1.299   .     A
C615   O656    1.296   .     A
C616   O658    1.310   .     A
C616   C618    1.478   .     S
C616   O659    1.305   .     A
C617   C630    1.409   .     A
C618   C629    1.403   .     A
C618   C630    1.418   .     A
C619   C620    1.393   .     A
C619   I647    2.123   .     S
C620   C81     1.386   1_556 S
C620   H97     1.083   1_556 S
C621   H636    1.081   .     S
C622   O660    1.220   .     D
C622   H639    1.085   .     S
C623   C628    1.406   .     A
C624   O652    1.219   .     D
C624   C77     1.483   1_556 S
C624   H100    1.085   1_556 S
C625   C629    1.413   .     A
C626   C627    1.406   .     A
C626   C85     1.420   1_556 S
C626   C77     1.416   1_556 S
C627   H635    1.081   .     S
C627   C628    1.385   .     A
C628   H638    1.081   .     S
C629   I646    2.156   .     S
C630   I641    2.143   .     S
Cu631  O656    1.947   .     S
Cu631  N649    2.037   .     S
Cu631  O658    1.923   .     S
Cu631  O654    1.938   .     S
Cu631  Cu632   2.711   .     S
Cu631  O651    1.951   .     S
Cu632  O655    1.923   .     S
Cu632  O659    1.938   .     S
Cu632  N650    2.037   .     S
Cu632  O657    1.951   .     S
Cu632  O653    1.947   .     S
C661   O711    1.299   .     A
C661   C669    1.442   .     S
C661   O713    1.296   .     A
C662   C664    1.491   .     S
C662   C683    1.423   .     A
C662   C679    1.423   .     A
C663   C669    1.405   .     A
C663   I708    2.127   .     S
C663   C845    1.381   .     S
C664   O715    1.313   .     A
C664   O714    1.307   .     A
C665   C666    1.391   .     A
C665   H693    1.083   .     S
C665   C1023   1.381   1_545 S
C666   C667    1.404   .     A
C666   C675    1.438   .     S
C667   I702    2.138   .     S
C667   C1028   1.404   1_545 S
C668   C682    1.486   .     S
C668   C669    1.413   .     A
C668   C847    1.404   .     S
C670   I703    2.125   .     S
C670   N710    1.388   .     A
C670   C551    1.420   1_655 S
C671   N709    1.359   .     A
C671   H694    1.080   .     S
C672   C683    1.415   .     A
C672   C141    1.405   1_556 S
C672   C145    1.421   1_556 S
C673   N709    1.371   .     A
C673   I704    2.144   .     S
C674   N710    1.385   .     A
C674   I705    2.141   .     S
C674   C553    1.411   1_655 S
C675   O717    1.299   .     A
C675   O716    1.296   .     A
C676   O718    1.310   .     A
C676   C678    1.478   .     S
C676   O719    1.305   .     A
C677   C690    1.409   .     A
C678   C689    1.403   .     A
C678   C690    1.418   .     A
C679   C680    1.393   .     A
C679   I707    2.123   .     S
C680   C141    1.386   1_556 S
C680   H157    1.083   1_556 S
C681   H696    1.081   .     S
C682   O720    1.220   .     D
C682   H699    1.085   .     S
C683   C688    1.406   .     A
C684   O712    1.219   .     D
C684   C137    1.483   1_556 S
C684   H160    1.085   1_556 S
C685   C689    1.413   .     A
C686   C687    1.406   .     A
C686   C145    1.420   1_556 S
C686   C137    1.416   1_556 S
C687   H695    1.081   .     S
C687   C688    1.385   .     A
C688   H698    1.081   .     S
C689   I706    2.156   .     S
C690   I701    2.143   .     S
Cu691  O716    1.947   .     S
Cu691  N709    2.037   .     S
Cu691  O718    1.923   .     S
Cu691  O714    1.938   .     S
Cu691  Cu692   2.711   .     S
Cu691  O711    1.951   .     S
Cu692  O715    1.923   .     S
Cu692  O719    1.938   .     S
Cu692  N710    2.037   .     S
Cu692  O717    1.951   .     S
Cu692  O713    1.947   .     S
C721   O771    1.299   .     A
C721   C729    1.442   .     S
C721   O773    1.296   .     A
C722   C724    1.491   .     S
C722   C743    1.423   .     A
C722   C739    1.423   .     A
C723   C729    1.405   .     A
C723   I768    2.127   .     S
C723   C905    1.381   .     S
C724   O775    1.313   .     A
C724   O774    1.307   .     A
C725   C726    1.391   .     A
C725   H753    1.083   .     S
C726   C727    1.404   .     A
C726   C735    1.438   .     S
C727   I762    2.138   .     S
C728   C742    1.486   .     S
C728   C729    1.413   .     A
C728   C907    1.404   .     S
C730   I763    2.125   .     S
C730   N770    1.388   .     A
C730   C791    1.420   .     S
C731   N769    1.359   .     A
C731   H754    1.080   .     S
C731   C850    1.420   1_455 S
C732   C743    1.415   .     A
C732   C201    1.405   1_556 S
C732   C205    1.421   1_556 S
C733   N769    1.371   .     A
C733   I764    2.144   .     S
C733   C854    1.411   1_455 S
C734   N770    1.385   .     A
C734   I765    2.141   .     S
C734   C793    1.411   .     S
C735   O777    1.299   .     A
C735   O776    1.296   .     A
C736   O778    1.310   .     A
C736   C738    1.478   .     S
C736   O779    1.305   .     A
C737   C750    1.409   .     A
C738   C749    1.403   .     A
C738   C750    1.418   .     A
C739   C740    1.393   .     A
C739   I767    2.123   .     S
C740   C201    1.386   1_556 S
C740   H217    1.083   1_556 S
C741   H756    1.081   .     S
C742   O780    1.220   .     D
C742   H759    1.085   .     S
C743   C748    1.406   .     A
C744   O772    1.219   .     D
C744   C197    1.483   1_556 S
C744   H220    1.085   1_556 S
C745   C749    1.413   .     A
C746   C747    1.406   .     A
C746   C205    1.420   1_556 S
C746   C197    1.416   1_556 S
C747   H755    1.081   .     S
C747   C748    1.385   .     A
C748   H758    1.081   .     S
C749   I766    2.156   .     S
C750   I761    2.143   .     S
Cu751  O776    1.947   .     S
Cu751  N769    2.037   .     S
Cu751  O778    1.923   .     S
Cu751  O774    1.938   .     S
Cu751  Cu752   2.711   .     S
Cu751  O771    1.951   .     S
Cu752  O775    1.923   .     S
Cu752  O779    1.938   .     S
Cu752  N770    2.037   .     S
Cu752  O777    1.951   .     S
Cu752  O773    1.947   .     S
C781   O831    1.299   .     A
C781   C789    1.442   .     S
C781   O833    1.296   .     A
C782   C784    1.491   .     S
C782   C803    1.423   .     A
C782   C799    1.423   .     A
C783   C789    1.405   .     A
C783   I828    2.127   .     S
C783   C965    1.381   .     S
C784   O835    1.313   .     A
C784   O834    1.307   .     A
C785   C786    1.391   .     A
C785   H813    1.083   .     S
C786   C787    1.404   .     A
C786   C795    1.438   .     S
C787   I822    2.138   .     S
C788   C802    1.486   .     S
C788   C789    1.413   .     A
C788   C967    1.404   .     S
C790   I823    2.125   .     S
C790   N830    1.388   .     A
C790   C851    1.420   .     S
C791   N829    1.359   .     A
C791   H814    1.080   .     S
C792   C803    1.415   .     A
C792   C261    1.405   1_556 S
C792   C265    1.421   1_556 S
C793   N829    1.371   .     A
C793   I824    2.144   .     S
C794   N830    1.385   .     A
C794   I825    2.141   .     S
C794   C853    1.411   .     S
C795   O837    1.299   .     A
C795   O836    1.296   .     A
C796   O838    1.310   .     A
C796   C798    1.478   .     S
C796   O839    1.305   .     A
C797   C810    1.409   .     A
C798   C809    1.403   .     A
C798   C810    1.418   .     A
C799   C800    1.393   .     A
C799   I827    2.123   .     S
C800   C261    1.386   1_556 S
C800   H277    1.083   1_556 S
C801   H816    1.081   .     S
C802   O840    1.220   .     D
C802   H819    1.085   .     S
C803   C808    1.406   .     A
C804   O832    1.219   .     D
C804   C257    1.483   1_556 S
C804   H280    1.085   1_556 S
C805   C809    1.413   .     A
C806   C807    1.406   .     A
C806   C265    1.420   1_556 S
C806   C257    1.416   1_556 S
C807   H815    1.081   .     S
C807   C808    1.385   .     A
C808   H818    1.081   .     S
C809   I826    2.156   .     S
C810   I821    2.143   .     S
Cu811  O836    1.947   .     S
Cu811  N829    2.037   .     S
Cu811  O838    1.923   .     S
Cu811  O834    1.938   .     S
Cu811  Cu812   2.711   .     S
Cu811  O831    1.951   .     S
Cu812  O835    1.923   .     S
Cu812  O839    1.938   .     S
Cu812  N830    2.037   .     S
Cu812  O837    1.951   .     S
Cu812  O833    1.947   .     S
C841   O891    1.299   .     A
C841   C849    1.442   .     S
C841   O893    1.296   .     A
C842   C844    1.491   .     S
C842   C863    1.423   .     A
C842   C859    1.423   .     A
C843   C849    1.405   .     A
C843   I888    2.127   .     S
C843   C1025   1.381   .     S
C844   O895    1.313   .     A
C844   O894    1.307   .     A
C845   C846    1.391   .     A
C845   H873    1.083   .     S
C846   C847    1.404   .     A
C846   C855    1.438   .     S
C847   I882    2.138   .     S
C848   C862    1.486   .     S
C848   C849    1.413   .     A
C848   C1027   1.404   .     S
C850   I883    2.125   .     S
C850   N890    1.388   .     A
C850   C731    1.420   1_655 S
C851   N889    1.359   .     A
C851   H874    1.080   .     S
C852   C863    1.415   .     A
C852   C321    1.405   1_556 S
C852   C325    1.421   1_556 S
C853   N889    1.371   .     A
C853   I884    2.144   .     S
C854   N890    1.385   .     A
C854   I885    2.141   .     S
C854   C733    1.411   1_655 S
C855   O897    1.299   .     A
C855   O896    1.296   .     A
C856   O898    1.310   .     A
C856   C858    1.478   .     S
C856   O899    1.305   .     A
C857   C870    1.409   .     A
C858   C869    1.403   .     A
C858   C870    1.418   .     A
C859   C860    1.393   .     A
C859   I887    2.123   .     S
C860   C321    1.386   1_556 S
C860   H337    1.083   1_556 S
C861   H876    1.081   .     S
C862   O900    1.220   .     D
C862   H879    1.085   .     S
C863   C868    1.406   .     A
C864   O892    1.219   .     D
C864   C317    1.483   1_556 S
C864   H340    1.085   1_556 S
C865   C869    1.413   .     A
C866   C867    1.406   .     A
C866   C325    1.420   1_556 S
C866   C317    1.416   1_556 S
C867   H875    1.081   .     S
C867   C868    1.385   .     A
C868   H878    1.081   .     S
C869   I886    2.156   .     S
C870   I881    2.143   .     S
Cu871  O896    1.947   .     S
Cu871  N889    2.037   .     S
Cu871  O898    1.923   .     S
Cu871  O894    1.938   .     S
Cu871  Cu872   2.711   .     S
Cu871  O891    1.951   .     S
Cu872  O895    1.923   .     S
Cu872  O899    1.938   .     S
Cu872  N890    2.037   .     S
Cu872  O897    1.951   .     S
Cu872  O893    1.947   .     S
C901   O951    1.299   .     A
C901   C909    1.442   .     S
C901   O953    1.296   .     A
C902   C904    1.491   .     S
C902   C923    1.423   .     A
C902   C919    1.423   .     A
C903   C909    1.405   .     A
C903   I948    2.127   .     S
C903   C545    1.381   1_565 S
C904   O955    1.313   .     A
C904   O954    1.307   .     A
C905   C906    1.391   .     A
C905   H933    1.083   .     S
C906   C907    1.404   .     A
C906   C915    1.438   .     S
C907   I942    2.138   .     S
C908   C922    1.486   .     S
C908   C909    1.413   .     A
C908   C547    1.404   1_565 S
C910   I943    2.125   .     S
C910   N950    1.388   .     A
C910   C971    1.420   .     S
C911   N949    1.359   .     A
C911   H934    1.080   .     S
C911   C1030   1.420   1_455 S
C912   C923    1.415   .     A
C912   C381    1.405   1_556 S
C912   C385    1.421   1_556 S
C913   N949    1.371   .     A
C913   I944    2.144   .     S
C913   C1034   1.411   1_455 S
C914   N950    1.385   .     A
C914   I945    2.141   .     S
C914   C973    1.411   .     S
C915   O957    1.299   .     A
C915   O956    1.296   .     A
C916   O958    1.310   .     A
C916   C918    1.478   .     S
C916   O959    1.305   .     A
C917   C930    1.409   .     A
C918   C929    1.403   .     A
C918   C930    1.418   .     A
C919   C920    1.393   .     A
C919   I947    2.123   .     S
C920   C381    1.386   1_556 S
C920   H397    1.083   1_556 S
C921   H936    1.081   .     S
C922   O960    1.220   .     D
C922   H939    1.085   .     S
C923   C928    1.406   .     A
C924   O952    1.219   .     D
C924   C377    1.483   1_556 S
C924   H400    1.085   1_556 S
C925   C929    1.413   .     A
C926   C927    1.406   .     A
C926   C385    1.420   1_556 S
C926   C377    1.416   1_556 S
C927   H935    1.081   .     S
C927   C928    1.385   .     A
C928   H938    1.081   .     S
C929   I946    2.156   .     S
C930   I941    2.143   .     S
Cu931  O956    1.947   .     S
Cu931  N949    2.037   .     S
Cu931  O958    1.923   .     S
Cu931  O954    1.938   .     S
Cu931  Cu932   2.711   .     S
Cu931  O951    1.951   .     S
Cu932  O955    1.923   .     S
Cu932  O959    1.938   .     S
Cu932  N950    2.037   .     S
Cu932  O957    1.951   .     S
Cu932  O953    1.947   .     S
C961   O1011   1.299   .     A
C961   C969    1.442   .     S
C961   O1013   1.296   .     A
C962   C964    1.491   .     S
C962   C983    1.423   .     A
C962   C979    1.423   .     A
C963   C969    1.405   .     A
C963   I1008   2.127   .     S
C963   C605    1.381   1_565 S
C964   O1015   1.313   .     A
C964   O1014   1.307   .     A
C965   C966    1.391   .     A
C965   H993    1.083   .     S
C966   C967    1.404   .     A
C966   C975    1.438   .     S
C967   I1002   2.138   .     S
C968   C982    1.486   .     S
C968   C969    1.413   .     A
C968   C607    1.404   1_565 S
C970   I1003   2.125   .     S
C970   N1010   1.388   .     A
C970   C1031   1.420   .     S
C971   N1009   1.359   .     A
C971   H994    1.080   .     S
C972   C983    1.415   .     A
C972   C441    1.405   1_556 S
C972   C445    1.421   1_556 S
C973   N1009   1.371   .     A
C973   I1004   2.144   .     S
C974   N1010   1.385   .     A
C974   I1005   2.141   .     S
C974   C1033   1.411   .     S
C975   O1017   1.299   .     A
C975   O1016   1.296   .     A
C976   O1018   1.310   .     A
C976   C978    1.478   .     S
C976   O1019   1.305   .     A
C977   C990    1.409   .     A
C978   C989    1.403   .     A
C978   C990    1.418   .     A
C979   C980    1.393   .     A
C979   I1007   2.123   .     S
C980   C441    1.386   1_556 S
C980   H457    1.083   1_556 S
C981   H996    1.081   .     S
C982   O1020   1.220   .     D
C982   H999    1.085   .     S
C983   C988    1.406   .     A
C984   O1012   1.219   .     D
C984   C437    1.483   1_556 S
C984   H460    1.085   1_556 S
C985   C989    1.413   .     A
C986   C987    1.406   .     A
C986   C445    1.420   1_556 S
C986   C437    1.416   1_556 S
C987   H995    1.081   .     S
C987   C988    1.385   .     A
C988   H998    1.081   .     S
C989   I1006   2.156   .     S
C990   I1001   2.143   .     S
Cu991  O1016   1.947   .     S
Cu991  N1009   2.037   .     S
Cu991  O1018   1.923   .     S
Cu991  O1014   1.938   .     S
Cu991  Cu992   2.711   .     S
Cu991  O1011   1.951   .     S
Cu992  O1015   1.923   .     S
Cu992  O1019   1.938   .     S
Cu992  N1010   2.037   .     S
Cu992  O1017   1.951   .     S
Cu992  O1013   1.947   .     S
C1021  O1071   1.299   .     A
C1021  C1029   1.442   .     S
C1021  O1073   1.296   .     A
C1022  C1024   1.491   .     S
C1022  C1043   1.423   .     A
C1022  C1039   1.423   .     A
C1023  C1029   1.405   .     A
C1023  I1068   2.127   .     S
C1023  C665    1.381   1_565 S
C1024  O1075   1.313   .     A
C1024  O1074   1.307   .     A
C1025  C1026   1.391   .     A
C1025  H1053   1.083   .     S
C1026  C1027   1.404   .     A
C1026  C1035   1.438   .     S
C1027  I1062   2.138   .     S
C1028  C1042   1.486   .     S
C1028  C1029   1.413   .     A
C1028  C667    1.404   1_565 S
C1030  I1063   2.125   .     S
C1030  N1070   1.388   .     A
C1030  C911    1.420   1_655 S
C1031  N1069   1.359   .     A
C1031  H1054   1.080   .     S
C1032  C1043   1.415   .     A
C1032  C501    1.405   1_556 S
C1032  C505    1.421   1_556 S
C1033  N1069   1.371   .     A
C1033  I1064   2.144   .     S
C1034  N1070   1.385   .     A
C1034  I1065   2.141   .     S
C1034  C913    1.411   1_655 S
C1035  O1077   1.299   .     A
C1035  O1076   1.296   .     A
C1036  O1078   1.310   .     A
C1036  C1038   1.478   .     S
C1036  O1079   1.305   .     A
C1037  C1050   1.409   .     A
C1038  C1049   1.403   .     A
C1038  C1050   1.418   .     A
C1039  C1040   1.393   .     A
C1039  I1067   2.123   .     S
C1040  C501    1.386   1_556 S
C1040  H517    1.083   1_556 S
C1041  H1056   1.081   .     S
C1042  O1080   1.220   .     D
C1042  H1059   1.085   .     S
C1043  C1048   1.406   .     A
C1044  O1072   1.219   .     D
C1044  C497    1.483   1_556 S
C1044  H520    1.085   1_556 S
C1045  C1049   1.413   .     A
C1046  C1047   1.406   .     A
C1046  C505    1.420   1_556 S
C1046  C497    1.416   1_556 S
C1047  H1055   1.081   .     S
C1047  C1048   1.385   .     A
C1048  H1058   1.081   .     S
C1049  I1066   2.156   .     S
C1050  I1061   2.143   .     S
Cu1051 O1076   1.947   .     S
Cu1051 N1069   2.037   .     S
Cu1051 O1078   1.923   .     S
Cu1051 O1074   1.938   .     S
Cu1051 Cu1052  2.711   .     S
Cu1051 O1071   1.951   .     S
Cu1052 O1075   1.923   .     S
Cu1052 O1079   1.938   .     S
Cu1052 N1070   2.037   .     S
Cu1052 O1077   1.951   .     S
Cu1052 O1073   1.947   .     S
