data_str_m3_o1_o10_pcu_sym.157
_audit_creation_date              2020-01-03
_audit_creation_method            'Materials Studio'
_symmetry_space_group_name_H-M    'P1'
_symmetry_Int_Tables_number       1
_symmetry_cell_setting            triclinic
loop_
_symmetry_equiv_pos_as_xyz
  x,y,z
_cell_length_a                    26.2959
_cell_length_b                    32.3873
_cell_length_c                    29.7343
_cell_angle_alpha                 89.9329
_cell_angle_beta                  98.8566
_cell_angle_gamma                 94.6708
loop_
_atom_site_label
_atom_site_type_symbol
_atom_site_fract_x
_atom_site_fract_y
_atom_site_fract_z
_atom_site_U_iso_or_equiv
_atom_site_adp_type
_atom_site_occupancy
C1     C     0.17057   0.08710   0.16746   0.00000  Uiso   1.00
C2     C     0.16439   0.24656   0.16622   0.00000  Uiso   1.00
C3     C     0.06734   0.16649   0.15481   0.00000  Uiso   1.00
C4     C     0.26606   0.16704   0.17842   0.00000  Uiso   1.00
C5     C     0.01260   0.16299   0.14861   0.00000  Uiso   1.00
C6     C     0.32084   0.17134   0.18405   0.00000  Uiso   1.00
C7     C     0.18746   0.02234   0.13162   0.00000  Uiso   1.00
C8     C     0.15330   0.31203   0.20448   0.00000  Uiso   1.00
C9     C     0.17669   0.31321   0.12769   0.00000  Uiso   1.00
C10    C     0.16359   0.02109   0.20758   0.00000  Uiso   1.00
C11    C     0.16296   0.29100   0.16559   0.00000  Uiso   1.00
C12    C     0.17518   0.04313   0.16918   0.00000  Uiso   1.00
C13    C     0.19987   0.19405   0.03015   0.00000  Uiso   1.00
C14    C     0.12970   0.14272   0.30307   0.00000  Uiso   1.00
C15    C     0.19816   0.19603   0.31434   0.00000  Uiso   1.00
C16    C     0.12901   0.14258   0.01816   0.00000  Uiso   1.00
N17    N     0.16665   0.16666   0.28573   0.00000  Uiso   1.00
N18    N     0.16668   0.16668   0.04760   0.00000  Uiso   1.00
O19    O     0.16666   0.10558   0.20487   0.00000  Uiso   1.00
O20    O     0.16667   0.22775   0.12846   0.00000  Uiso   1.00
O21    O     0.16666   0.10559   0.12843   0.00000  Uiso   1.00
O22    O     0.16667   0.22774   0.20490   0.00000  Uiso   1.00
O23    O     0.09058   0.16666   0.19595   0.00000  Uiso   1.00
O24    O     0.24275   0.16667   0.13739   0.00000  Uiso   1.00
O25    O     0.09058   0.16667   0.11950   0.00000  Uiso   1.00
O26    O     0.24275   0.16666   0.21383   0.00000  Uiso   1.00
Zn27   Zn    0.16667   0.16666   0.21771   0.00000  Uiso   1.00
Zn28   Zn    0.16667   0.16667   0.11563   0.00000  Uiso   1.00
C29    C     0.32124   0.14880   0.10337   0.00000  Uiso   1.00
N30    N     0.30208   0.13810   0.06715   0.00000  Uiso   1.00
C31    C     0.01300   0.18901   0.22751   0.00000  Uiso   1.00
N32    N     0.03398   0.20291   0.26190   0.00000  Uiso   1.00
C33    C     0.21670   0.04303   0.09954   0.00000  Uiso   1.00
N34    N     0.24055   0.05921   0.07407   0.00000  Uiso   1.00
C35    C     0.13039   0.29167   0.24080   0.00000  Uiso   1.00
N36    N     0.11183   0.27567   0.26978   0.00000  Uiso   1.00
O37    O     0.18461   0.29307   0.08852   0.00000  Uiso   1.00
C38    C     0.14548   0.30077   0.05179   0.00000  Uiso   1.00
H39    H     0.16228   0.29926   0.01989   0.00000  Uiso   1.00
H40    H     0.13101   0.33205   0.05288   0.00000  Uiso   1.00
C41    C     0.10018   0.26793   0.04912   0.00000  Uiso   1.00
H42    H     0.06951   0.27539   0.02112   0.00000  Uiso   1.00
H43    H     0.11263   0.23701   0.04222   0.00000  Uiso   1.00
H44    H     0.08426   0.26705   0.08156   0.00000  Uiso   1.00
O45    O     0.16375   0.04099   0.24881   0.00000  Uiso   1.00
C46    C     0.21289   0.03916   0.27573   0.00000  Uiso   1.00
H47    H     0.24467   0.03446   0.25568   0.00000  Uiso   1.00
H48    H     0.21065   0.01350   0.30035   0.00000  Uiso   1.00
C49    C     0.22786   0.07939   0.30233   0.00000  Uiso   1.00
H50    H     0.23099   0.10573   0.27886   0.00000  Uiso   1.00
H51    H     0.26600   0.07771   0.32359   0.00000  Uiso   1.00
H52    H     0.19886   0.08457   0.32464   0.00000  Uiso   1.00
O53    O     0.22632   0.22243   0.06253   0.00000  Uiso   1.00
C54    C     0.27033   0.24465   0.05120   0.00000  Uiso   1.00
H55    H     0.25778   0.27133   0.03025   0.00000  Uiso   1.00
H56    H     0.29449   0.22433   0.03496   0.00000  Uiso   1.00
C57    C     0.30310   0.26314   0.09430   0.00000  Uiso   1.00
H58    H     0.32204   0.23861   0.11490   0.00000  Uiso   1.00
H59    H     0.33327   0.28614   0.08505   0.00000  Uiso   1.00
H60    H     0.27913   0.27913   0.11529   0.00000  Uiso   1.00
O61    O     0.08772   0.12801   0.27134   0.00000  Uiso   1.00
C62    C     0.06861   0.08721   0.27829   0.00000  Uiso   1.00
H63    H     0.03594   0.08849   0.29746   0.00000  Uiso   1.00
H64    H     0.09891   0.06804   0.29559   0.00000  Uiso   1.00
C65    C     0.04549   0.06720   0.23258   0.00000  Uiso   1.00
H66    H     0.07432   0.06856   0.20901   0.00000  Uiso   1.00
H67    H     0.03234   0.03428   0.23758   0.00000  Uiso   1.00
H68    H     0.01184   0.08364   0.21684   0.00000  Uiso   1.00
O69    O     0.21380   0.23399   0.29646   0.00000  Uiso   1.00
C70    C     0.26045   0.23301   0.27842   0.00000  Uiso   1.00
H71    H     0.25128   0.23084   0.24139   0.00000  Uiso   1.00
H72    H     0.28375   0.20737   0.29215   0.00000  Uiso   1.00
C73    C     0.29301   0.27454   0.28494   0.00000  Uiso   1.00
H74    H     0.31834   0.27683   0.31824   0.00000  Uiso   1.00
H75    H     0.31870   0.27817   0.25856   0.00000  Uiso   1.00
H76    H     0.26773   0.30035   0.28142   0.00000  Uiso   1.00
O77    O     0.08348   0.12629   0.03267   0.00000  Uiso   1.00
C78    C     0.08988   0.08891   0.05711   0.00000  Uiso   1.00
H79    H     0.08582   0.09566   0.09259   0.00000  Uiso   1.00
H80    H     0.12684   0.07527   0.05448   0.00000  Uiso   1.00
C81    C     0.04553   0.05558   0.04371   0.00000  Uiso   1.00
H82    H     0.05166   0.03667   0.01431   0.00000  Uiso   1.00
H83    H     0.04335   0.03370   0.07233   0.00000  Uiso   1.00
H84    H     0.00831   0.06972   0.03648   0.00000  Uiso   1.00
C85    C     0.50391   0.08710   0.16746   0.00000  Uiso   1.00
C86    C     0.49773   0.24656   0.16622   0.00000  Uiso   1.00
C87    C     0.40068   0.16649   0.15481   0.00000  Uiso   1.00
C88    C     0.59939   0.16704   0.17842   0.00000  Uiso   1.00
C89    C     0.34593   0.16299   0.14861   0.00000  Uiso   1.00
C90    C     0.65418   0.17134   0.18405   0.00000  Uiso   1.00
C91    C     0.52079   0.02234   0.13162   0.00000  Uiso   1.00
C92    C     0.48664   0.31203   0.20448   0.00000  Uiso   1.00
C93    C     0.51002   0.31321   0.12769   0.00000  Uiso   1.00
C94    C     0.49692   0.02109   0.20758   0.00000  Uiso   1.00
C95    C     0.49630   0.29100   0.16559   0.00000  Uiso   1.00
C96    C     0.50851   0.04313   0.16918   0.00000  Uiso   1.00
C97    C     0.53320   0.19405   0.03015   0.00000  Uiso   1.00
C98    C     0.46303   0.14272   0.30307   0.00000  Uiso   1.00
C99    C     0.53149   0.19603   0.31434   0.00000  Uiso   1.00
C100   C     0.46234   0.14258   0.01816   0.00000  Uiso   1.00
N101   N     0.49999   0.16666   0.28573   0.00000  Uiso   1.00
N102   N     0.50001   0.16668   0.04760   0.00000  Uiso   1.00
O103   O     0.50000   0.10558   0.20487   0.00000  Uiso   1.00
O104   O     0.50000   0.22775   0.12846   0.00000  Uiso   1.00
O105   O     0.50000   0.10559   0.12843   0.00000  Uiso   1.00
O106   O     0.50000   0.22774   0.20490   0.00000  Uiso   1.00
O107   O     0.42392   0.16666   0.19595   0.00000  Uiso   1.00
O108   O     0.57608   0.16667   0.13739   0.00000  Uiso   1.00
O109   O     0.42392   0.16667   0.11950   0.00000  Uiso   1.00
O110   O     0.57608   0.16666   0.21383   0.00000  Uiso   1.00
Zn111  Zn    0.50000   0.16666   0.21771   0.00000  Uiso   1.00
Zn112  Zn    0.50000   0.16667   0.11563   0.00000  Uiso   1.00
C113   C     0.65457   0.14880   0.10337   0.00000  Uiso   1.00
N114   N     0.63541   0.13810   0.06715   0.00000  Uiso   1.00
C115   C     0.34634   0.18901   0.22751   0.00000  Uiso   1.00
N116   N     0.36731   0.20291   0.26190   0.00000  Uiso   1.00
C117   C     0.55003   0.04303   0.09954   0.00000  Uiso   1.00
N118   N     0.57389   0.05921   0.07407   0.00000  Uiso   1.00
C119   C     0.46373   0.29167   0.24080   0.00000  Uiso   1.00
N120   N     0.44517   0.27567   0.26978   0.00000  Uiso   1.00
O121   O     0.51794   0.29307   0.08852   0.00000  Uiso   1.00
C122   C     0.47881   0.30077   0.05179   0.00000  Uiso   1.00
H123   H     0.49562   0.29926   0.01989   0.00000  Uiso   1.00
H124   H     0.46435   0.33205   0.05288   0.00000  Uiso   1.00
C125   C     0.43351   0.26793   0.04912   0.00000  Uiso   1.00
H126   H     0.40285   0.27539   0.02112   0.00000  Uiso   1.00
H127   H     0.44597   0.23701   0.04222   0.00000  Uiso   1.00
H128   H     0.41760   0.26705   0.08156   0.00000  Uiso   1.00
O129   O     0.49708   0.04099   0.24881   0.00000  Uiso   1.00
C130   C     0.54622   0.03916   0.27573   0.00000  Uiso   1.00
H131   H     0.57800   0.03446   0.25568   0.00000  Uiso   1.00
H132   H     0.54399   0.01350   0.30035   0.00000  Uiso   1.00
C133   C     0.56119   0.07939   0.30233   0.00000  Uiso   1.00
H134   H     0.56432   0.10573   0.27886   0.00000  Uiso   1.00
H135   H     0.59933   0.07771   0.32359   0.00000  Uiso   1.00
H136   H     0.53219   0.08457   0.32464   0.00000  Uiso   1.00
O137   O     0.55965   0.22243   0.06253   0.00000  Uiso   1.00
C138   C     0.60366   0.24465   0.05120   0.00000  Uiso   1.00
H139   H     0.59112   0.27133   0.03025   0.00000  Uiso   1.00
H140   H     0.62783   0.22433   0.03496   0.00000  Uiso   1.00
C141   C     0.63643   0.26314   0.09430   0.00000  Uiso   1.00
H142   H     0.65537   0.23861   0.11490   0.00000  Uiso   1.00
H143   H     0.66661   0.28614   0.08505   0.00000  Uiso   1.00
H144   H     0.61247   0.27913   0.11529   0.00000  Uiso   1.00
O145   O     0.42106   0.12801   0.27134   0.00000  Uiso   1.00
C146   C     0.40194   0.08721   0.27829   0.00000  Uiso   1.00
H147   H     0.36927   0.08849   0.29746   0.00000  Uiso   1.00
H148   H     0.43224   0.06804   0.29559   0.00000  Uiso   1.00
C149   C     0.37883   0.06720   0.23258   0.00000  Uiso   1.00
H150   H     0.40765   0.06856   0.20901   0.00000  Uiso   1.00
H151   H     0.36567   0.03428   0.23758   0.00000  Uiso   1.00
H152   H     0.34517   0.08364   0.21684   0.00000  Uiso   1.00
O153   O     0.54713   0.23399   0.29646   0.00000  Uiso   1.00
C154   C     0.59378   0.23301   0.27842   0.00000  Uiso   1.00
H155   H     0.58462   0.23084   0.24139   0.00000  Uiso   1.00
H156   H     0.61708   0.20737   0.29215   0.00000  Uiso   1.00
C157   C     0.62634   0.27454   0.28494   0.00000  Uiso   1.00
H158   H     0.65167   0.27683   0.31824   0.00000  Uiso   1.00
H159   H     0.65203   0.27817   0.25856   0.00000  Uiso   1.00
H160   H     0.60106   0.30035   0.28142   0.00000  Uiso   1.00
O161   O     0.41681   0.12629   0.03267   0.00000  Uiso   1.00
C162   C     0.42321   0.08891   0.05711   0.00000  Uiso   1.00
H163   H     0.41915   0.09566   0.09259   0.00000  Uiso   1.00
H164   H     0.46018   0.07527   0.05448   0.00000  Uiso   1.00
C165   C     0.37886   0.05558   0.04371   0.00000  Uiso   1.00
H166   H     0.38500   0.03667   0.01431   0.00000  Uiso   1.00
H167   H     0.37669   0.03370   0.07233   0.00000  Uiso   1.00
H168   H     0.34164   0.06972   0.03648   0.00000  Uiso   1.00
C169   C     0.83724   0.08710   0.16746   0.00000  Uiso   1.00
C170   C     0.83106   0.24656   0.16622   0.00000  Uiso   1.00
C171   C     0.73401   0.16649   0.15481   0.00000  Uiso   1.00
C172   C     0.93272   0.16704   0.17842   0.00000  Uiso   1.00
C173   C     0.67927   0.16299   0.14861   0.00000  Uiso   1.00
C174   C     0.98751   0.17134   0.18405   0.00000  Uiso   1.00
C175   C     0.85412   0.02234   0.13162   0.00000  Uiso   1.00
C176   C     0.81997   0.31203   0.20448   0.00000  Uiso   1.00
C177   C     0.84336   0.31321   0.12769   0.00000  Uiso   1.00
C178   C     0.83026   0.02109   0.20758   0.00000  Uiso   1.00
C179   C     0.82963   0.29100   0.16559   0.00000  Uiso   1.00
C180   C     0.84184   0.04313   0.16918   0.00000  Uiso   1.00
C181   C     0.86654   0.19405   0.03015   0.00000  Uiso   1.00
C182   C     0.79636   0.14272   0.30307   0.00000  Uiso   1.00
C183   C     0.86483   0.19603   0.31434   0.00000  Uiso   1.00
C184   C     0.79567   0.14258   0.01816   0.00000  Uiso   1.00
N185   N     0.83332   0.16666   0.28573   0.00000  Uiso   1.00
N186   N     0.83335   0.16668   0.04760   0.00000  Uiso   1.00
O187   O     0.83333   0.10558   0.20487   0.00000  Uiso   1.00
O188   O     0.83334   0.22775   0.12846   0.00000  Uiso   1.00
O189   O     0.83333   0.10559   0.12843   0.00000  Uiso   1.00
O190   O     0.83334   0.22774   0.20490   0.00000  Uiso   1.00
O191   O     0.75725   0.16666   0.19595   0.00000  Uiso   1.00
O192   O     0.90942   0.16667   0.13739   0.00000  Uiso   1.00
O193   O     0.75725   0.16667   0.11950   0.00000  Uiso   1.00
O194   O     0.90942   0.16666   0.21383   0.00000  Uiso   1.00
Zn195  Zn    0.83333   0.16666   0.21771   0.00000  Uiso   1.00
Zn196  Zn    0.83333   0.16667   0.11563   0.00000  Uiso   1.00
C197   C     0.98791   0.14880   0.10337   0.00000  Uiso   1.00
N198   N     0.96875   0.13810   0.06715   0.00000  Uiso   1.00
C199   C     0.67967   0.18901   0.22751   0.00000  Uiso   1.00
N200   N     0.70064   0.20291   0.26190   0.00000  Uiso   1.00
C201   C     0.88336   0.04303   0.09954   0.00000  Uiso   1.00
N202   N     0.90722   0.05921   0.07407   0.00000  Uiso   1.00
C203   C     0.79706   0.29167   0.24080   0.00000  Uiso   1.00
N204   N     0.77850   0.27567   0.26978   0.00000  Uiso   1.00
O205   O     0.85128   0.29307   0.08852   0.00000  Uiso   1.00
C206   C     0.81214   0.30077   0.05179   0.00000  Uiso   1.00
H207   H     0.82895   0.29926   0.01989   0.00000  Uiso   1.00
H208   H     0.79768   0.33205   0.05288   0.00000  Uiso   1.00
C209   C     0.76684   0.26793   0.04912   0.00000  Uiso   1.00
H210   H     0.73618   0.27539   0.02112   0.00000  Uiso   1.00
H211   H     0.77930   0.23701   0.04222   0.00000  Uiso   1.00
H212   H     0.75093   0.26705   0.08156   0.00000  Uiso   1.00
O213   O     0.83041   0.04099   0.24881   0.00000  Uiso   1.00
C214   C     0.87955   0.03916   0.27573   0.00000  Uiso   1.00
H215   H     0.91133   0.03446   0.25568   0.00000  Uiso   1.00
H216   H     0.87732   0.01350   0.30035   0.00000  Uiso   1.00
C217   C     0.89452   0.07939   0.30233   0.00000  Uiso   1.00
H218   H     0.89765   0.10573   0.27886   0.00000  Uiso   1.00
H219   H     0.93266   0.07771   0.32359   0.00000  Uiso   1.00
H220   H     0.86552   0.08457   0.32464   0.00000  Uiso   1.00
O221   O     0.89298   0.22243   0.06253   0.00000  Uiso   1.00
C222   C     0.93699   0.24465   0.05120   0.00000  Uiso   1.00
H223   H     0.92445   0.27133   0.03025   0.00000  Uiso   1.00
H224   H     0.96116   0.22433   0.03496   0.00000  Uiso   1.00
C225   C     0.96977   0.26314   0.09430   0.00000  Uiso   1.00
H226   H     0.98870   0.23861   0.11490   0.00000  Uiso   1.00
H227   H     0.99994   0.28614   0.08505   0.00000  Uiso   1.00
H228   H     0.94580   0.27913   0.11529   0.00000  Uiso   1.00
O229   O     0.75439   0.12801   0.27134   0.00000  Uiso   1.00
C230   C     0.73527   0.08721   0.27829   0.00000  Uiso   1.00
H231   H     0.70261   0.08849   0.29746   0.00000  Uiso   1.00
H232   H     0.76558   0.06804   0.29559   0.00000  Uiso   1.00
C233   C     0.71216   0.06720   0.23258   0.00000  Uiso   1.00
H234   H     0.74099   0.06856   0.20901   0.00000  Uiso   1.00
H235   H     0.69901   0.03428   0.23758   0.00000  Uiso   1.00
H236   H     0.67850   0.08364   0.21684   0.00000  Uiso   1.00
O237   O     0.88047   0.23399   0.29646   0.00000  Uiso   1.00
C238   C     0.92712   0.23301   0.27842   0.00000  Uiso   1.00
H239   H     0.91795   0.23084   0.24139   0.00000  Uiso   1.00
H240   H     0.95042   0.20737   0.29215   0.00000  Uiso   1.00
C241   C     0.95967   0.27454   0.28494   0.00000  Uiso   1.00
H242   H     0.98501   0.27683   0.31824   0.00000  Uiso   1.00
H243   H     0.98537   0.27817   0.25856   0.00000  Uiso   1.00
H244   H     0.93439   0.30035   0.28142   0.00000  Uiso   1.00
O245   O     0.75015   0.12629   0.03267   0.00000  Uiso   1.00
C246   C     0.75654   0.08891   0.05711   0.00000  Uiso   1.00
H247   H     0.75248   0.09566   0.09259   0.00000  Uiso   1.00
H248   H     0.79351   0.07527   0.05448   0.00000  Uiso   1.00
C249   C     0.71220   0.05558   0.04371   0.00000  Uiso   1.00
H250   H     0.71833   0.03667   0.01431   0.00000  Uiso   1.00
H251   H     0.71002   0.03370   0.07233   0.00000  Uiso   1.00
H252   H     0.67498   0.06972   0.03648   0.00000  Uiso   1.00
C253   C     0.17057   0.42043   0.16746   0.00000  Uiso   1.00
C254   C     0.16439   0.57990   0.16622   0.00000  Uiso   1.00
C255   C     0.06734   0.49982   0.15481   0.00000  Uiso   1.00
C256   C     0.26606   0.50037   0.17842   0.00000  Uiso   1.00
C257   C     0.01260   0.49632   0.14861   0.00000  Uiso   1.00
C258   C     0.32084   0.50468   0.18405   0.00000  Uiso   1.00
C259   C     0.18746   0.35568   0.13162   0.00000  Uiso   1.00
C260   C     0.15330   0.64536   0.20448   0.00000  Uiso   1.00
C261   C     0.17669   0.64655   0.12769   0.00000  Uiso   1.00
C262   C     0.16359   0.35442   0.20758   0.00000  Uiso   1.00
C263   C     0.16296   0.62434   0.16559   0.00000  Uiso   1.00
C264   C     0.17518   0.37646   0.16918   0.00000  Uiso   1.00
C265   C     0.19987   0.52739   0.03015   0.00000  Uiso   1.00
C266   C     0.12970   0.47605   0.30307   0.00000  Uiso   1.00
C267   C     0.19816   0.52936   0.31434   0.00000  Uiso   1.00
C268   C     0.12901   0.47591   0.01816   0.00000  Uiso   1.00
N269   N     0.16665   0.49999   0.28573   0.00000  Uiso   1.00
N270   N     0.16668   0.50001   0.04760   0.00000  Uiso   1.00
O271   O     0.16666   0.43892   0.20487   0.00000  Uiso   1.00
O272   O     0.16667   0.56108   0.12846   0.00000  Uiso   1.00
O273   O     0.16666   0.43893   0.12843   0.00000  Uiso   1.00
O274   O     0.16667   0.56107   0.20490   0.00000  Uiso   1.00
O275   O     0.09058   0.50000   0.19595   0.00000  Uiso   1.00
O276   O     0.24275   0.50000   0.13739   0.00000  Uiso   1.00
O277   O     0.09058   0.50000   0.11950   0.00000  Uiso   1.00
O278   O     0.24275   0.50000   0.21383   0.00000  Uiso   1.00
Zn279  Zn    0.16667   0.49999   0.21771   0.00000  Uiso   1.00
Zn280  Zn    0.16667   0.50001   0.11563   0.00000  Uiso   1.00
C281   C     0.32124   0.48213   0.10337   0.00000  Uiso   1.00
N282   N     0.30208   0.47144   0.06715   0.00000  Uiso   1.00
C283   C     0.01300   0.52235   0.22751   0.00000  Uiso   1.00
N284   N     0.03398   0.53625   0.26190   0.00000  Uiso   1.00
C285   C     0.21670   0.37637   0.09954   0.00000  Uiso   1.00
N286   N     0.24055   0.39254   0.07407   0.00000  Uiso   1.00
C287   C     0.13039   0.62500   0.24080   0.00000  Uiso   1.00
N288   N     0.11183   0.60900   0.26978   0.00000  Uiso   1.00
O289   O     0.18461   0.62640   0.08852   0.00000  Uiso   1.00
C290   C     0.14548   0.63410   0.05179   0.00000  Uiso   1.00
H291   H     0.16228   0.63259   0.01989   0.00000  Uiso   1.00
H292   H     0.13101   0.66539   0.05288   0.00000  Uiso   1.00
C293   C     0.10018   0.60126   0.04912   0.00000  Uiso   1.00
H294   H     0.06951   0.60872   0.02112   0.00000  Uiso   1.00
H295   H     0.11263   0.57034   0.04222   0.00000  Uiso   1.00
H296   H     0.08426   0.60038   0.08156   0.00000  Uiso   1.00
O297   O     0.16375   0.37432   0.24881   0.00000  Uiso   1.00
C298   C     0.21289   0.37249   0.27573   0.00000  Uiso   1.00
H299   H     0.24467   0.36779   0.25568   0.00000  Uiso   1.00
H300   H     0.21065   0.34684   0.30035   0.00000  Uiso   1.00
C301   C     0.22786   0.41272   0.30233   0.00000  Uiso   1.00
H302   H     0.23099   0.43906   0.27886   0.00000  Uiso   1.00
H303   H     0.26600   0.41104   0.32359   0.00000  Uiso   1.00
H304   H     0.19886   0.41790   0.32464   0.00000  Uiso   1.00
O305   O     0.22632   0.55576   0.06253   0.00000  Uiso   1.00
C306   C     0.27033   0.57798   0.05120   0.00000  Uiso   1.00
H307   H     0.25778   0.60467   0.03025   0.00000  Uiso   1.00
H308   H     0.29449   0.55766   0.03496   0.00000  Uiso   1.00
C309   C     0.30310   0.59647   0.09430   0.00000  Uiso   1.00
H310   H     0.32204   0.57195   0.11490   0.00000  Uiso   1.00
H311   H     0.33327   0.61947   0.08505   0.00000  Uiso   1.00
H312   H     0.27913   0.61246   0.11529   0.00000  Uiso   1.00
O313   O     0.08772   0.46135   0.27134   0.00000  Uiso   1.00
C314   C     0.06861   0.42054   0.27829   0.00000  Uiso   1.00
H315   H     0.03594   0.42182   0.29746   0.00000  Uiso   1.00
H316   H     0.09891   0.40137   0.29559   0.00000  Uiso   1.00
C317   C     0.04549   0.40053   0.23258   0.00000  Uiso   1.00
H318   H     0.07432   0.40190   0.20901   0.00000  Uiso   1.00
H319   H     0.03234   0.36761   0.23758   0.00000  Uiso   1.00
H320   H     0.01184   0.41697   0.21684   0.00000  Uiso   1.00
O321   O     0.21380   0.56732   0.29646   0.00000  Uiso   1.00
C322   C     0.26045   0.56634   0.27842   0.00000  Uiso   1.00
H323   H     0.25128   0.56417   0.24139   0.00000  Uiso   1.00
H324   H     0.28375   0.54070   0.29215   0.00000  Uiso   1.00
C325   C     0.29301   0.60787   0.28494   0.00000  Uiso   1.00
H326   H     0.31834   0.61017   0.31824   0.00000  Uiso   1.00
H327   H     0.31870   0.61150   0.25856   0.00000  Uiso   1.00
H328   H     0.26773   0.63368   0.28142   0.00000  Uiso   1.00
O329   O     0.08348   0.45962   0.03267   0.00000  Uiso   1.00
C330   C     0.08988   0.42225   0.05711   0.00000  Uiso   1.00
H331   H     0.08582   0.42900   0.09259   0.00000  Uiso   1.00
H332   H     0.12684   0.40860   0.05448   0.00000  Uiso   1.00
C333   C     0.04553   0.38891   0.04371   0.00000  Uiso   1.00
H334   H     0.05166   0.37000   0.01431   0.00000  Uiso   1.00
H335   H     0.04335   0.36703   0.07233   0.00000  Uiso   1.00
H336   H     0.00831   0.40305   0.03648   0.00000  Uiso   1.00
C337   C     0.50391   0.42043   0.16746   0.00000  Uiso   1.00
C338   C     0.49773   0.57990   0.16622   0.00000  Uiso   1.00
C339   C     0.40068   0.49982   0.15481   0.00000  Uiso   1.00
C340   C     0.59939   0.50037   0.17842   0.00000  Uiso   1.00
C341   C     0.34593   0.49632   0.14861   0.00000  Uiso   1.00
C342   C     0.65418   0.50468   0.18405   0.00000  Uiso   1.00
C343   C     0.52079   0.35568   0.13162   0.00000  Uiso   1.00
C344   C     0.48664   0.64536   0.20448   0.00000  Uiso   1.00
C345   C     0.51002   0.64655   0.12769   0.00000  Uiso   1.00
C346   C     0.49692   0.35442   0.20758   0.00000  Uiso   1.00
C347   C     0.49630   0.62434   0.16559   0.00000  Uiso   1.00
C348   C     0.50851   0.37646   0.16918   0.00000  Uiso   1.00
C349   C     0.53320   0.52739   0.03015   0.00000  Uiso   1.00
C350   C     0.46303   0.47605   0.30307   0.00000  Uiso   1.00
C351   C     0.53149   0.52936   0.31434   0.00000  Uiso   1.00
C352   C     0.46234   0.47591   0.01816   0.00000  Uiso   1.00
N353   N     0.49999   0.49999   0.28573   0.00000  Uiso   1.00
N354   N     0.50001   0.50001   0.04760   0.00000  Uiso   1.00
O355   O     0.50000   0.43892   0.20487   0.00000  Uiso   1.00
O356   O     0.50000   0.56108   0.12846   0.00000  Uiso   1.00
O357   O     0.50000   0.43893   0.12843   0.00000  Uiso   1.00
O358   O     0.50000   0.56107   0.20490   0.00000  Uiso   1.00
O359   O     0.42392   0.50000   0.19595   0.00000  Uiso   1.00
O360   O     0.57608   0.50000   0.13739   0.00000  Uiso   1.00
O361   O     0.42392   0.50000   0.11950   0.00000  Uiso   1.00
O362   O     0.57608   0.50000   0.21383   0.00000  Uiso   1.00
Zn363  Zn    0.50000   0.49999   0.21771   0.00000  Uiso   1.00
Zn364  Zn    0.50000   0.50001   0.11563   0.00000  Uiso   1.00
C365   C     0.65457   0.48213   0.10337   0.00000  Uiso   1.00
N366   N     0.63541   0.47144   0.06715   0.00000  Uiso   1.00
C367   C     0.34634   0.52235   0.22751   0.00000  Uiso   1.00
N368   N     0.36731   0.53625   0.26190   0.00000  Uiso   1.00
C369   C     0.55003   0.37637   0.09954   0.00000  Uiso   1.00
N370   N     0.57389   0.39254   0.07407   0.00000  Uiso   1.00
C371   C     0.46373   0.62500   0.24080   0.00000  Uiso   1.00
N372   N     0.44517   0.60900   0.26978   0.00000  Uiso   1.00
O373   O     0.51794   0.62640   0.08852   0.00000  Uiso   1.00
C374   C     0.47881   0.63410   0.05179   0.00000  Uiso   1.00
H375   H     0.49562   0.63259   0.01989   0.00000  Uiso   1.00
H376   H     0.46435   0.66539   0.05288   0.00000  Uiso   1.00
C377   C     0.43351   0.60126   0.04912   0.00000  Uiso   1.00
H378   H     0.40285   0.60872   0.02112   0.00000  Uiso   1.00
H379   H     0.44597   0.57034   0.04222   0.00000  Uiso   1.00
H380   H     0.41760   0.60038   0.08156   0.00000  Uiso   1.00
O381   O     0.49708   0.37432   0.24881   0.00000  Uiso   1.00
C382   C     0.54622   0.37249   0.27573   0.00000  Uiso   1.00
H383   H     0.57800   0.36779   0.25568   0.00000  Uiso   1.00
H384   H     0.54399   0.34684   0.30035   0.00000  Uiso   1.00
C385   C     0.56119   0.41272   0.30233   0.00000  Uiso   1.00
H386   H     0.56432   0.43906   0.27886   0.00000  Uiso   1.00
H387   H     0.59933   0.41104   0.32359   0.00000  Uiso   1.00
H388   H     0.53219   0.41790   0.32464   0.00000  Uiso   1.00
O389   O     0.55965   0.55576   0.06253   0.00000  Uiso   1.00
C390   C     0.60366   0.57798   0.05120   0.00000  Uiso   1.00
H391   H     0.59112   0.60467   0.03025   0.00000  Uiso   1.00
H392   H     0.62783   0.55766   0.03496   0.00000  Uiso   1.00
C393   C     0.63643   0.59647   0.09430   0.00000  Uiso   1.00
H394   H     0.65537   0.57195   0.11490   0.00000  Uiso   1.00
H395   H     0.66661   0.61947   0.08505   0.00000  Uiso   1.00
H396   H     0.61247   0.61246   0.11529   0.00000  Uiso   1.00
O397   O     0.42106   0.46135   0.27134   0.00000  Uiso   1.00
C398   C     0.40194   0.42054   0.27829   0.00000  Uiso   1.00
H399   H     0.36927   0.42182   0.29746   0.00000  Uiso   1.00
H400   H     0.43224   0.40137   0.29559   0.00000  Uiso   1.00
C401   C     0.37883   0.40053   0.23258   0.00000  Uiso   1.00
H402   H     0.40765   0.40190   0.20901   0.00000  Uiso   1.00
H403   H     0.36567   0.36761   0.23758   0.00000  Uiso   1.00
H404   H     0.34517   0.41697   0.21684   0.00000  Uiso   1.00
O405   O     0.54713   0.56732   0.29646   0.00000  Uiso   1.00
C406   C     0.59378   0.56634   0.27842   0.00000  Uiso   1.00
H407   H     0.58462   0.56417   0.24139   0.00000  Uiso   1.00
H408   H     0.61708   0.54070   0.29215   0.00000  Uiso   1.00
C409   C     0.62634   0.60787   0.28494   0.00000  Uiso   1.00
H410   H     0.65167   0.61017   0.31824   0.00000  Uiso   1.00
H411   H     0.65203   0.61150   0.25856   0.00000  Uiso   1.00
H412   H     0.60106   0.63368   0.28142   0.00000  Uiso   1.00
O413   O     0.41681   0.45962   0.03267   0.00000  Uiso   1.00
C414   C     0.42321   0.42225   0.05711   0.00000  Uiso   1.00
H415   H     0.41915   0.42900   0.09259   0.00000  Uiso   1.00
H416   H     0.46018   0.40860   0.05448   0.00000  Uiso   1.00
C417   C     0.37886   0.38891   0.04371   0.00000  Uiso   1.00
H418   H     0.38500   0.37000   0.01431   0.00000  Uiso   1.00
H419   H     0.37669   0.36703   0.07233   0.00000  Uiso   1.00
H420   H     0.34164   0.40305   0.03648   0.00000  Uiso   1.00
C421   C     0.83724   0.42043   0.16746   0.00000  Uiso   1.00
C422   C     0.83106   0.57990   0.16622   0.00000  Uiso   1.00
C423   C     0.73401   0.49982   0.15481   0.00000  Uiso   1.00
C424   C     0.93272   0.50037   0.17842   0.00000  Uiso   1.00
C425   C     0.67927   0.49632   0.14861   0.00000  Uiso   1.00
C426   C     0.98751   0.50468   0.18405   0.00000  Uiso   1.00
C427   C     0.85412   0.35568   0.13162   0.00000  Uiso   1.00
C428   C     0.81997   0.64536   0.20448   0.00000  Uiso   1.00
C429   C     0.84336   0.64655   0.12769   0.00000  Uiso   1.00
C430   C     0.83026   0.35442   0.20758   0.00000  Uiso   1.00
C431   C     0.82963   0.62434   0.16559   0.00000  Uiso   1.00
C432   C     0.84184   0.37646   0.16918   0.00000  Uiso   1.00
C433   C     0.86654   0.52739   0.03015   0.00000  Uiso   1.00
C434   C     0.79636   0.47605   0.30307   0.00000  Uiso   1.00
C435   C     0.86483   0.52936   0.31434   0.00000  Uiso   1.00
C436   C     0.79567   0.47591   0.01816   0.00000  Uiso   1.00
N437   N     0.83332   0.49999   0.28573   0.00000  Uiso   1.00
N438   N     0.83335   0.50001   0.04760   0.00000  Uiso   1.00
O439   O     0.83333   0.43892   0.20487   0.00000  Uiso   1.00
O440   O     0.83334   0.56108   0.12846   0.00000  Uiso   1.00
O441   O     0.83333   0.43893   0.12843   0.00000  Uiso   1.00
O442   O     0.83334   0.56107   0.20490   0.00000  Uiso   1.00
O443   O     0.75725   0.50000   0.19595   0.00000  Uiso   1.00
O444   O     0.90942   0.50000   0.13739   0.00000  Uiso   1.00
O445   O     0.75725   0.50000   0.11950   0.00000  Uiso   1.00
O446   O     0.90942   0.50000   0.21383   0.00000  Uiso   1.00
Zn447  Zn    0.83333   0.49999   0.21771   0.00000  Uiso   1.00
Zn448  Zn    0.83333   0.50001   0.11563   0.00000  Uiso   1.00
C449   C     0.98791   0.48213   0.10337   0.00000  Uiso   1.00
N450   N     0.96875   0.47144   0.06715   0.00000  Uiso   1.00
C451   C     0.67967   0.52235   0.22751   0.00000  Uiso   1.00
N452   N     0.70064   0.53625   0.26190   0.00000  Uiso   1.00
C453   C     0.88336   0.37637   0.09954   0.00000  Uiso   1.00
N454   N     0.90722   0.39254   0.07407   0.00000  Uiso   1.00
C455   C     0.79706   0.62500   0.24080   0.00000  Uiso   1.00
N456   N     0.77850   0.60900   0.26978   0.00000  Uiso   1.00
O457   O     0.85128   0.62640   0.08852   0.00000  Uiso   1.00
C458   C     0.81214   0.63410   0.05179   0.00000  Uiso   1.00
H459   H     0.82895   0.63259   0.01989   0.00000  Uiso   1.00
H460   H     0.79768   0.66539   0.05288   0.00000  Uiso   1.00
C461   C     0.76684   0.60126   0.04912   0.00000  Uiso   1.00
H462   H     0.73618   0.60872   0.02112   0.00000  Uiso   1.00
H463   H     0.77930   0.57034   0.04222   0.00000  Uiso   1.00
H464   H     0.75093   0.60038   0.08156   0.00000  Uiso   1.00
O465   O     0.83041   0.37432   0.24881   0.00000  Uiso   1.00
C466   C     0.87955   0.37249   0.27573   0.00000  Uiso   1.00
H467   H     0.91133   0.36779   0.25568   0.00000  Uiso   1.00
H468   H     0.87732   0.34684   0.30035   0.00000  Uiso   1.00
C469   C     0.89452   0.41272   0.30233   0.00000  Uiso   1.00
H470   H     0.89765   0.43906   0.27886   0.00000  Uiso   1.00
H471   H     0.93266   0.41104   0.32359   0.00000  Uiso   1.00
H472   H     0.86552   0.41790   0.32464   0.00000  Uiso   1.00
O473   O     0.89298   0.55576   0.06253   0.00000  Uiso   1.00
C474   C     0.93699   0.57798   0.05120   0.00000  Uiso   1.00
H475   H     0.92445   0.60467   0.03025   0.00000  Uiso   1.00
H476   H     0.96116   0.55766   0.03496   0.00000  Uiso   1.00
C477   C     0.96977   0.59647   0.09430   0.00000  Uiso   1.00
H478   H     0.98870   0.57195   0.11490   0.00000  Uiso   1.00
H479   H     0.99994   0.61947   0.08505   0.00000  Uiso   1.00
H480   H     0.94580   0.61246   0.11529   0.00000  Uiso   1.00
O481   O     0.75439   0.46135   0.27134   0.00000  Uiso   1.00
C482   C     0.73527   0.42054   0.27829   0.00000  Uiso   1.00
H483   H     0.70261   0.42182   0.29746   0.00000  Uiso   1.00
H484   H     0.76558   0.40137   0.29559   0.00000  Uiso   1.00
C485   C     0.71216   0.40053   0.23258   0.00000  Uiso   1.00
H486   H     0.74099   0.40190   0.20901   0.00000  Uiso   1.00
H487   H     0.69901   0.36761   0.23758   0.00000  Uiso   1.00
H488   H     0.67850   0.41697   0.21684   0.00000  Uiso   1.00
O489   O     0.88047   0.56732   0.29646   0.00000  Uiso   1.00
C490   C     0.92712   0.56634   0.27842   0.00000  Uiso   1.00
H491   H     0.91795   0.56417   0.24139   0.00000  Uiso   1.00
H492   H     0.95042   0.54070   0.29215   0.00000  Uiso   1.00
C493   C     0.95967   0.60787   0.28494   0.00000  Uiso   1.00
H494   H     0.98501   0.61017   0.31824   0.00000  Uiso   1.00
H495   H     0.98537   0.61150   0.25856   0.00000  Uiso   1.00
H496   H     0.93439   0.63368   0.28142   0.00000  Uiso   1.00
O497   O     0.75015   0.45962   0.03267   0.00000  Uiso   1.00
C498   C     0.75654   0.42225   0.05711   0.00000  Uiso   1.00
H499   H     0.75248   0.42900   0.09259   0.00000  Uiso   1.00
H500   H     0.79351   0.40860   0.05448   0.00000  Uiso   1.00
C501   C     0.71220   0.38891   0.04371   0.00000  Uiso   1.00
H502   H     0.71833   0.37000   0.01431   0.00000  Uiso   1.00
H503   H     0.71002   0.36703   0.07233   0.00000  Uiso   1.00
H504   H     0.67498   0.40305   0.03648   0.00000  Uiso   1.00
C505   C     0.17057   0.75377   0.16746   0.00000  Uiso   1.00
C506   C     0.16439   0.91323   0.16622   0.00000  Uiso   1.00
C507   C     0.06734   0.83315   0.15481   0.00000  Uiso   1.00
C508   C     0.26606   0.83370   0.17842   0.00000  Uiso   1.00
C509   C     0.01260   0.82965   0.14861   0.00000  Uiso   1.00
C510   C     0.32084   0.83801   0.18405   0.00000  Uiso   1.00
C511   C     0.18746   0.68901   0.13162   0.00000  Uiso   1.00
C512   C     0.15330   0.97870   0.20448   0.00000  Uiso   1.00
C513   C     0.17669   0.97988   0.12769   0.00000  Uiso   1.00
C514   C     0.16359   0.68775   0.20758   0.00000  Uiso   1.00
C515   C     0.16296   0.95767   0.16559   0.00000  Uiso   1.00
C516   C     0.17518   0.70979   0.16918   0.00000  Uiso   1.00
C517   C     0.19987   0.86072   0.03015   0.00000  Uiso   1.00
C518   C     0.12970   0.80938   0.30307   0.00000  Uiso   1.00
C519   C     0.19816   0.86270   0.31434   0.00000  Uiso   1.00
C520   C     0.12901   0.80924   0.01816   0.00000  Uiso   1.00
N521   N     0.16665   0.83332   0.28573   0.00000  Uiso   1.00
N522   N     0.16668   0.83334   0.04760   0.00000  Uiso   1.00
O523   O     0.16666   0.77225   0.20487   0.00000  Uiso   1.00
O524   O     0.16667   0.89442   0.12846   0.00000  Uiso   1.00
O525   O     0.16666   0.77226   0.12843   0.00000  Uiso   1.00
O526   O     0.16667   0.89441   0.20490   0.00000  Uiso   1.00
O527   O     0.09058   0.83333   0.19595   0.00000  Uiso   1.00
O528   O     0.24275   0.83334   0.13739   0.00000  Uiso   1.00
O529   O     0.09058   0.83334   0.11950   0.00000  Uiso   1.00
O530   O     0.24275   0.83333   0.21383   0.00000  Uiso   1.00
Zn531  Zn    0.16667   0.83333   0.21771   0.00000  Uiso   1.00
Zn532  Zn    0.16667   0.83334   0.11563   0.00000  Uiso   1.00
C533   C     0.32124   0.81546   0.10337   0.00000  Uiso   1.00
N534   N     0.30208   0.80477   0.06715   0.00000  Uiso   1.00
C535   C     0.01300   0.85568   0.22751   0.00000  Uiso   1.00
N536   N     0.03398   0.86958   0.26190   0.00000  Uiso   1.00
C537   C     0.21670   0.70970   0.09954   0.00000  Uiso   1.00
N538   N     0.24055   0.72588   0.07407   0.00000  Uiso   1.00
C539   C     0.13039   0.95834   0.24080   0.00000  Uiso   1.00
N540   N     0.11183   0.94233   0.26978   0.00000  Uiso   1.00
O541   O     0.18461   0.95974   0.08852   0.00000  Uiso   1.00
C542   C     0.14548   0.96744   0.05179   0.00000  Uiso   1.00
H543   H     0.16228   0.96592   0.01989   0.00000  Uiso   1.00
H544   H     0.13101   0.99872   0.05288   0.00000  Uiso   1.00
C545   C     0.10018   0.93460   0.04912   0.00000  Uiso   1.00
H546   H     0.06951   0.94206   0.02112   0.00000  Uiso   1.00
H547   H     0.11263   0.90367   0.04222   0.00000  Uiso   1.00
H548   H     0.08426   0.93371   0.08156   0.00000  Uiso   1.00
O549   O     0.16375   0.70765   0.24881   0.00000  Uiso   1.00
C550   C     0.21289   0.70582   0.27573   0.00000  Uiso   1.00
H551   H     0.24467   0.70112   0.25568   0.00000  Uiso   1.00
H552   H     0.21065   0.68017   0.30035   0.00000  Uiso   1.00
C553   C     0.22786   0.74605   0.30233   0.00000  Uiso   1.00
H554   H     0.23099   0.77240   0.27886   0.00000  Uiso   1.00
H555   H     0.26600   0.74438   0.32359   0.00000  Uiso   1.00
H556   H     0.19886   0.75123   0.32464   0.00000  Uiso   1.00
O557   O     0.22632   0.88910   0.06253   0.00000  Uiso   1.00
C558   C     0.27033   0.91131   0.05120   0.00000  Uiso   1.00
H559   H     0.25778   0.93800   0.03025   0.00000  Uiso   1.00
H560   H     0.29449   0.89099   0.03496   0.00000  Uiso   1.00
C561   C     0.30310   0.92980   0.09430   0.00000  Uiso   1.00
H562   H     0.32204   0.90528   0.11490   0.00000  Uiso   1.00
H563   H     0.33327   0.95280   0.08505   0.00000  Uiso   1.00
H564   H     0.27913   0.94579   0.11529   0.00000  Uiso   1.00
O565   O     0.08772   0.79468   0.27134   0.00000  Uiso   1.00
C566   C     0.06861   0.75388   0.27829   0.00000  Uiso   1.00
H567   H     0.03594   0.75516   0.29746   0.00000  Uiso   1.00
H568   H     0.09891   0.73470   0.29559   0.00000  Uiso   1.00
C569   C     0.04549   0.73386   0.23258   0.00000  Uiso   1.00
H570   H     0.07432   0.73523   0.20901   0.00000  Uiso   1.00
H571   H     0.03234   0.70095   0.23758   0.00000  Uiso   1.00
H572   H     0.01184   0.75030   0.21684   0.00000  Uiso   1.00
O573   O     0.21380   0.90066   0.29646   0.00000  Uiso   1.00
C574   C     0.26045   0.89967   0.27842   0.00000  Uiso   1.00
H575   H     0.25128   0.89751   0.24139   0.00000  Uiso   1.00
H576   H     0.28375   0.87403   0.29215   0.00000  Uiso   1.00
C577   C     0.29301   0.94120   0.28494   0.00000  Uiso   1.00
H578   H     0.31834   0.94350   0.31824   0.00000  Uiso   1.00
H579   H     0.31870   0.94483   0.25856   0.00000  Uiso   1.00
H580   H     0.26773   0.96702   0.28142   0.00000  Uiso   1.00
O581   O     0.08348   0.79296   0.03267   0.00000  Uiso   1.00
C582   C     0.08988   0.75558   0.05711   0.00000  Uiso   1.00
H583   H     0.08582   0.76233   0.09259   0.00000  Uiso   1.00
H584   H     0.12684   0.74193   0.05448   0.00000  Uiso   1.00
C585   C     0.04553   0.72224   0.04371   0.00000  Uiso   1.00
H586   H     0.05166   0.70334   0.01431   0.00000  Uiso   1.00
H587   H     0.04335   0.70037   0.07233   0.00000  Uiso   1.00
H588   H     0.00831   0.73638   0.03648   0.00000  Uiso   1.00
C589   C     0.50391   0.75377   0.16746   0.00000  Uiso   1.00
C590   C     0.49773   0.91323   0.16622   0.00000  Uiso   1.00
C591   C     0.40068   0.83315   0.15481   0.00000  Uiso   1.00
C592   C     0.59939   0.83370   0.17842   0.00000  Uiso   1.00
C593   C     0.34593   0.82965   0.14861   0.00000  Uiso   1.00
C594   C     0.65418   0.83801   0.18405   0.00000  Uiso   1.00
C595   C     0.52079   0.68901   0.13162   0.00000  Uiso   1.00
C596   C     0.48664   0.97870   0.20448   0.00000  Uiso   1.00
C597   C     0.51002   0.97988   0.12769   0.00000  Uiso   1.00
C598   C     0.49692   0.68775   0.20758   0.00000  Uiso   1.00
C599   C     0.49630   0.95767   0.16559   0.00000  Uiso   1.00
C600   C     0.50851   0.70979   0.16918   0.00000  Uiso   1.00
C601   C     0.53320   0.86072   0.03015   0.00000  Uiso   1.00
C602   C     0.46303   0.80938   0.30307   0.00000  Uiso   1.00
C603   C     0.53149   0.86270   0.31434   0.00000  Uiso   1.00
C604   C     0.46234   0.80924   0.01816   0.00000  Uiso   1.00
N605   N     0.49999   0.83332   0.28573   0.00000  Uiso   1.00
N606   N     0.50001   0.83334   0.04760   0.00000  Uiso   1.00
O607   O     0.50000   0.77225   0.20487   0.00000  Uiso   1.00
O608   O     0.50000   0.89442   0.12846   0.00000  Uiso   1.00
O609   O     0.50000   0.77226   0.12843   0.00000  Uiso   1.00
O610   O     0.50000   0.89441   0.20490   0.00000  Uiso   1.00
O611   O     0.42392   0.83333   0.19595   0.00000  Uiso   1.00
O612   O     0.57608   0.83334   0.13739   0.00000  Uiso   1.00
O613   O     0.42392   0.83334   0.11950   0.00000  Uiso   1.00
O614   O     0.57608   0.83333   0.21383   0.00000  Uiso   1.00
Zn615  Zn    0.50000   0.83333   0.21771   0.00000  Uiso   1.00
Zn616  Zn    0.50000   0.83334   0.11563   0.00000  Uiso   1.00
C617   C     0.65457   0.81546   0.10337   0.00000  Uiso   1.00
N618   N     0.63541   0.80477   0.06715   0.00000  Uiso   1.00
C619   C     0.34634   0.85568   0.22751   0.00000  Uiso   1.00
N620   N     0.36731   0.86958   0.26190   0.00000  Uiso   1.00
C621   C     0.55003   0.70970   0.09954   0.00000  Uiso   1.00
N622   N     0.57389   0.72588   0.07407   0.00000  Uiso   1.00
C623   C     0.46373   0.95834   0.24080   0.00000  Uiso   1.00
N624   N     0.44517   0.94233   0.26978   0.00000  Uiso   1.00
O625   O     0.51794   0.95974   0.08852   0.00000  Uiso   1.00
C626   C     0.47881   0.96744   0.05179   0.00000  Uiso   1.00
H627   H     0.49562   0.96592   0.01989   0.00000  Uiso   1.00
H628   H     0.46435   0.99872   0.05288   0.00000  Uiso   1.00
C629   C     0.43351   0.93460   0.04912   0.00000  Uiso   1.00
H630   H     0.40285   0.94206   0.02112   0.00000  Uiso   1.00
H631   H     0.44597   0.90367   0.04222   0.00000  Uiso   1.00
H632   H     0.41760   0.93371   0.08156   0.00000  Uiso   1.00
O633   O     0.49708   0.70765   0.24881   0.00000  Uiso   1.00
C634   C     0.54622   0.70582   0.27573   0.00000  Uiso   1.00
H635   H     0.57800   0.70112   0.25568   0.00000  Uiso   1.00
H636   H     0.54399   0.68017   0.30035   0.00000  Uiso   1.00
C637   C     0.56119   0.74605   0.30233   0.00000  Uiso   1.00
H638   H     0.56432   0.77240   0.27886   0.00000  Uiso   1.00
H639   H     0.59933   0.74438   0.32359   0.00000  Uiso   1.00
H640   H     0.53219   0.75123   0.32464   0.00000  Uiso   1.00
O641   O     0.55965   0.88910   0.06253   0.00000  Uiso   1.00
C642   C     0.60366   0.91131   0.05120   0.00000  Uiso   1.00
H643   H     0.59112   0.93800   0.03025   0.00000  Uiso   1.00
H644   H     0.62783   0.89099   0.03496   0.00000  Uiso   1.00
C645   C     0.63643   0.92980   0.09430   0.00000  Uiso   1.00
H646   H     0.65537   0.90528   0.11490   0.00000  Uiso   1.00
H647   H     0.66661   0.95280   0.08505   0.00000  Uiso   1.00
H648   H     0.61247   0.94579   0.11529   0.00000  Uiso   1.00
O649   O     0.42106   0.79468   0.27134   0.00000  Uiso   1.00
C650   C     0.40194   0.75388   0.27829   0.00000  Uiso   1.00
H651   H     0.36927   0.75516   0.29746   0.00000  Uiso   1.00
H652   H     0.43224   0.73470   0.29559   0.00000  Uiso   1.00
C653   C     0.37883   0.73386   0.23258   0.00000  Uiso   1.00
H654   H     0.40765   0.73523   0.20901   0.00000  Uiso   1.00
H655   H     0.36567   0.70095   0.23758   0.00000  Uiso   1.00
H656   H     0.34517   0.75030   0.21684   0.00000  Uiso   1.00
O657   O     0.54713   0.90066   0.29646   0.00000  Uiso   1.00
C658   C     0.59378   0.89967   0.27842   0.00000  Uiso   1.00
H659   H     0.58462   0.89751   0.24139   0.00000  Uiso   1.00
H660   H     0.61708   0.87403   0.29215   0.00000  Uiso   1.00
C661   C     0.62634   0.94120   0.28494   0.00000  Uiso   1.00
H662   H     0.65167   0.94350   0.31824   0.00000  Uiso   1.00
H663   H     0.65203   0.94483   0.25856   0.00000  Uiso   1.00
H664   H     0.60106   0.96702   0.28142   0.00000  Uiso   1.00
O665   O     0.41681   0.79296   0.03267   0.00000  Uiso   1.00
C666   C     0.42321   0.75558   0.05711   0.00000  Uiso   1.00
H667   H     0.41915   0.76233   0.09259   0.00000  Uiso   1.00
H668   H     0.46018   0.74193   0.05448   0.00000  Uiso   1.00
C669   C     0.37886   0.72224   0.04371   0.00000  Uiso   1.00
H670   H     0.38500   0.70334   0.01431   0.00000  Uiso   1.00
H671   H     0.37669   0.70037   0.07233   0.00000  Uiso   1.00
H672   H     0.34164   0.73638   0.03648   0.00000  Uiso   1.00
C673   C     0.83724   0.75377   0.16746   0.00000  Uiso   1.00
C674   C     0.83106   0.91323   0.16622   0.00000  Uiso   1.00
C675   C     0.73401   0.83315   0.15481   0.00000  Uiso   1.00
C676   C     0.93272   0.83370   0.17842   0.00000  Uiso   1.00
C677   C     0.67927   0.82965   0.14861   0.00000  Uiso   1.00
C678   C     0.98751   0.83801   0.18405   0.00000  Uiso   1.00
C679   C     0.85412   0.68901   0.13162   0.00000  Uiso   1.00
C680   C     0.81997   0.97870   0.20448   0.00000  Uiso   1.00
C681   C     0.84336   0.97988   0.12769   0.00000  Uiso   1.00
C682   C     0.83026   0.68775   0.20758   0.00000  Uiso   1.00
C683   C     0.82963   0.95767   0.16559   0.00000  Uiso   1.00
C684   C     0.84184   0.70979   0.16918   0.00000  Uiso   1.00
C685   C     0.86654   0.86072   0.03015   0.00000  Uiso   1.00
C686   C     0.79636   0.80938   0.30307   0.00000  Uiso   1.00
C687   C     0.86483   0.86270   0.31434   0.00000  Uiso   1.00
C688   C     0.79567   0.80924   0.01816   0.00000  Uiso   1.00
N689   N     0.83332   0.83332   0.28573   0.00000  Uiso   1.00
N690   N     0.83335   0.83334   0.04760   0.00000  Uiso   1.00
O691   O     0.83333   0.77225   0.20487   0.00000  Uiso   1.00
O692   O     0.83334   0.89442   0.12846   0.00000  Uiso   1.00
O693   O     0.83333   0.77226   0.12843   0.00000  Uiso   1.00
O694   O     0.83334   0.89441   0.20490   0.00000  Uiso   1.00
O695   O     0.75725   0.83333   0.19595   0.00000  Uiso   1.00
O696   O     0.90942   0.83334   0.13739   0.00000  Uiso   1.00
O697   O     0.75725   0.83334   0.11950   0.00000  Uiso   1.00
O698   O     0.90942   0.83333   0.21383   0.00000  Uiso   1.00
Zn699  Zn    0.83333   0.83333   0.21771   0.00000  Uiso   1.00
Zn700  Zn    0.83333   0.83334   0.11563   0.00000  Uiso   1.00
C701   C     0.98791   0.81546   0.10337   0.00000  Uiso   1.00
N702   N     0.96875   0.80477   0.06715   0.00000  Uiso   1.00
C703   C     0.67967   0.85568   0.22751   0.00000  Uiso   1.00
N704   N     0.70064   0.86958   0.26190   0.00000  Uiso   1.00
C705   C     0.88336   0.70970   0.09954   0.00000  Uiso   1.00
N706   N     0.90722   0.72588   0.07407   0.00000  Uiso   1.00
C707   C     0.79706   0.95834   0.24080   0.00000  Uiso   1.00
N708   N     0.77850   0.94233   0.26978   0.00000  Uiso   1.00
O709   O     0.85128   0.95974   0.08852   0.00000  Uiso   1.00
C710   C     0.81214   0.96744   0.05179   0.00000  Uiso   1.00
H711   H     0.82895   0.96592   0.01989   0.00000  Uiso   1.00
H712   H     0.79768   0.99872   0.05288   0.00000  Uiso   1.00
C713   C     0.76684   0.93460   0.04912   0.00000  Uiso   1.00
H714   H     0.73618   0.94206   0.02112   0.00000  Uiso   1.00
H715   H     0.77930   0.90367   0.04222   0.00000  Uiso   1.00
H716   H     0.75093   0.93371   0.08156   0.00000  Uiso   1.00
O717   O     0.83041   0.70765   0.24881   0.00000  Uiso   1.00
C718   C     0.87955   0.70582   0.27573   0.00000  Uiso   1.00
H719   H     0.91133   0.70112   0.25568   0.00000  Uiso   1.00
H720   H     0.87732   0.68017   0.30035   0.00000  Uiso   1.00
C721   C     0.89452   0.74605   0.30233   0.00000  Uiso   1.00
H722   H     0.89765   0.77240   0.27886   0.00000  Uiso   1.00
H723   H     0.93266   0.74438   0.32359   0.00000  Uiso   1.00
H724   H     0.86552   0.75123   0.32464   0.00000  Uiso   1.00
O725   O     0.89298   0.88910   0.06253   0.00000  Uiso   1.00
C726   C     0.93699   0.91131   0.05120   0.00000  Uiso   1.00
H727   H     0.92445   0.93800   0.03025   0.00000  Uiso   1.00
H728   H     0.96116   0.89099   0.03496   0.00000  Uiso   1.00
C729   C     0.96977   0.92980   0.09430   0.00000  Uiso   1.00
H730   H     0.98870   0.90528   0.11490   0.00000  Uiso   1.00
H731   H     0.99994   0.95280   0.08505   0.00000  Uiso   1.00
H732   H     0.94580   0.94579   0.11529   0.00000  Uiso   1.00
O733   O     0.75439   0.79468   0.27134   0.00000  Uiso   1.00
C734   C     0.73527   0.75388   0.27829   0.00000  Uiso   1.00
H735   H     0.70261   0.75516   0.29746   0.00000  Uiso   1.00
H736   H     0.76558   0.73470   0.29559   0.00000  Uiso   1.00
C737   C     0.71216   0.73386   0.23258   0.00000  Uiso   1.00
H738   H     0.74099   0.73523   0.20901   0.00000  Uiso   1.00
H739   H     0.69901   0.70095   0.23758   0.00000  Uiso   1.00
H740   H     0.67850   0.75030   0.21684   0.00000  Uiso   1.00
O741   O     0.88047   0.90066   0.29646   0.00000  Uiso   1.00
C742   C     0.92712   0.89967   0.27842   0.00000  Uiso   1.00
H743   H     0.91795   0.89751   0.24139   0.00000  Uiso   1.00
H744   H     0.95042   0.87403   0.29215   0.00000  Uiso   1.00
C745   C     0.95967   0.94120   0.28494   0.00000  Uiso   1.00
H746   H     0.98501   0.94350   0.31824   0.00000  Uiso   1.00
H747   H     0.98537   0.94483   0.25856   0.00000  Uiso   1.00
H748   H     0.93439   0.96702   0.28142   0.00000  Uiso   1.00
O749   O     0.75015   0.79296   0.03267   0.00000  Uiso   1.00
C750   C     0.75654   0.75558   0.05711   0.00000  Uiso   1.00
H751   H     0.75248   0.76233   0.09259   0.00000  Uiso   1.00
H752   H     0.79351   0.74193   0.05448   0.00000  Uiso   1.00
C753   C     0.71220   0.72224   0.04371   0.00000  Uiso   1.00
H754   H     0.71833   0.70334   0.01431   0.00000  Uiso   1.00
H755   H     0.71002   0.70037   0.07233   0.00000  Uiso   1.00
H756   H     0.67498   0.73638   0.03648   0.00000  Uiso   1.00
C757   C     0.17057   0.08710   0.50079   0.00000  Uiso   1.00
C758   C     0.16439   0.24656   0.49956   0.00000  Uiso   1.00
C759   C     0.06734   0.16649   0.48815   0.00000  Uiso   1.00
C760   C     0.26606   0.16704   0.51175   0.00000  Uiso   1.00
C761   C     0.01260   0.16299   0.48194   0.00000  Uiso   1.00
C762   C     0.32084   0.17134   0.51738   0.00000  Uiso   1.00
C763   C     0.18746   0.02234   0.46495   0.00000  Uiso   1.00
C764   C     0.15330   0.31203   0.53781   0.00000  Uiso   1.00
C765   C     0.17669   0.31321   0.46103   0.00000  Uiso   1.00
C766   C     0.16359   0.02109   0.54092   0.00000  Uiso   1.00
C767   C     0.16296   0.29100   0.49892   0.00000  Uiso   1.00
C768   C     0.17518   0.04313   0.50251   0.00000  Uiso   1.00
C769   C     0.19987   0.19405   0.36348   0.00000  Uiso   1.00
C770   C     0.12970   0.14272   0.63641   0.00000  Uiso   1.00
C771   C     0.19816   0.19603   0.64768   0.00000  Uiso   1.00
C772   C     0.12901   0.14258   0.35149   0.00000  Uiso   1.00
N773   N     0.16665   0.16666   0.61907   0.00000  Uiso   1.00
N774   N     0.16668   0.16668   0.38093   0.00000  Uiso   1.00
O775   O     0.16666   0.10558   0.53821   0.00000  Uiso   1.00
O776   O     0.16667   0.22775   0.46179   0.00000  Uiso   1.00
O777   O     0.16666   0.10559   0.46176   0.00000  Uiso   1.00
O778   O     0.16667   0.22774   0.53824   0.00000  Uiso   1.00
O779   O     0.09058   0.16666   0.52928   0.00000  Uiso   1.00
O780   O     0.24275   0.16667   0.47072   0.00000  Uiso   1.00
O781   O     0.09058   0.16667   0.45284   0.00000  Uiso   1.00
O782   O     0.24275   0.16666   0.54716   0.00000  Uiso   1.00
Zn783  Zn    0.16667   0.16666   0.55104   0.00000  Uiso   1.00
Zn784  Zn    0.16667   0.16667   0.44896   0.00000  Uiso   1.00
C785   C     0.32124   0.14880   0.43670   0.00000  Uiso   1.00
N786   N     0.30208   0.13810   0.40049   0.00000  Uiso   1.00
C787   C     0.01300   0.18901   0.56085   0.00000  Uiso   1.00
N788   N     0.03398   0.20291   0.59523   0.00000  Uiso   1.00
C789   C     0.21670   0.04303   0.43288   0.00000  Uiso   1.00
N790   N     0.24055   0.05921   0.40740   0.00000  Uiso   1.00
C791   C     0.13039   0.29167   0.57413   0.00000  Uiso   1.00
N792   N     0.11183   0.27567   0.60312   0.00000  Uiso   1.00
O793   O     0.18461   0.29307   0.42185   0.00000  Uiso   1.00
C794   C     0.14548   0.30077   0.38512   0.00000  Uiso   1.00
H795   H     0.16228   0.29926   0.35322   0.00000  Uiso   1.00
H796   H     0.13101   0.33205   0.38621   0.00000  Uiso   1.00
C797   C     0.10018   0.26793   0.38245   0.00000  Uiso   1.00
H798   H     0.06951   0.27539   0.35446   0.00000  Uiso   1.00
H799   H     0.11263   0.23701   0.37555   0.00000  Uiso   1.00
H800   H     0.08426   0.26705   0.41490   0.00000  Uiso   1.00
O801   O     0.16375   0.04099   0.58215   0.00000  Uiso   1.00
C802   C     0.21289   0.03916   0.60907   0.00000  Uiso   1.00
H803   H     0.24467   0.03446   0.58901   0.00000  Uiso   1.00
H804   H     0.21065   0.01350   0.63369   0.00000  Uiso   1.00
C805   C     0.22786   0.07939   0.63566   0.00000  Uiso   1.00
H806   H     0.23099   0.10573   0.61219   0.00000  Uiso   1.00
H807   H     0.26600   0.07771   0.65692   0.00000  Uiso   1.00
H808   H     0.19886   0.08457   0.65798   0.00000  Uiso   1.00
O809   O     0.22632   0.22243   0.39586   0.00000  Uiso   1.00
C810   C     0.27033   0.24465   0.38453   0.00000  Uiso   1.00
H811   H     0.25778   0.27133   0.36359   0.00000  Uiso   1.00
H812   H     0.29449   0.22433   0.36829   0.00000  Uiso   1.00
C813   C     0.30310   0.26314   0.42763   0.00000  Uiso   1.00
H814   H     0.32204   0.23861   0.44824   0.00000  Uiso   1.00
H815   H     0.33327   0.28614   0.41838   0.00000  Uiso   1.00
H816   H     0.27913   0.27913   0.44862   0.00000  Uiso   1.00
O817   O     0.08772   0.12801   0.60467   0.00000  Uiso   1.00
C818   C     0.06861   0.08721   0.61163   0.00000  Uiso   1.00
H819   H     0.03594   0.08849   0.63079   0.00000  Uiso   1.00
H820   H     0.09891   0.06804   0.62893   0.00000  Uiso   1.00
C821   C     0.04549   0.06720   0.56592   0.00000  Uiso   1.00
H822   H     0.07432   0.06856   0.54235   0.00000  Uiso   1.00
H823   H     0.03234   0.03428   0.57092   0.00000  Uiso   1.00
H824   H     0.01184   0.08364   0.55017   0.00000  Uiso   1.00
O825   O     0.21380   0.23399   0.62979   0.00000  Uiso   1.00
C826   C     0.26045   0.23301   0.61175   0.00000  Uiso   1.00
H827   H     0.25128   0.23084   0.57472   0.00000  Uiso   1.00
H828   H     0.28375   0.20737   0.62548   0.00000  Uiso   1.00
C829   C     0.29301   0.27454   0.61827   0.00000  Uiso   1.00
H830   H     0.31834   0.27683   0.65157   0.00000  Uiso   1.00
H831   H     0.31870   0.27817   0.59189   0.00000  Uiso   1.00
H832   H     0.26773   0.30035   0.61475   0.00000  Uiso   1.00
O833   O     0.08348   0.12629   0.36601   0.00000  Uiso   1.00
C834   C     0.08988   0.08891   0.39044   0.00000  Uiso   1.00
H835   H     0.08582   0.09566   0.42592   0.00000  Uiso   1.00
H836   H     0.12684   0.07527   0.38781   0.00000  Uiso   1.00
C837   C     0.04553   0.05558   0.37704   0.00000  Uiso   1.00
H838   H     0.05166   0.03667   0.34764   0.00000  Uiso   1.00
H839   H     0.04335   0.03370   0.40566   0.00000  Uiso   1.00
H840   H     0.00831   0.06972   0.36981   0.00000  Uiso   1.00
C841   C     0.50391   0.08710   0.50079   0.00000  Uiso   1.00
C842   C     0.49773   0.24656   0.49956   0.00000  Uiso   1.00
C843   C     0.40068   0.16649   0.48815   0.00000  Uiso   1.00
C844   C     0.59939   0.16704   0.51175   0.00000  Uiso   1.00
C845   C     0.34593   0.16299   0.48194   0.00000  Uiso   1.00
C846   C     0.65418   0.17134   0.51738   0.00000  Uiso   1.00
C847   C     0.52079   0.02234   0.46495   0.00000  Uiso   1.00
C848   C     0.48664   0.31203   0.53781   0.00000  Uiso   1.00
C849   C     0.51002   0.31321   0.46103   0.00000  Uiso   1.00
C850   C     0.49692   0.02109   0.54092   0.00000  Uiso   1.00
C851   C     0.49630   0.29100   0.49892   0.00000  Uiso   1.00
C852   C     0.50851   0.04313   0.50251   0.00000  Uiso   1.00
C853   C     0.53320   0.19405   0.36348   0.00000  Uiso   1.00
C854   C     0.46303   0.14272   0.63641   0.00000  Uiso   1.00
C855   C     0.53149   0.19603   0.64768   0.00000  Uiso   1.00
C856   C     0.46234   0.14258   0.35149   0.00000  Uiso   1.00
N857   N     0.49999   0.16666   0.61907   0.00000  Uiso   1.00
N858   N     0.50001   0.16668   0.38093   0.00000  Uiso   1.00
O859   O     0.50000   0.10558   0.53821   0.00000  Uiso   1.00
O860   O     0.50000   0.22775   0.46179   0.00000  Uiso   1.00
O861   O     0.50000   0.10559   0.46176   0.00000  Uiso   1.00
O862   O     0.50000   0.22774   0.53824   0.00000  Uiso   1.00
O863   O     0.42392   0.16666   0.52928   0.00000  Uiso   1.00
O864   O     0.57608   0.16667   0.47072   0.00000  Uiso   1.00
O865   O     0.42392   0.16667   0.45284   0.00000  Uiso   1.00
O866   O     0.57608   0.16666   0.54716   0.00000  Uiso   1.00
Zn867  Zn    0.50000   0.16666   0.55104   0.00000  Uiso   1.00
Zn868  Zn    0.50000   0.16667   0.44896   0.00000  Uiso   1.00
C869   C     0.65457   0.14880   0.43670   0.00000  Uiso   1.00
N870   N     0.63541   0.13810   0.40049   0.00000  Uiso   1.00
C871   C     0.34634   0.18901   0.56085   0.00000  Uiso   1.00
N872   N     0.36731   0.20291   0.59523   0.00000  Uiso   1.00
C873   C     0.55003   0.04303   0.43288   0.00000  Uiso   1.00
N874   N     0.57389   0.05921   0.40740   0.00000  Uiso   1.00
C875   C     0.46373   0.29167   0.57413   0.00000  Uiso   1.00
N876   N     0.44517   0.27567   0.60312   0.00000  Uiso   1.00
O877   O     0.51794   0.29307   0.42185   0.00000  Uiso   1.00
C878   C     0.47881   0.30077   0.38512   0.00000  Uiso   1.00
H879   H     0.49562   0.29926   0.35322   0.00000  Uiso   1.00
H880   H     0.46435   0.33205   0.38621   0.00000  Uiso   1.00
C881   C     0.43351   0.26793   0.38245   0.00000  Uiso   1.00
H882   H     0.40285   0.27539   0.35446   0.00000  Uiso   1.00
H883   H     0.44597   0.23701   0.37555   0.00000  Uiso   1.00
H884   H     0.41760   0.26705   0.41490   0.00000  Uiso   1.00
O885   O     0.49708   0.04099   0.58215   0.00000  Uiso   1.00
C886   C     0.54622   0.03916   0.60907   0.00000  Uiso   1.00
H887   H     0.57800   0.03446   0.58901   0.00000  Uiso   1.00
H888   H     0.54399   0.01350   0.63369   0.00000  Uiso   1.00
C889   C     0.56119   0.07939   0.63566   0.00000  Uiso   1.00
H890   H     0.56432   0.10573   0.61219   0.00000  Uiso   1.00
H891   H     0.59933   0.07771   0.65692   0.00000  Uiso   1.00
H892   H     0.53219   0.08457   0.65798   0.00000  Uiso   1.00
O893   O     0.55965   0.22243   0.39586   0.00000  Uiso   1.00
C894   C     0.60366   0.24465   0.38453   0.00000  Uiso   1.00
H895   H     0.59112   0.27133   0.36359   0.00000  Uiso   1.00
H896   H     0.62783   0.22433   0.36829   0.00000  Uiso   1.00
C897   C     0.63643   0.26314   0.42763   0.00000  Uiso   1.00
H898   H     0.65537   0.23861   0.44824   0.00000  Uiso   1.00
H899   H     0.66661   0.28614   0.41838   0.00000  Uiso   1.00
H900   H     0.61247   0.27913   0.44862   0.00000  Uiso   1.00
O901   O     0.42106   0.12801   0.60467   0.00000  Uiso   1.00
C902   C     0.40194   0.08721   0.61163   0.00000  Uiso   1.00
H903   H     0.36927   0.08849   0.63079   0.00000  Uiso   1.00
H904   H     0.43224   0.06804   0.62893   0.00000  Uiso   1.00
C905   C     0.37883   0.06720   0.56592   0.00000  Uiso   1.00
H906   H     0.40765   0.06856   0.54235   0.00000  Uiso   1.00
H907   H     0.36567   0.03428   0.57092   0.00000  Uiso   1.00
H908   H     0.34517   0.08364   0.55017   0.00000  Uiso   1.00
O909   O     0.54713   0.23399   0.62979   0.00000  Uiso   1.00
C910   C     0.59378   0.23301   0.61175   0.00000  Uiso   1.00
H911   H     0.58462   0.23084   0.57472   0.00000  Uiso   1.00
H912   H     0.61708   0.20737   0.62548   0.00000  Uiso   1.00
C913   C     0.62634   0.27454   0.61827   0.00000  Uiso   1.00
H914   H     0.65167   0.27683   0.65157   0.00000  Uiso   1.00
H915   H     0.65203   0.27817   0.59189   0.00000  Uiso   1.00
H916   H     0.60106   0.30035   0.61475   0.00000  Uiso   1.00
O917   O     0.41681   0.12629   0.36601   0.00000  Uiso   1.00
C918   C     0.42321   0.08891   0.39044   0.00000  Uiso   1.00
H919   H     0.41915   0.09566   0.42592   0.00000  Uiso   1.00
H920   H     0.46018   0.07527   0.38781   0.00000  Uiso   1.00
C921   C     0.37886   0.05558   0.37704   0.00000  Uiso   1.00
H922   H     0.38500   0.03667   0.34764   0.00000  Uiso   1.00
H923   H     0.37669   0.03370   0.40566   0.00000  Uiso   1.00
H924   H     0.34164   0.06972   0.36981   0.00000  Uiso   1.00
C925   C     0.83724   0.08710   0.50079   0.00000  Uiso   1.00
C926   C     0.83106   0.24656   0.49956   0.00000  Uiso   1.00
C927   C     0.73401   0.16649   0.48815   0.00000  Uiso   1.00
C928   C     0.93272   0.16704   0.51175   0.00000  Uiso   1.00
C929   C     0.67927   0.16299   0.48194   0.00000  Uiso   1.00
C930   C     0.98751   0.17134   0.51738   0.00000  Uiso   1.00
C931   C     0.85412   0.02234   0.46495   0.00000  Uiso   1.00
C932   C     0.81997   0.31203   0.53781   0.00000  Uiso   1.00
C933   C     0.84336   0.31321   0.46103   0.00000  Uiso   1.00
C934   C     0.83026   0.02109   0.54092   0.00000  Uiso   1.00
C935   C     0.82963   0.29100   0.49892   0.00000  Uiso   1.00
C936   C     0.84184   0.04313   0.50251   0.00000  Uiso   1.00
C937   C     0.86654   0.19405   0.36348   0.00000  Uiso   1.00
C938   C     0.79636   0.14272   0.63641   0.00000  Uiso   1.00
C939   C     0.86483   0.19603   0.64768   0.00000  Uiso   1.00
C940   C     0.79567   0.14258   0.35149   0.00000  Uiso   1.00
N941   N     0.83332   0.16666   0.61907   0.00000  Uiso   1.00
N942   N     0.83335   0.16668   0.38093   0.00000  Uiso   1.00
O943   O     0.83333   0.10558   0.53821   0.00000  Uiso   1.00
O944   O     0.83334   0.22775   0.46179   0.00000  Uiso   1.00
O945   O     0.83333   0.10559   0.46176   0.00000  Uiso   1.00
O946   O     0.83334   0.22774   0.53824   0.00000  Uiso   1.00
O947   O     0.75725   0.16666   0.52928   0.00000  Uiso   1.00
O948   O     0.90942   0.16667   0.47072   0.00000  Uiso   1.00
O949   O     0.75725   0.16667   0.45284   0.00000  Uiso   1.00
O950   O     0.90942   0.16666   0.54716   0.00000  Uiso   1.00
Zn951  Zn    0.83333   0.16666   0.55104   0.00000  Uiso   1.00
Zn952  Zn    0.83333   0.16667   0.44896   0.00000  Uiso   1.00
C953   C     0.98791   0.14880   0.43670   0.00000  Uiso   1.00
N954   N     0.96875   0.13810   0.40049   0.00000  Uiso   1.00
C955   C     0.67967   0.18901   0.56085   0.00000  Uiso   1.00
N956   N     0.70064   0.20291   0.59523   0.00000  Uiso   1.00
C957   C     0.88336   0.04303   0.43288   0.00000  Uiso   1.00
N958   N     0.90722   0.05921   0.40740   0.00000  Uiso   1.00
C959   C     0.79706   0.29167   0.57413   0.00000  Uiso   1.00
N960   N     0.77850   0.27567   0.60312   0.00000  Uiso   1.00
O961   O     0.85128   0.29307   0.42185   0.00000  Uiso   1.00
C962   C     0.81214   0.30077   0.38512   0.00000  Uiso   1.00
H963   H     0.82895   0.29926   0.35322   0.00000  Uiso   1.00
H964   H     0.79768   0.33205   0.38621   0.00000  Uiso   1.00
C965   C     0.76684   0.26793   0.38245   0.00000  Uiso   1.00
H966   H     0.73618   0.27539   0.35446   0.00000  Uiso   1.00
H967   H     0.77930   0.23701   0.37555   0.00000  Uiso   1.00
H968   H     0.75093   0.26705   0.41490   0.00000  Uiso   1.00
O969   O     0.83041   0.04099   0.58215   0.00000  Uiso   1.00
C970   C     0.87955   0.03916   0.60907   0.00000  Uiso   1.00
H971   H     0.91133   0.03446   0.58901   0.00000  Uiso   1.00
H972   H     0.87732   0.01350   0.63369   0.00000  Uiso   1.00
C973   C     0.89452   0.07939   0.63566   0.00000  Uiso   1.00
H974   H     0.89765   0.10573   0.61219   0.00000  Uiso   1.00
H975   H     0.93266   0.07771   0.65692   0.00000  Uiso   1.00
H976   H     0.86552   0.08457   0.65798   0.00000  Uiso   1.00
O977   O     0.89298   0.22243   0.39586   0.00000  Uiso   1.00
C978   C     0.93699   0.24465   0.38453   0.00000  Uiso   1.00
H979   H     0.92445   0.27133   0.36359   0.00000  Uiso   1.00
H980   H     0.96116   0.22433   0.36829   0.00000  Uiso   1.00
C981   C     0.96977   0.26314   0.42763   0.00000  Uiso   1.00
H982   H     0.98870   0.23861   0.44824   0.00000  Uiso   1.00
H983   H     0.99994   0.28614   0.41838   0.00000  Uiso   1.00
H984   H     0.94580   0.27913   0.44862   0.00000  Uiso   1.00
O985   O     0.75439   0.12801   0.60467   0.00000  Uiso   1.00
C986   C     0.73527   0.08721   0.61163   0.00000  Uiso   1.00
H987   H     0.70261   0.08849   0.63079   0.00000  Uiso   1.00
H988   H     0.76558   0.06804   0.62893   0.00000  Uiso   1.00
C989   C     0.71216   0.06720   0.56592   0.00000  Uiso   1.00
H990   H     0.74099   0.06856   0.54235   0.00000  Uiso   1.00
H991   H     0.69901   0.03428   0.57092   0.00000  Uiso   1.00
H992   H     0.67850   0.08364   0.55017   0.00000  Uiso   1.00
O993   O     0.88047   0.23399   0.62979   0.00000  Uiso   1.00
C994   C     0.92712   0.23301   0.61175   0.00000  Uiso   1.00
H995   H     0.91795   0.23084   0.57472   0.00000  Uiso   1.00
H996   H     0.95042   0.20737   0.62548   0.00000  Uiso   1.00
C997   C     0.95967   0.27454   0.61827   0.00000  Uiso   1.00
H998   H     0.98501   0.27683   0.65157   0.00000  Uiso   1.00
H999   H     0.98537   0.27817   0.59189   0.00000  Uiso   1.00
H1000  H     0.93439   0.30035   0.61475   0.00000  Uiso   1.00
O1001  O     0.75015   0.12629   0.36601   0.00000  Uiso   1.00
C1002  C     0.75654   0.08891   0.39044   0.00000  Uiso   1.00
H1003  H     0.75248   0.09566   0.42592   0.00000  Uiso   1.00
H1004  H     0.79351   0.07527   0.38781   0.00000  Uiso   1.00
C1005  C     0.71220   0.05558   0.37704   0.00000  Uiso   1.00
H1006  H     0.71833   0.03667   0.34764   0.00000  Uiso   1.00
H1007  H     0.71002   0.03370   0.40566   0.00000  Uiso   1.00
H1008  H     0.67498   0.06972   0.36981   0.00000  Uiso   1.00
C1009  C     0.17057   0.42043   0.50079   0.00000  Uiso   1.00
C1010  C     0.16439   0.57990   0.49956   0.00000  Uiso   1.00
C1011  C     0.06734   0.49982   0.48815   0.00000  Uiso   1.00
C1012  C     0.26606   0.50037   0.51175   0.00000  Uiso   1.00
C1013  C     0.01260   0.49632   0.48194   0.00000  Uiso   1.00
C1014  C     0.32084   0.50468   0.51738   0.00000  Uiso   1.00
C1015  C     0.18746   0.35568   0.46495   0.00000  Uiso   1.00
C1016  C     0.15330   0.64536   0.53781   0.00000  Uiso   1.00
C1017  C     0.17669   0.64655   0.46103   0.00000  Uiso   1.00
C1018  C     0.16359   0.35442   0.54092   0.00000  Uiso   1.00
C1019  C     0.16296   0.62434   0.49892   0.00000  Uiso   1.00
C1020  C     0.17518   0.37646   0.50251   0.00000  Uiso   1.00
C1021  C     0.19987   0.52739   0.36348   0.00000  Uiso   1.00
C1022  C     0.12970   0.47605   0.63641   0.00000  Uiso   1.00
C1023  C     0.19816   0.52936   0.64768   0.00000  Uiso   1.00
C1024  C     0.12901   0.47591   0.35149   0.00000  Uiso   1.00
N1025  N     0.16665   0.49999   0.61907   0.00000  Uiso   1.00
N1026  N     0.16668   0.50001   0.38093   0.00000  Uiso   1.00
O1027  O     0.16666   0.43892   0.53821   0.00000  Uiso   1.00
O1028  O     0.16667   0.56108   0.46179   0.00000  Uiso   1.00
O1029  O     0.16666   0.43893   0.46176   0.00000  Uiso   1.00
O1030  O     0.16667   0.56107   0.53824   0.00000  Uiso   1.00
O1031  O     0.09058   0.50000   0.52928   0.00000  Uiso   1.00
O1032  O     0.24275   0.50000   0.47072   0.00000  Uiso   1.00
O1033  O     0.09058   0.50000   0.45284   0.00000  Uiso   1.00
O1034  O     0.24275   0.50000   0.54716   0.00000  Uiso   1.00
Zn1035 Zn    0.16667   0.49999   0.55104   0.00000  Uiso   1.00
Zn1036 Zn    0.16667   0.50001   0.44896   0.00000  Uiso   1.00
C1037  C     0.32124   0.48213   0.43670   0.00000  Uiso   1.00
N1038  N     0.30208   0.47144   0.40049   0.00000  Uiso   1.00
C1039  C     0.01300   0.52235   0.56085   0.00000  Uiso   1.00
N1040  N     0.03398   0.53625   0.59523   0.00000  Uiso   1.00
C1041  C     0.21670   0.37637   0.43288   0.00000  Uiso   1.00
N1042  N     0.24055   0.39254   0.40740   0.00000  Uiso   1.00
C1043  C     0.13039   0.62500   0.57413   0.00000  Uiso   1.00
N1044  N     0.11183   0.60900   0.60312   0.00000  Uiso   1.00
O1045  O     0.18461   0.62640   0.42185   0.00000  Uiso   1.00
C1046  C     0.14548   0.63410   0.38512   0.00000  Uiso   1.00
H1047  H     0.16228   0.63259   0.35322   0.00000  Uiso   1.00
H1048  H     0.13101   0.66539   0.38621   0.00000  Uiso   1.00
C1049  C     0.10018   0.60126   0.38245   0.00000  Uiso   1.00
H1050  H     0.06951   0.60872   0.35446   0.00000  Uiso   1.00
H1051  H     0.11263   0.57034   0.37555   0.00000  Uiso   1.00
H1052  H     0.08426   0.60038   0.41490   0.00000  Uiso   1.00
O1053  O     0.16375   0.37432   0.58215   0.00000  Uiso   1.00
C1054  C     0.21289   0.37249   0.60907   0.00000  Uiso   1.00
H1055  H     0.24467   0.36779   0.58901   0.00000  Uiso   1.00
H1056  H     0.21065   0.34684   0.63369   0.00000  Uiso   1.00
C1057  C     0.22786   0.41272   0.63566   0.00000  Uiso   1.00
H1058  H     0.23099   0.43906   0.61219   0.00000  Uiso   1.00
H1059  H     0.26600   0.41104   0.65692   0.00000  Uiso   1.00
H1060  H     0.19886   0.41790   0.65798   0.00000  Uiso   1.00
O1061  O     0.22632   0.55576   0.39586   0.00000  Uiso   1.00
C1062  C     0.27033   0.57798   0.38453   0.00000  Uiso   1.00
H1063  H     0.25778   0.60467   0.36359   0.00000  Uiso   1.00
H1064  H     0.29449   0.55766   0.36829   0.00000  Uiso   1.00
C1065  C     0.30310   0.59647   0.42763   0.00000  Uiso   1.00
H1066  H     0.32204   0.57195   0.44824   0.00000  Uiso   1.00
H1067  H     0.33327   0.61947   0.41838   0.00000  Uiso   1.00
H1068  H     0.27913   0.61246   0.44862   0.00000  Uiso   1.00
O1069  O     0.08772   0.46135   0.60467   0.00000  Uiso   1.00
C1070  C     0.06861   0.42054   0.61163   0.00000  Uiso   1.00
H1071  H     0.03594   0.42182   0.63079   0.00000  Uiso   1.00
H1072  H     0.09891   0.40137   0.62893   0.00000  Uiso   1.00
C1073  C     0.04549   0.40053   0.56592   0.00000  Uiso   1.00
H1074  H     0.07432   0.40190   0.54235   0.00000  Uiso   1.00
H1075  H     0.03234   0.36761   0.57092   0.00000  Uiso   1.00
H1076  H     0.01184   0.41697   0.55017   0.00000  Uiso   1.00
O1077  O     0.21380   0.56732   0.62979   0.00000  Uiso   1.00
C1078  C     0.26045   0.56634   0.61175   0.00000  Uiso   1.00
H1079  H     0.25128   0.56417   0.57472   0.00000  Uiso   1.00
H1080  H     0.28375   0.54070   0.62548   0.00000  Uiso   1.00
C1081  C     0.29301   0.60787   0.61827   0.00000  Uiso   1.00
H1082  H     0.31834   0.61017   0.65157   0.00000  Uiso   1.00
H1083  H     0.31870   0.61150   0.59189   0.00000  Uiso   1.00
H1084  H     0.26773   0.63368   0.61475   0.00000  Uiso   1.00
O1085  O     0.08348   0.45962   0.36601   0.00000  Uiso   1.00
C1086  C     0.08988   0.42225   0.39044   0.00000  Uiso   1.00
H1087  H     0.08582   0.42900   0.42592   0.00000  Uiso   1.00
H1088  H     0.12684   0.40860   0.38781   0.00000  Uiso   1.00
C1089  C     0.04553   0.38891   0.37704   0.00000  Uiso   1.00
H1090  H     0.05166   0.37000   0.34764   0.00000  Uiso   1.00
H1091  H     0.04335   0.36703   0.40566   0.00000  Uiso   1.00
H1092  H     0.00831   0.40305   0.36981   0.00000  Uiso   1.00
C1093  C     0.50391   0.42043   0.50079   0.00000  Uiso   1.00
C1094  C     0.49773   0.57990   0.49956   0.00000  Uiso   1.00
C1095  C     0.40068   0.49982   0.48815   0.00000  Uiso   1.00
C1096  C     0.59939   0.50037   0.51175   0.00000  Uiso   1.00
C1097  C     0.34593   0.49632   0.48194   0.00000  Uiso   1.00
C1098  C     0.65418   0.50468   0.51738   0.00000  Uiso   1.00
C1099  C     0.52079   0.35568   0.46495   0.00000  Uiso   1.00
C1100  C     0.48664   0.64536   0.53781   0.00000  Uiso   1.00
C1101  C     0.51002   0.64655   0.46103   0.00000  Uiso   1.00
C1102  C     0.49692   0.35442   0.54092   0.00000  Uiso   1.00
C1103  C     0.49630   0.62434   0.49892   0.00000  Uiso   1.00
C1104  C     0.50851   0.37646   0.50251   0.00000  Uiso   1.00
C1105  C     0.53320   0.52739   0.36348   0.00000  Uiso   1.00
C1106  C     0.46303   0.47605   0.63641   0.00000  Uiso   1.00
C1107  C     0.53149   0.52936   0.64768   0.00000  Uiso   1.00
C1108  C     0.46234   0.47591   0.35149   0.00000  Uiso   1.00
N1109  N     0.49999   0.49999   0.61907   0.00000  Uiso   1.00
N1110  N     0.50001   0.50001   0.38093   0.00000  Uiso   1.00
O1111  O     0.50000   0.43892   0.53821   0.00000  Uiso   1.00
O1112  O     0.50000   0.56108   0.46179   0.00000  Uiso   1.00
O1113  O     0.50000   0.43893   0.46176   0.00000  Uiso   1.00
O1114  O     0.50000   0.56107   0.53824   0.00000  Uiso   1.00
O1115  O     0.42392   0.50000   0.52928   0.00000  Uiso   1.00
O1116  O     0.57608   0.50000   0.47072   0.00000  Uiso   1.00
O1117  O     0.42392   0.50000   0.45284   0.00000  Uiso   1.00
O1118  O     0.57608   0.50000   0.54716   0.00000  Uiso   1.00
Zn1119 Zn    0.50000   0.49999   0.55104   0.00000  Uiso   1.00
Zn1120 Zn    0.50000   0.50001   0.44896   0.00000  Uiso   1.00
C1121  C     0.65457   0.48213   0.43670   0.00000  Uiso   1.00
N1122  N     0.63541   0.47144   0.40049   0.00000  Uiso   1.00
C1123  C     0.34634   0.52235   0.56085   0.00000  Uiso   1.00
N1124  N     0.36731   0.53625   0.59523   0.00000  Uiso   1.00
C1125  C     0.55003   0.37637   0.43288   0.00000  Uiso   1.00
N1126  N     0.57389   0.39254   0.40740   0.00000  Uiso   1.00
C1127  C     0.46373   0.62500   0.57413   0.00000  Uiso   1.00
N1128  N     0.44517   0.60900   0.60312   0.00000  Uiso   1.00
O1129  O     0.51794   0.62640   0.42185   0.00000  Uiso   1.00
C1130  C     0.47881   0.63410   0.38512   0.00000  Uiso   1.00
H1131  H     0.49562   0.63259   0.35322   0.00000  Uiso   1.00
H1132  H     0.46435   0.66539   0.38621   0.00000  Uiso   1.00
C1133  C     0.43351   0.60126   0.38245   0.00000  Uiso   1.00
H1134  H     0.40285   0.60872   0.35446   0.00000  Uiso   1.00
H1135  H     0.44597   0.57034   0.37555   0.00000  Uiso   1.00
H1136  H     0.41760   0.60038   0.41490   0.00000  Uiso   1.00
O1137  O     0.49708   0.37432   0.58215   0.00000  Uiso   1.00
C1138  C     0.54622   0.37249   0.60907   0.00000  Uiso   1.00
H1139  H     0.57800   0.36779   0.58901   0.00000  Uiso   1.00
H1140  H     0.54399   0.34684   0.63369   0.00000  Uiso   1.00
C1141  C     0.56119   0.41272   0.63566   0.00000  Uiso   1.00
H1142  H     0.56432   0.43906   0.61219   0.00000  Uiso   1.00
H1143  H     0.59933   0.41104   0.65692   0.00000  Uiso   1.00
H1144  H     0.53219   0.41790   0.65798   0.00000  Uiso   1.00
O1145  O     0.55965   0.55576   0.39586   0.00000  Uiso   1.00
C1146  C     0.60366   0.57798   0.38453   0.00000  Uiso   1.00
H1147  H     0.59112   0.60467   0.36359   0.00000  Uiso   1.00
H1148  H     0.62783   0.55766   0.36829   0.00000  Uiso   1.00
C1149  C     0.63643   0.59647   0.42763   0.00000  Uiso   1.00
H1150  H     0.65537   0.57195   0.44824   0.00000  Uiso   1.00
H1151  H     0.66661   0.61947   0.41838   0.00000  Uiso   1.00
H1152  H     0.61247   0.61246   0.44862   0.00000  Uiso   1.00
O1153  O     0.42106   0.46135   0.60467   0.00000  Uiso   1.00
C1154  C     0.40194   0.42054   0.61163   0.00000  Uiso   1.00
H1155  H     0.36927   0.42182   0.63079   0.00000  Uiso   1.00
H1156  H     0.43224   0.40137   0.62893   0.00000  Uiso   1.00
C1157  C     0.37883   0.40053   0.56592   0.00000  Uiso   1.00
H1158  H     0.40765   0.40190   0.54235   0.00000  Uiso   1.00
H1159  H     0.36567   0.36761   0.57092   0.00000  Uiso   1.00
H1160  H     0.34517   0.41697   0.55017   0.00000  Uiso   1.00
O1161  O     0.54713   0.56732   0.62979   0.00000  Uiso   1.00
C1162  C     0.59378   0.56634   0.61175   0.00000  Uiso   1.00
H1163  H     0.58462   0.56417   0.57472   0.00000  Uiso   1.00
H1164  H     0.61708   0.54070   0.62548   0.00000  Uiso   1.00
C1165  C     0.62634   0.60787   0.61827   0.00000  Uiso   1.00
H1166  H     0.65167   0.61017   0.65157   0.00000  Uiso   1.00
H1167  H     0.65203   0.61150   0.59189   0.00000  Uiso   1.00
H1168  H     0.60106   0.63368   0.61475   0.00000  Uiso   1.00
O1169  O     0.41681   0.45962   0.36601   0.00000  Uiso   1.00
C1170  C     0.42321   0.42225   0.39044   0.00000  Uiso   1.00
H1171  H     0.41915   0.42900   0.42592   0.00000  Uiso   1.00
H1172  H     0.46018   0.40860   0.38781   0.00000  Uiso   1.00
C1173  C     0.37886   0.38891   0.37704   0.00000  Uiso   1.00
H1174  H     0.38500   0.37000   0.34764   0.00000  Uiso   1.00
H1175  H     0.37669   0.36703   0.40566   0.00000  Uiso   1.00
H1176  H     0.34164   0.40305   0.36981   0.00000  Uiso   1.00
C1177  C     0.83724   0.42043   0.50079   0.00000  Uiso   1.00
C1178  C     0.83106   0.57990   0.49956   0.00000  Uiso   1.00
C1179  C     0.73401   0.49982   0.48815   0.00000  Uiso   1.00
C1180  C     0.93272   0.50037   0.51175   0.00000  Uiso   1.00
C1181  C     0.67927   0.49632   0.48194   0.00000  Uiso   1.00
C1182  C     0.98751   0.50468   0.51738   0.00000  Uiso   1.00
C1183  C     0.85412   0.35568   0.46495   0.00000  Uiso   1.00
C1184  C     0.81997   0.64536   0.53781   0.00000  Uiso   1.00
C1185  C     0.84336   0.64655   0.46103   0.00000  Uiso   1.00
C1186  C     0.83026   0.35442   0.54092   0.00000  Uiso   1.00
C1187  C     0.82963   0.62434   0.49892   0.00000  Uiso   1.00
C1188  C     0.84184   0.37646   0.50251   0.00000  Uiso   1.00
C1189  C     0.86654   0.52739   0.36348   0.00000  Uiso   1.00
C1190  C     0.79636   0.47605   0.63641   0.00000  Uiso   1.00
C1191  C     0.86483   0.52936   0.64768   0.00000  Uiso   1.00
C1192  C     0.79567   0.47591   0.35149   0.00000  Uiso   1.00
N1193  N     0.83332   0.49999   0.61907   0.00000  Uiso   1.00
N1194  N     0.83335   0.50001   0.38093   0.00000  Uiso   1.00
O1195  O     0.83333   0.43892   0.53821   0.00000  Uiso   1.00
O1196  O     0.83334   0.56108   0.46179   0.00000  Uiso   1.00
O1197  O     0.83333   0.43893   0.46176   0.00000  Uiso   1.00
O1198  O     0.83334   0.56107   0.53824   0.00000  Uiso   1.00
O1199  O     0.75725   0.50000   0.52928   0.00000  Uiso   1.00
O1200  O     0.90942   0.50000   0.47072   0.00000  Uiso   1.00
O1201  O     0.75725   0.50000   0.45284   0.00000  Uiso   1.00
O1202  O     0.90942   0.50000   0.54716   0.00000  Uiso   1.00
Zn1203 Zn    0.83333   0.49999   0.55104   0.00000  Uiso   1.00
Zn1204 Zn    0.83333   0.50001   0.44896   0.00000  Uiso   1.00
C1205  C     0.98791   0.48213   0.43670   0.00000  Uiso   1.00
N1206  N     0.96875   0.47144   0.40049   0.00000  Uiso   1.00
C1207  C     0.67967   0.52235   0.56085   0.00000  Uiso   1.00
N1208  N     0.70064   0.53625   0.59523   0.00000  Uiso   1.00
C1209  C     0.88336   0.37637   0.43288   0.00000  Uiso   1.00
N1210  N     0.90722   0.39254   0.40740   0.00000  Uiso   1.00
C1211  C     0.79706   0.62500   0.57413   0.00000  Uiso   1.00
N1212  N     0.77850   0.60900   0.60312   0.00000  Uiso   1.00
O1213  O     0.85128   0.62640   0.42185   0.00000  Uiso   1.00
C1214  C     0.81214   0.63410   0.38512   0.00000  Uiso   1.00
H1215  H     0.82895   0.63259   0.35322   0.00000  Uiso   1.00
H1216  H     0.79768   0.66539   0.38621   0.00000  Uiso   1.00
C1217  C     0.76684   0.60126   0.38245   0.00000  Uiso   1.00
H1218  H     0.73618   0.60872   0.35446   0.00000  Uiso   1.00
H1219  H     0.77930   0.57034   0.37555   0.00000  Uiso   1.00
H1220  H     0.75093   0.60038   0.41490   0.00000  Uiso   1.00
O1221  O     0.83041   0.37432   0.58215   0.00000  Uiso   1.00
C1222  C     0.87955   0.37249   0.60907   0.00000  Uiso   1.00
H1223  H     0.91133   0.36779   0.58901   0.00000  Uiso   1.00
H1224  H     0.87732   0.34684   0.63369   0.00000  Uiso   1.00
C1225  C     0.89452   0.41272   0.63566   0.00000  Uiso   1.00
H1226  H     0.89765   0.43906   0.61219   0.00000  Uiso   1.00
H1227  H     0.93266   0.41104   0.65692   0.00000  Uiso   1.00
H1228  H     0.86552   0.41790   0.65798   0.00000  Uiso   1.00
O1229  O     0.89298   0.55576   0.39586   0.00000  Uiso   1.00
C1230  C     0.93699   0.57798   0.38453   0.00000  Uiso   1.00
H1231  H     0.92445   0.60467   0.36359   0.00000  Uiso   1.00
H1232  H     0.96116   0.55766   0.36829   0.00000  Uiso   1.00
C1233  C     0.96977   0.59647   0.42763   0.00000  Uiso   1.00
H1234  H     0.98870   0.57195   0.44824   0.00000  Uiso   1.00
H1235  H     0.99994   0.61947   0.41838   0.00000  Uiso   1.00
H1236  H     0.94580   0.61246   0.44862   0.00000  Uiso   1.00
O1237  O     0.75439   0.46135   0.60467   0.00000  Uiso   1.00
C1238  C     0.73527   0.42054   0.61163   0.00000  Uiso   1.00
H1239  H     0.70261   0.42182   0.63079   0.00000  Uiso   1.00
H1240  H     0.76558   0.40137   0.62893   0.00000  Uiso   1.00
C1241  C     0.71216   0.40053   0.56592   0.00000  Uiso   1.00
H1242  H     0.74099   0.40190   0.54235   0.00000  Uiso   1.00
H1243  H     0.69901   0.36761   0.57092   0.00000  Uiso   1.00
H1244  H     0.67850   0.41697   0.55017   0.00000  Uiso   1.00
O1245  O     0.88047   0.56732   0.62979   0.00000  Uiso   1.00
C1246  C     0.92712   0.56634   0.61175   0.00000  Uiso   1.00
H1247  H     0.91795   0.56417   0.57472   0.00000  Uiso   1.00
H1248  H     0.95042   0.54070   0.62548   0.00000  Uiso   1.00
C1249  C     0.95967   0.60787   0.61827   0.00000  Uiso   1.00
H1250  H     0.98501   0.61017   0.65157   0.00000  Uiso   1.00
H1251  H     0.98537   0.61150   0.59189   0.00000  Uiso   1.00
H1252  H     0.93439   0.63368   0.61475   0.00000  Uiso   1.00
O1253  O     0.75015   0.45962   0.36601   0.00000  Uiso   1.00
C1254  C     0.75654   0.42225   0.39044   0.00000  Uiso   1.00
H1255  H     0.75248   0.42900   0.42592   0.00000  Uiso   1.00
H1256  H     0.79351   0.40860   0.38781   0.00000  Uiso   1.00
C1257  C     0.71220   0.38891   0.37704   0.00000  Uiso   1.00
H1258  H     0.71833   0.37000   0.34764   0.00000  Uiso   1.00
H1259  H     0.71002   0.36703   0.40566   0.00000  Uiso   1.00
H1260  H     0.67498   0.40305   0.36981   0.00000  Uiso   1.00
C1261  C     0.17057   0.75377   0.50079   0.00000  Uiso   1.00
C1262  C     0.16439   0.91323   0.49956   0.00000  Uiso   1.00
C1263  C     0.06734   0.83315   0.48815   0.00000  Uiso   1.00
C1264  C     0.26606   0.83370   0.51175   0.00000  Uiso   1.00
C1265  C     0.01260   0.82965   0.48194   0.00000  Uiso   1.00
C1266  C     0.32084   0.83801   0.51738   0.00000  Uiso   1.00
C1267  C     0.18746   0.68901   0.46495   0.00000  Uiso   1.00
C1268  C     0.15330   0.97870   0.53781   0.00000  Uiso   1.00
C1269  C     0.17669   0.97988   0.46103   0.00000  Uiso   1.00
C1270  C     0.16359   0.68775   0.54092   0.00000  Uiso   1.00
C1271  C     0.16296   0.95767   0.49892   0.00000  Uiso   1.00
C1272  C     0.17518   0.70979   0.50251   0.00000  Uiso   1.00
C1273  C     0.19987   0.86072   0.36348   0.00000  Uiso   1.00
C1274  C     0.12970   0.80938   0.63641   0.00000  Uiso   1.00
C1275  C     0.19816   0.86270   0.64768   0.00000  Uiso   1.00
C1276  C     0.12901   0.80924   0.35149   0.00000  Uiso   1.00
N1277  N     0.16665   0.83332   0.61907   0.00000  Uiso   1.00
N1278  N     0.16668   0.83334   0.38093   0.00000  Uiso   1.00
O1279  O     0.16666   0.77225   0.53821   0.00000  Uiso   1.00
O1280  O     0.16667   0.89442   0.46179   0.00000  Uiso   1.00
O1281  O     0.16666   0.77226   0.46176   0.00000  Uiso   1.00
O1282  O     0.16667   0.89441   0.53824   0.00000  Uiso   1.00
O1283  O     0.09058   0.83333   0.52928   0.00000  Uiso   1.00
O1284  O     0.24275   0.83334   0.47072   0.00000  Uiso   1.00
O1285  O     0.09058   0.83334   0.45284   0.00000  Uiso   1.00
O1286  O     0.24275   0.83333   0.54716   0.00000  Uiso   1.00
Zn1287 Zn    0.16667   0.83333   0.55104   0.00000  Uiso   1.00
Zn1288 Zn    0.16667   0.83334   0.44896   0.00000  Uiso   1.00
C1289  C     0.32124   0.81546   0.43670   0.00000  Uiso   1.00
N1290  N     0.30208   0.80477   0.40049   0.00000  Uiso   1.00
C1291  C     0.01300   0.85568   0.56085   0.00000  Uiso   1.00
N1292  N     0.03398   0.86958   0.59523   0.00000  Uiso   1.00
C1293  C     0.21670   0.70970   0.43288   0.00000  Uiso   1.00
N1294  N     0.24055   0.72588   0.40740   0.00000  Uiso   1.00
C1295  C     0.13039   0.95834   0.57413   0.00000  Uiso   1.00
N1296  N     0.11183   0.94233   0.60312   0.00000  Uiso   1.00
O1297  O     0.18461   0.95974   0.42185   0.00000  Uiso   1.00
C1298  C     0.14548   0.96744   0.38512   0.00000  Uiso   1.00
H1299  H     0.16228   0.96592   0.35322   0.00000  Uiso   1.00
H1300  H     0.13101   0.99872   0.38621   0.00000  Uiso   1.00
C1301  C     0.10018   0.93460   0.38245   0.00000  Uiso   1.00
H1302  H     0.06951   0.94206   0.35446   0.00000  Uiso   1.00
H1303  H     0.11263   0.90367   0.37555   0.00000  Uiso   1.00
H1304  H     0.08426   0.93371   0.41490   0.00000  Uiso   1.00
O1305  O     0.16375   0.70765   0.58215   0.00000  Uiso   1.00
C1306  C     0.21289   0.70582   0.60907   0.00000  Uiso   1.00
H1307  H     0.24467   0.70112   0.58901   0.00000  Uiso   1.00
H1308  H     0.21065   0.68017   0.63369   0.00000  Uiso   1.00
C1309  C     0.22786   0.74605   0.63566   0.00000  Uiso   1.00
H1310  H     0.23099   0.77240   0.61219   0.00000  Uiso   1.00
H1311  H     0.26600   0.74438   0.65692   0.00000  Uiso   1.00
H1312  H     0.19886   0.75123   0.65798   0.00000  Uiso   1.00
O1313  O     0.22632   0.88910   0.39586   0.00000  Uiso   1.00
C1314  C     0.27033   0.91131   0.38453   0.00000  Uiso   1.00
H1315  H     0.25778   0.93800   0.36359   0.00000  Uiso   1.00
H1316  H     0.29449   0.89099   0.36829   0.00000  Uiso   1.00
C1317  C     0.30310   0.92980   0.42763   0.00000  Uiso   1.00
H1318  H     0.32204   0.90528   0.44824   0.00000  Uiso   1.00
H1319  H     0.33327   0.95280   0.41838   0.00000  Uiso   1.00
H1320  H     0.27913   0.94579   0.44862   0.00000  Uiso   1.00
O1321  O     0.08772   0.79468   0.60467   0.00000  Uiso   1.00
C1322  C     0.06861   0.75388   0.61163   0.00000  Uiso   1.00
H1323  H     0.03594   0.75516   0.63079   0.00000  Uiso   1.00
H1324  H     0.09891   0.73470   0.62893   0.00000  Uiso   1.00
C1325  C     0.04549   0.73386   0.56592   0.00000  Uiso   1.00
H1326  H     0.07432   0.73523   0.54235   0.00000  Uiso   1.00
H1327  H     0.03234   0.70095   0.57092   0.00000  Uiso   1.00
H1328  H     0.01184   0.75030   0.55017   0.00000  Uiso   1.00
O1329  O     0.21380   0.90066   0.62979   0.00000  Uiso   1.00
C1330  C     0.26045   0.89967   0.61175   0.00000  Uiso   1.00
H1331  H     0.25128   0.89751   0.57472   0.00000  Uiso   1.00
H1332  H     0.28375   0.87403   0.62548   0.00000  Uiso   1.00
C1333  C     0.29301   0.94120   0.61827   0.00000  Uiso   1.00
H1334  H     0.31834   0.94350   0.65157   0.00000  Uiso   1.00
H1335  H     0.31870   0.94483   0.59189   0.00000  Uiso   1.00
H1336  H     0.26773   0.96702   0.61475   0.00000  Uiso   1.00
O1337  O     0.08348   0.79296   0.36601   0.00000  Uiso   1.00
C1338  C     0.08988   0.75558   0.39044   0.00000  Uiso   1.00
H1339  H     0.08582   0.76233   0.42592   0.00000  Uiso   1.00
H1340  H     0.12684   0.74193   0.38781   0.00000  Uiso   1.00
C1341  C     0.04553   0.72224   0.37704   0.00000  Uiso   1.00
H1342  H     0.05166   0.70334   0.34764   0.00000  Uiso   1.00
H1343  H     0.04335   0.70037   0.40566   0.00000  Uiso   1.00
H1344  H     0.00831   0.73638   0.36981   0.00000  Uiso   1.00
C1345  C     0.50391   0.75377   0.50079   0.00000  Uiso   1.00
C1346  C     0.49773   0.91323   0.49956   0.00000  Uiso   1.00
C1347  C     0.40068   0.83315   0.48815   0.00000  Uiso   1.00
C1348  C     0.59939   0.83370   0.51175   0.00000  Uiso   1.00
C1349  C     0.34593   0.82965   0.48194   0.00000  Uiso   1.00
C1350  C     0.65418   0.83801   0.51738   0.00000  Uiso   1.00
C1351  C     0.52079   0.68901   0.46495   0.00000  Uiso   1.00
C1352  C     0.48664   0.97870   0.53781   0.00000  Uiso   1.00
C1353  C     0.51002   0.97988   0.46103   0.00000  Uiso   1.00
C1354  C     0.49692   0.68775   0.54092   0.00000  Uiso   1.00
C1355  C     0.49630   0.95767   0.49892   0.00000  Uiso   1.00
C1356  C     0.50851   0.70979   0.50251   0.00000  Uiso   1.00
C1357  C     0.53320   0.86072   0.36348   0.00000  Uiso   1.00
C1358  C     0.46303   0.80938   0.63641   0.00000  Uiso   1.00
C1359  C     0.53149   0.86270   0.64768   0.00000  Uiso   1.00
C1360  C     0.46234   0.80924   0.35149   0.00000  Uiso   1.00
N1361  N     0.49999   0.83332   0.61907   0.00000  Uiso   1.00
N1362  N     0.50001   0.83334   0.38093   0.00000  Uiso   1.00
O1363  O     0.50000   0.77225   0.53821   0.00000  Uiso   1.00
O1364  O     0.50000   0.89442   0.46179   0.00000  Uiso   1.00
O1365  O     0.50000   0.77226   0.46176   0.00000  Uiso   1.00
O1366  O     0.50000   0.89441   0.53824   0.00000  Uiso   1.00
O1367  O     0.42392   0.83333   0.52928   0.00000  Uiso   1.00
O1368  O     0.57608   0.83334   0.47072   0.00000  Uiso   1.00
O1369  O     0.42392   0.83334   0.45284   0.00000  Uiso   1.00
O1370  O     0.57608   0.83333   0.54716   0.00000  Uiso   1.00
Zn1371 Zn    0.50000   0.83333   0.55104   0.00000  Uiso   1.00
Zn1372 Zn    0.50000   0.83334   0.44896   0.00000  Uiso   1.00
C1373  C     0.65457   0.81546   0.43670   0.00000  Uiso   1.00
N1374  N     0.63541   0.80477   0.40049   0.00000  Uiso   1.00
C1375  C     0.34634   0.85568   0.56085   0.00000  Uiso   1.00
N1376  N     0.36731   0.86958   0.59523   0.00000  Uiso   1.00
C1377  C     0.55003   0.70970   0.43288   0.00000  Uiso   1.00
N1378  N     0.57389   0.72588   0.40740   0.00000  Uiso   1.00
C1379  C     0.46373   0.95834   0.57413   0.00000  Uiso   1.00
N1380  N     0.44517   0.94233   0.60312   0.00000  Uiso   1.00
O1381  O     0.51794   0.95974   0.42185   0.00000  Uiso   1.00
C1382  C     0.47881   0.96744   0.38512   0.00000  Uiso   1.00
H1383  H     0.49562   0.96592   0.35322   0.00000  Uiso   1.00
H1384  H     0.46435   0.99872   0.38621   0.00000  Uiso   1.00
C1385  C     0.43351   0.93460   0.38245   0.00000  Uiso   1.00
H1386  H     0.40285   0.94206   0.35446   0.00000  Uiso   1.00
H1387  H     0.44597   0.90367   0.37555   0.00000  Uiso   1.00
H1388  H     0.41760   0.93371   0.41490   0.00000  Uiso   1.00
O1389  O     0.49708   0.70765   0.58215   0.00000  Uiso   1.00
C1390  C     0.54622   0.70582   0.60907   0.00000  Uiso   1.00
H1391  H     0.57800   0.70112   0.58901   0.00000  Uiso   1.00
H1392  H     0.54399   0.68017   0.63369   0.00000  Uiso   1.00
C1393  C     0.56119   0.74605   0.63566   0.00000  Uiso   1.00
H1394  H     0.56432   0.77240   0.61219   0.00000  Uiso   1.00
H1395  H     0.59933   0.74438   0.65692   0.00000  Uiso   1.00
H1396  H     0.53219   0.75123   0.65798   0.00000  Uiso   1.00
O1397  O     0.55965   0.88910   0.39586   0.00000  Uiso   1.00
C1398  C     0.60366   0.91131   0.38453   0.00000  Uiso   1.00
H1399  H     0.59112   0.93800   0.36359   0.00000  Uiso   1.00
H1400  H     0.62783   0.89099   0.36829   0.00000  Uiso   1.00
C1401  C     0.63643   0.92980   0.42763   0.00000  Uiso   1.00
H1402  H     0.65537   0.90528   0.44824   0.00000  Uiso   1.00
H1403  H     0.66661   0.95280   0.41838   0.00000  Uiso   1.00
H1404  H     0.61247   0.94579   0.44862   0.00000  Uiso   1.00
O1405  O     0.42106   0.79468   0.60467   0.00000  Uiso   1.00
C1406  C     0.40194   0.75388   0.61163   0.00000  Uiso   1.00
H1407  H     0.36927   0.75516   0.63079   0.00000  Uiso   1.00
H1408  H     0.43224   0.73470   0.62893   0.00000  Uiso   1.00
C1409  C     0.37883   0.73386   0.56592   0.00000  Uiso   1.00
H1410  H     0.40765   0.73523   0.54235   0.00000  Uiso   1.00
H1411  H     0.36567   0.70095   0.57092   0.00000  Uiso   1.00
H1412  H     0.34517   0.75030   0.55017   0.00000  Uiso   1.00
O1413  O     0.54713   0.90066   0.62979   0.00000  Uiso   1.00
C1414  C     0.59378   0.89967   0.61175   0.00000  Uiso   1.00
H1415  H     0.58462   0.89751   0.57472   0.00000  Uiso   1.00
H1416  H     0.61708   0.87403   0.62548   0.00000  Uiso   1.00
C1417  C     0.62634   0.94120   0.61827   0.00000  Uiso   1.00
H1418  H     0.65167   0.94350   0.65157   0.00000  Uiso   1.00
H1419  H     0.65203   0.94483   0.59189   0.00000  Uiso   1.00
H1420  H     0.60106   0.96702   0.61475   0.00000  Uiso   1.00
O1421  O     0.41681   0.79296   0.36601   0.00000  Uiso   1.00
C1422  C     0.42321   0.75558   0.39044   0.00000  Uiso   1.00
H1423  H     0.41915   0.76233   0.42592   0.00000  Uiso   1.00
H1424  H     0.46018   0.74193   0.38781   0.00000  Uiso   1.00
C1425  C     0.37886   0.72224   0.37704   0.00000  Uiso   1.00
H1426  H     0.38500   0.70334   0.34764   0.00000  Uiso   1.00
H1427  H     0.37669   0.70037   0.40566   0.00000  Uiso   1.00
H1428  H     0.34164   0.73638   0.36981   0.00000  Uiso   1.00
C1429  C     0.83724   0.75377   0.50079   0.00000  Uiso   1.00
C1430  C     0.83106   0.91323   0.49956   0.00000  Uiso   1.00
C1431  C     0.73401   0.83315   0.48815   0.00000  Uiso   1.00
C1432  C     0.93272   0.83370   0.51175   0.00000  Uiso   1.00
C1433  C     0.67927   0.82965   0.48194   0.00000  Uiso   1.00
C1434  C     0.98751   0.83801   0.51738   0.00000  Uiso   1.00
C1435  C     0.85412   0.68901   0.46495   0.00000  Uiso   1.00
C1436  C     0.81997   0.97870   0.53781   0.00000  Uiso   1.00
C1437  C     0.84336   0.97988   0.46103   0.00000  Uiso   1.00
C1438  C     0.83026   0.68775   0.54092   0.00000  Uiso   1.00
C1439  C     0.82963   0.95767   0.49892   0.00000  Uiso   1.00
C1440  C     0.84184   0.70979   0.50251   0.00000  Uiso   1.00
C1441  C     0.86654   0.86072   0.36348   0.00000  Uiso   1.00
C1442  C     0.79636   0.80938   0.63641   0.00000  Uiso   1.00
C1443  C     0.86483   0.86270   0.64768   0.00000  Uiso   1.00
C1444  C     0.79567   0.80924   0.35149   0.00000  Uiso   1.00
N1445  N     0.83332   0.83332   0.61907   0.00000  Uiso   1.00
N1446  N     0.83335   0.83334   0.38093   0.00000  Uiso   1.00
O1447  O     0.83333   0.77225   0.53821   0.00000  Uiso   1.00
O1448  O     0.83334   0.89442   0.46179   0.00000  Uiso   1.00
O1449  O     0.83333   0.77226   0.46176   0.00000  Uiso   1.00
O1450  O     0.83334   0.89441   0.53824   0.00000  Uiso   1.00
O1451  O     0.75725   0.83333   0.52928   0.00000  Uiso   1.00
O1452  O     0.90942   0.83334   0.47072   0.00000  Uiso   1.00
O1453  O     0.75725   0.83334   0.45284   0.00000  Uiso   1.00
O1454  O     0.90942   0.83333   0.54716   0.00000  Uiso   1.00
Zn1455 Zn    0.83333   0.83333   0.55104   0.00000  Uiso   1.00
Zn1456 Zn    0.83333   0.83334   0.44896   0.00000  Uiso   1.00
C1457  C     0.98791   0.81546   0.43670   0.00000  Uiso   1.00
N1458  N     0.96875   0.80477   0.40049   0.00000  Uiso   1.00
C1459  C     0.67967   0.85568   0.56085   0.00000  Uiso   1.00
N1460  N     0.70064   0.86958   0.59523   0.00000  Uiso   1.00
C1461  C     0.88336   0.70970   0.43288   0.00000  Uiso   1.00
N1462  N     0.90722   0.72588   0.40740   0.00000  Uiso   1.00
C1463  C     0.79706   0.95834   0.57413   0.00000  Uiso   1.00
N1464  N     0.77850   0.94233   0.60312   0.00000  Uiso   1.00
O1465  O     0.85128   0.95974   0.42185   0.00000  Uiso   1.00
C1466  C     0.81214   0.96744   0.38512   0.00000  Uiso   1.00
H1467  H     0.82895   0.96592   0.35322   0.00000  Uiso   1.00
H1468  H     0.79768   0.99872   0.38621   0.00000  Uiso   1.00
C1469  C     0.76684   0.93460   0.38245   0.00000  Uiso   1.00
H1470  H     0.73618   0.94206   0.35446   0.00000  Uiso   1.00
H1471  H     0.77930   0.90367   0.37555   0.00000  Uiso   1.00
H1472  H     0.75093   0.93371   0.41490   0.00000  Uiso   1.00
O1473  O     0.83041   0.70765   0.58215   0.00000  Uiso   1.00
C1474  C     0.87955   0.70582   0.60907   0.00000  Uiso   1.00
H1475  H     0.91133   0.70112   0.58901   0.00000  Uiso   1.00
H1476  H     0.87732   0.68017   0.63369   0.00000  Uiso   1.00
C1477  C     0.89452   0.74605   0.63566   0.00000  Uiso   1.00
H1478  H     0.89765   0.77240   0.61219   0.00000  Uiso   1.00
H1479  H     0.93266   0.74438   0.65692   0.00000  Uiso   1.00
H1480  H     0.86552   0.75123   0.65798   0.00000  Uiso   1.00
O1481  O     0.89298   0.88910   0.39586   0.00000  Uiso   1.00
C1482  C     0.93699   0.91131   0.38453   0.00000  Uiso   1.00
H1483  H     0.92445   0.93800   0.36359   0.00000  Uiso   1.00
H1484  H     0.96116   0.89099   0.36829   0.00000  Uiso   1.00
C1485  C     0.96977   0.92980   0.42763   0.00000  Uiso   1.00
H1486  H     0.98870   0.90528   0.44824   0.00000  Uiso   1.00
H1487  H     0.99994   0.95280   0.41838   0.00000  Uiso   1.00
H1488  H     0.94580   0.94579   0.44862   0.00000  Uiso   1.00
O1489  O     0.75439   0.79468   0.60467   0.00000  Uiso   1.00
C1490  C     0.73527   0.75388   0.61163   0.00000  Uiso   1.00
H1491  H     0.70261   0.75516   0.63079   0.00000  Uiso   1.00
H1492  H     0.76558   0.73470   0.62893   0.00000  Uiso   1.00
C1493  C     0.71216   0.73386   0.56592   0.00000  Uiso   1.00
H1494  H     0.74099   0.73523   0.54235   0.00000  Uiso   1.00
H1495  H     0.69901   0.70095   0.57092   0.00000  Uiso   1.00
H1496  H     0.67850   0.75030   0.55017   0.00000  Uiso   1.00
O1497  O     0.88047   0.90066   0.62979   0.00000  Uiso   1.00
C1498  C     0.92712   0.89967   0.61175   0.00000  Uiso   1.00
H1499  H     0.91795   0.89751   0.57472   0.00000  Uiso   1.00
H1500  H     0.95042   0.87403   0.62548   0.00000  Uiso   1.00
C1501  C     0.95967   0.94120   0.61827   0.00000  Uiso   1.00
H1502  H     0.98501   0.94350   0.65157   0.00000  Uiso   1.00
H1503  H     0.98537   0.94483   0.59189   0.00000  Uiso   1.00
H1504  H     0.93439   0.96702   0.61475   0.00000  Uiso   1.00
O1505  O     0.75015   0.79296   0.36601   0.00000  Uiso   1.00
C1506  C     0.75654   0.75558   0.39044   0.00000  Uiso   1.00
H1507  H     0.75248   0.76233   0.42592   0.00000  Uiso   1.00
H1508  H     0.79351   0.74193   0.38781   0.00000  Uiso   1.00
C1509  C     0.71220   0.72224   0.37704   0.00000  Uiso   1.00
H1510  H     0.71833   0.70334   0.34764   0.00000  Uiso   1.00
H1511  H     0.71002   0.70037   0.40566   0.00000  Uiso   1.00
H1512  H     0.67498   0.73638   0.36981   0.00000  Uiso   1.00
C1513  C     0.17057   0.08710   0.83412   0.00000  Uiso   1.00
C1514  C     0.16439   0.24656   0.83289   0.00000  Uiso   1.00
C1515  C     0.06734   0.16649   0.82148   0.00000  Uiso   1.00
C1516  C     0.26606   0.16704   0.84508   0.00000  Uiso   1.00
C1517  C     0.01260   0.16299   0.81528   0.00000  Uiso   1.00
C1518  C     0.32084   0.17134   0.85071   0.00000  Uiso   1.00
C1519  C     0.18746   0.02234   0.79828   0.00000  Uiso   1.00
C1520  C     0.15330   0.31203   0.87114   0.00000  Uiso   1.00
C1521  C     0.17669   0.31321   0.79436   0.00000  Uiso   1.00
C1522  C     0.16359   0.02109   0.87425   0.00000  Uiso   1.00
C1523  C     0.16296   0.29100   0.83226   0.00000  Uiso   1.00
C1524  C     0.17518   0.04313   0.83584   0.00000  Uiso   1.00
C1525  C     0.19987   0.19405   0.69682   0.00000  Uiso   1.00
C1526  C     0.12970   0.14272   0.96974   0.00000  Uiso   1.00
C1527  C     0.19816   0.19603   0.98101   0.00000  Uiso   1.00
C1528  C     0.12901   0.14258   0.68483   0.00000  Uiso   1.00
N1529  N     0.16665   0.16666   0.95240   0.00000  Uiso   1.00
N1530  N     0.16668   0.16668   0.71427   0.00000  Uiso   1.00
O1531  O     0.16666   0.10558   0.87154   0.00000  Uiso   1.00
O1532  O     0.16667   0.22775   0.79513   0.00000  Uiso   1.00
O1533  O     0.16666   0.10559   0.79510   0.00000  Uiso   1.00
O1534  O     0.16667   0.22774   0.87157   0.00000  Uiso   1.00
O1535  O     0.09058   0.16666   0.86261   0.00000  Uiso   1.00
O1536  O     0.24275   0.16667   0.80405   0.00000  Uiso   1.00
O1537  O     0.09058   0.16667   0.78617   0.00000  Uiso   1.00
O1538  O     0.24275   0.16666   0.88050   0.00000  Uiso   1.00
Zn1539 Zn    0.16667   0.16666   0.88437   0.00000  Uiso   1.00
Zn1540 Zn    0.16667   0.16667   0.78229   0.00000  Uiso   1.00
C1541  C     0.32124   0.14880   0.77004   0.00000  Uiso   1.00
N1542  N     0.30208   0.13810   0.73382   0.00000  Uiso   1.00
C1543  C     0.01300   0.18901   0.89418   0.00000  Uiso   1.00
N1544  N     0.03398   0.20291   0.92856   0.00000  Uiso   1.00
C1545  C     0.21670   0.04303   0.76621   0.00000  Uiso   1.00
N1546  N     0.24055   0.05921   0.74074   0.00000  Uiso   1.00
C1547  C     0.13039   0.29167   0.90746   0.00000  Uiso   1.00
N1548  N     0.11183   0.27567   0.93645   0.00000  Uiso   1.00
O1549  O     0.18461   0.29307   0.75518   0.00000  Uiso   1.00
C1550  C     0.14548   0.30077   0.71845   0.00000  Uiso   1.00
H1551  H     0.16228   0.29926   0.68656   0.00000  Uiso   1.00
H1552  H     0.13101   0.33205   0.71954   0.00000  Uiso   1.00
C1553  C     0.10018   0.26793   0.71578   0.00000  Uiso   1.00
H1554  H     0.06951   0.27539   0.68779   0.00000  Uiso   1.00
H1555  H     0.11263   0.23701   0.70888   0.00000  Uiso   1.00
H1556  H     0.08426   0.26705   0.74823   0.00000  Uiso   1.00
O1557  O     0.16375   0.04099   0.91548   0.00000  Uiso   1.00
C1558  C     0.21289   0.03916   0.94240   0.00000  Uiso   1.00
H1559  H     0.24467   0.03446   0.92235   0.00000  Uiso   1.00
H1560  H     0.21065   0.01350   0.96702   0.00000  Uiso   1.00
C1561  C     0.22786   0.07939   0.96900   0.00000  Uiso   1.00
H1562  H     0.23099   0.10573   0.94552   0.00000  Uiso   1.00
H1563  H     0.26600   0.07771   0.99025   0.00000  Uiso   1.00
H1564  H     0.19886   0.08457   0.99131   0.00000  Uiso   1.00
O1565  O     0.22632   0.22243   0.72920   0.00000  Uiso   1.00
C1566  C     0.27033   0.24465   0.71786   0.00000  Uiso   1.00
H1567  H     0.25778   0.27133   0.69692   0.00000  Uiso   1.00
H1568  H     0.29449   0.22433   0.70163   0.00000  Uiso   1.00
C1569  C     0.30310   0.26314   0.76097   0.00000  Uiso   1.00
H1570  H     0.32204   0.23861   0.78157   0.00000  Uiso   1.00
H1571  H     0.33327   0.28614   0.75171   0.00000  Uiso   1.00
H1572  H     0.27913   0.27913   0.78195   0.00000  Uiso   1.00
O1573  O     0.08772   0.12801   0.93801   0.00000  Uiso   1.00
C1574  C     0.06861   0.08721   0.94496   0.00000  Uiso   1.00
H1575  H     0.03594   0.08849   0.96413   0.00000  Uiso   1.00
H1576  H     0.09891   0.06804   0.96226   0.00000  Uiso   1.00
C1577  C     0.04549   0.06720   0.89925   0.00000  Uiso   1.00
H1578  H     0.07432   0.06856   0.87568   0.00000  Uiso   1.00
H1579  H     0.03234   0.03428   0.90425   0.00000  Uiso   1.00
H1580  H     0.01184   0.08364   0.88351   0.00000  Uiso   1.00
O1581  O     0.21380   0.23399   0.96312   0.00000  Uiso   1.00
C1582  C     0.26045   0.23301   0.94509   0.00000  Uiso   1.00
H1583  H     0.25128   0.23084   0.90805   0.00000  Uiso   1.00
H1584  H     0.28375   0.20737   0.95881   0.00000  Uiso   1.00
C1585  C     0.29301   0.27454   0.95161   0.00000  Uiso   1.00
H1586  H     0.31834   0.27683   0.98490   0.00000  Uiso   1.00
H1587  H     0.31870   0.27817   0.92523   0.00000  Uiso   1.00
H1588  H     0.26773   0.30035   0.94809   0.00000  Uiso   1.00
O1589  O     0.08348   0.12629   0.69934   0.00000  Uiso   1.00
C1590  C     0.08988   0.08891   0.72377   0.00000  Uiso   1.00
H1591  H     0.08582   0.09566   0.75926   0.00000  Uiso   1.00
H1592  H     0.12684   0.07527   0.72114   0.00000  Uiso   1.00
C1593  C     0.04553   0.05558   0.71038   0.00000  Uiso   1.00
H1594  H     0.05166   0.03667   0.68098   0.00000  Uiso   1.00
H1595  H     0.04335   0.03370   0.73900   0.00000  Uiso   1.00
H1596  H     0.00831   0.06972   0.70315   0.00000  Uiso   1.00
C1597  C     0.50391   0.08710   0.83412   0.00000  Uiso   1.00
C1598  C     0.49773   0.24656   0.83289   0.00000  Uiso   1.00
C1599  C     0.40068   0.16649   0.82148   0.00000  Uiso   1.00
C1600  C     0.59939   0.16704   0.84508   0.00000  Uiso   1.00
C1601  C     0.34593   0.16299   0.81528   0.00000  Uiso   1.00
C1602  C     0.65418   0.17134   0.85071   0.00000  Uiso   1.00
C1603  C     0.52079   0.02234   0.79828   0.00000  Uiso   1.00
C1604  C     0.48664   0.31203   0.87114   0.00000  Uiso   1.00
C1605  C     0.51002   0.31321   0.79436   0.00000  Uiso   1.00
C1606  C     0.49692   0.02109   0.87425   0.00000  Uiso   1.00
C1607  C     0.49630   0.29100   0.83226   0.00000  Uiso   1.00
C1608  C     0.50851   0.04313   0.83584   0.00000  Uiso   1.00
C1609  C     0.53320   0.19405   0.69682   0.00000  Uiso   1.00
C1610  C     0.46303   0.14272   0.96974   0.00000  Uiso   1.00
C1611  C     0.53149   0.19603   0.98101   0.00000  Uiso   1.00
C1612  C     0.46234   0.14258   0.68483   0.00000  Uiso   1.00
N1613  N     0.49999   0.16666   0.95240   0.00000  Uiso   1.00
N1614  N     0.50001   0.16668   0.71427   0.00000  Uiso   1.00
O1615  O     0.50000   0.10558   0.87154   0.00000  Uiso   1.00
O1616  O     0.50000   0.22775   0.79513   0.00000  Uiso   1.00
O1617  O     0.50000   0.10559   0.79510   0.00000  Uiso   1.00
O1618  O     0.50000   0.22774   0.87157   0.00000  Uiso   1.00
O1619  O     0.42392   0.16666   0.86261   0.00000  Uiso   1.00
O1620  O     0.57608   0.16667   0.80405   0.00000  Uiso   1.00
O1621  O     0.42392   0.16667   0.78617   0.00000  Uiso   1.00
O1622  O     0.57608   0.16666   0.88050   0.00000  Uiso   1.00
Zn1623 Zn    0.50000   0.16666   0.88437   0.00000  Uiso   1.00
Zn1624 Zn    0.50000   0.16667   0.78229   0.00000  Uiso   1.00
C1625  C     0.65457   0.14880   0.77004   0.00000  Uiso   1.00
N1626  N     0.63541   0.13810   0.73382   0.00000  Uiso   1.00
C1627  C     0.34634   0.18901   0.89418   0.00000  Uiso   1.00
N1628  N     0.36731   0.20291   0.92856   0.00000  Uiso   1.00
C1629  C     0.55003   0.04303   0.76621   0.00000  Uiso   1.00
N1630  N     0.57389   0.05921   0.74074   0.00000  Uiso   1.00
C1631  C     0.46373   0.29167   0.90746   0.00000  Uiso   1.00
N1632  N     0.44517   0.27567   0.93645   0.00000  Uiso   1.00
O1633  O     0.51794   0.29307   0.75518   0.00000  Uiso   1.00
C1634  C     0.47881   0.30077   0.71845   0.00000  Uiso   1.00
H1635  H     0.49562   0.29926   0.68656   0.00000  Uiso   1.00
H1636  H     0.46435   0.33205   0.71954   0.00000  Uiso   1.00
C1637  C     0.43351   0.26793   0.71578   0.00000  Uiso   1.00
H1638  H     0.40285   0.27539   0.68779   0.00000  Uiso   1.00
H1639  H     0.44597   0.23701   0.70888   0.00000  Uiso   1.00
H1640  H     0.41760   0.26705   0.74823   0.00000  Uiso   1.00
O1641  O     0.49708   0.04099   0.91548   0.00000  Uiso   1.00
C1642  C     0.54622   0.03916   0.94240   0.00000  Uiso   1.00
H1643  H     0.57800   0.03446   0.92235   0.00000  Uiso   1.00
H1644  H     0.54399   0.01350   0.96702   0.00000  Uiso   1.00
C1645  C     0.56119   0.07939   0.96900   0.00000  Uiso   1.00
H1646  H     0.56432   0.10573   0.94552   0.00000  Uiso   1.00
H1647  H     0.59933   0.07771   0.99025   0.00000  Uiso   1.00
H1648  H     0.53219   0.08457   0.99131   0.00000  Uiso   1.00
O1649  O     0.55965   0.22243   0.72920   0.00000  Uiso   1.00
C1650  C     0.60366   0.24465   0.71786   0.00000  Uiso   1.00
H1651  H     0.59112   0.27133   0.69692   0.00000  Uiso   1.00
H1652  H     0.62783   0.22433   0.70163   0.00000  Uiso   1.00
C1653  C     0.63643   0.26314   0.76097   0.00000  Uiso   1.00
H1654  H     0.65537   0.23861   0.78157   0.00000  Uiso   1.00
H1655  H     0.66661   0.28614   0.75171   0.00000  Uiso   1.00
H1656  H     0.61247   0.27913   0.78195   0.00000  Uiso   1.00
O1657  O     0.42106   0.12801   0.93801   0.00000  Uiso   1.00
C1658  C     0.40194   0.08721   0.94496   0.00000  Uiso   1.00
H1659  H     0.36927   0.08849   0.96413   0.00000  Uiso   1.00
H1660  H     0.43224   0.06804   0.96226   0.00000  Uiso   1.00
C1661  C     0.37883   0.06720   0.89925   0.00000  Uiso   1.00
H1662  H     0.40765   0.06856   0.87568   0.00000  Uiso   1.00
H1663  H     0.36567   0.03428   0.90425   0.00000  Uiso   1.00
H1664  H     0.34517   0.08364   0.88351   0.00000  Uiso   1.00
O1665  O     0.54713   0.23399   0.96312   0.00000  Uiso   1.00
C1666  C     0.59378   0.23301   0.94509   0.00000  Uiso   1.00
H1667  H     0.58462   0.23084   0.90805   0.00000  Uiso   1.00
H1668  H     0.61708   0.20737   0.95881   0.00000  Uiso   1.00
C1669  C     0.62634   0.27454   0.95161   0.00000  Uiso   1.00
H1670  H     0.65167   0.27683   0.98490   0.00000  Uiso   1.00
H1671  H     0.65203   0.27817   0.92523   0.00000  Uiso   1.00
H1672  H     0.60106   0.30035   0.94809   0.00000  Uiso   1.00
O1673  O     0.41681   0.12629   0.69934   0.00000  Uiso   1.00
C1674  C     0.42321   0.08891   0.72377   0.00000  Uiso   1.00
H1675  H     0.41915   0.09566   0.75926   0.00000  Uiso   1.00
H1676  H     0.46018   0.07527   0.72114   0.00000  Uiso   1.00
C1677  C     0.37886   0.05558   0.71038   0.00000  Uiso   1.00
H1678  H     0.38500   0.03667   0.68098   0.00000  Uiso   1.00
H1679  H     0.37669   0.03370   0.73900   0.00000  Uiso   1.00
H1680  H     0.34164   0.06972   0.70315   0.00000  Uiso   1.00
C1681  C     0.83724   0.08710   0.83412   0.00000  Uiso   1.00
C1682  C     0.83106   0.24656   0.83289   0.00000  Uiso   1.00
C1683  C     0.73401   0.16649   0.82148   0.00000  Uiso   1.00
C1684  C     0.93272   0.16704   0.84508   0.00000  Uiso   1.00
C1685  C     0.67927   0.16299   0.81528   0.00000  Uiso   1.00
C1686  C     0.98751   0.17134   0.85071   0.00000  Uiso   1.00
C1687  C     0.85412   0.02234   0.79828   0.00000  Uiso   1.00
C1688  C     0.81997   0.31203   0.87114   0.00000  Uiso   1.00
C1689  C     0.84336   0.31321   0.79436   0.00000  Uiso   1.00
C1690  C     0.83026   0.02109   0.87425   0.00000  Uiso   1.00
C1691  C     0.82963   0.29100   0.83226   0.00000  Uiso   1.00
C1692  C     0.84184   0.04313   0.83584   0.00000  Uiso   1.00
C1693  C     0.86654   0.19405   0.69682   0.00000  Uiso   1.00
C1694  C     0.79636   0.14272   0.96974   0.00000  Uiso   1.00
C1695  C     0.86483   0.19603   0.98101   0.00000  Uiso   1.00
C1696  C     0.79567   0.14258   0.68483   0.00000  Uiso   1.00
N1697  N     0.83332   0.16666   0.95240   0.00000  Uiso   1.00
N1698  N     0.83335   0.16668   0.71427   0.00000  Uiso   1.00
O1699  O     0.83333   0.10558   0.87154   0.00000  Uiso   1.00
O1700  O     0.83334   0.22775   0.79513   0.00000  Uiso   1.00
O1701  O     0.83333   0.10559   0.79510   0.00000  Uiso   1.00
O1702  O     0.83334   0.22774   0.87157   0.00000  Uiso   1.00
O1703  O     0.75725   0.16666   0.86261   0.00000  Uiso   1.00
O1704  O     0.90942   0.16667   0.80405   0.00000  Uiso   1.00
O1705  O     0.75725   0.16667   0.78617   0.00000  Uiso   1.00
O1706  O     0.90942   0.16666   0.88050   0.00000  Uiso   1.00
Zn1707 Zn    0.83333   0.16666   0.88437   0.00000  Uiso   1.00
Zn1708 Zn    0.83333   0.16667   0.78229   0.00000  Uiso   1.00
C1709  C     0.98791   0.14880   0.77004   0.00000  Uiso   1.00
N1710  N     0.96875   0.13810   0.73382   0.00000  Uiso   1.00
C1711  C     0.67967   0.18901   0.89418   0.00000  Uiso   1.00
N1712  N     0.70064   0.20291   0.92856   0.00000  Uiso   1.00
C1713  C     0.88336   0.04303   0.76621   0.00000  Uiso   1.00
N1714  N     0.90722   0.05921   0.74074   0.00000  Uiso   1.00
C1715  C     0.79706   0.29167   0.90746   0.00000  Uiso   1.00
N1716  N     0.77850   0.27567   0.93645   0.00000  Uiso   1.00
O1717  O     0.85128   0.29307   0.75518   0.00000  Uiso   1.00
C1718  C     0.81214   0.30077   0.71845   0.00000  Uiso   1.00
H1719  H     0.82895   0.29926   0.68656   0.00000  Uiso   1.00
H1720  H     0.79768   0.33205   0.71954   0.00000  Uiso   1.00
C1721  C     0.76684   0.26793   0.71578   0.00000  Uiso   1.00
H1722  H     0.73618   0.27539   0.68779   0.00000  Uiso   1.00
H1723  H     0.77930   0.23701   0.70888   0.00000  Uiso   1.00
H1724  H     0.75093   0.26705   0.74823   0.00000  Uiso   1.00
O1725  O     0.83041   0.04099   0.91548   0.00000  Uiso   1.00
C1726  C     0.87955   0.03916   0.94240   0.00000  Uiso   1.00
H1727  H     0.91133   0.03446   0.92235   0.00000  Uiso   1.00
H1728  H     0.87732   0.01350   0.96702   0.00000  Uiso   1.00
C1729  C     0.89452   0.07939   0.96900   0.00000  Uiso   1.00
H1730  H     0.89765   0.10573   0.94552   0.00000  Uiso   1.00
H1731  H     0.93266   0.07771   0.99025   0.00000  Uiso   1.00
H1732  H     0.86552   0.08457   0.99131   0.00000  Uiso   1.00
O1733  O     0.89298   0.22243   0.72920   0.00000  Uiso   1.00
C1734  C     0.93699   0.24465   0.71786   0.00000  Uiso   1.00
H1735  H     0.92445   0.27133   0.69692   0.00000  Uiso   1.00
H1736  H     0.96116   0.22433   0.70163   0.00000  Uiso   1.00
C1737  C     0.96977   0.26314   0.76097   0.00000  Uiso   1.00
H1738  H     0.98870   0.23861   0.78157   0.00000  Uiso   1.00
H1739  H     0.99994   0.28614   0.75171   0.00000  Uiso   1.00
H1740  H     0.94580   0.27913   0.78195   0.00000  Uiso   1.00
O1741  O     0.75439   0.12801   0.93801   0.00000  Uiso   1.00
C1742  C     0.73527   0.08721   0.94496   0.00000  Uiso   1.00
H1743  H     0.70261   0.08849   0.96413   0.00000  Uiso   1.00
H1744  H     0.76558   0.06804   0.96226   0.00000  Uiso   1.00
C1745  C     0.71216   0.06720   0.89925   0.00000  Uiso   1.00
H1746  H     0.74099   0.06856   0.87568   0.00000  Uiso   1.00
H1747  H     0.69901   0.03428   0.90425   0.00000  Uiso   1.00
H1748  H     0.67850   0.08364   0.88351   0.00000  Uiso   1.00
O1749  O     0.88047   0.23399   0.96312   0.00000  Uiso   1.00
C1750  C     0.92712   0.23301   0.94509   0.00000  Uiso   1.00
H1751  H     0.91795   0.23084   0.90805   0.00000  Uiso   1.00
H1752  H     0.95042   0.20737   0.95881   0.00000  Uiso   1.00
C1753  C     0.95967   0.27454   0.95161   0.00000  Uiso   1.00
H1754  H     0.98501   0.27683   0.98490   0.00000  Uiso   1.00
H1755  H     0.98537   0.27817   0.92523   0.00000  Uiso   1.00
H1756  H     0.93439   0.30035   0.94809   0.00000  Uiso   1.00
O1757  O     0.75015   0.12629   0.69934   0.00000  Uiso   1.00
C1758  C     0.75654   0.08891   0.72377   0.00000  Uiso   1.00
H1759  H     0.75248   0.09566   0.75926   0.00000  Uiso   1.00
H1760  H     0.79351   0.07527   0.72114   0.00000  Uiso   1.00
C1761  C     0.71220   0.05558   0.71038   0.00000  Uiso   1.00
H1762  H     0.71833   0.03667   0.68098   0.00000  Uiso   1.00
H1763  H     0.71002   0.03370   0.73900   0.00000  Uiso   1.00
H1764  H     0.67498   0.06972   0.70315   0.00000  Uiso   1.00
C1765  C     0.17057   0.42043   0.83412   0.00000  Uiso   1.00
C1766  C     0.16439   0.57990   0.83289   0.00000  Uiso   1.00
C1767  C     0.06734   0.49982   0.82148   0.00000  Uiso   1.00
C1768  C     0.26606   0.50037   0.84508   0.00000  Uiso   1.00
C1769  C     0.01260   0.49632   0.81528   0.00000  Uiso   1.00
C1770  C     0.32084   0.50468   0.85071   0.00000  Uiso   1.00
C1771  C     0.18746   0.35568   0.79828   0.00000  Uiso   1.00
C1772  C     0.15330   0.64536   0.87114   0.00000  Uiso   1.00
C1773  C     0.17669   0.64655   0.79436   0.00000  Uiso   1.00
C1774  C     0.16359   0.35442   0.87425   0.00000  Uiso   1.00
C1775  C     0.16296   0.62434   0.83226   0.00000  Uiso   1.00
C1776  C     0.17518   0.37646   0.83584   0.00000  Uiso   1.00
C1777  C     0.19987   0.52739   0.69682   0.00000  Uiso   1.00
C1778  C     0.12970   0.47605   0.96974   0.00000  Uiso   1.00
C1779  C     0.19816   0.52936   0.98101   0.00000  Uiso   1.00
C1780  C     0.12901   0.47591   0.68483   0.00000  Uiso   1.00
N1781  N     0.16665   0.49999   0.95240   0.00000  Uiso   1.00
N1782  N     0.16668   0.50001   0.71427   0.00000  Uiso   1.00
O1783  O     0.16666   0.43892   0.87154   0.00000  Uiso   1.00
O1784  O     0.16667   0.56108   0.79513   0.00000  Uiso   1.00
O1785  O     0.16666   0.43893   0.79510   0.00000  Uiso   1.00
O1786  O     0.16667   0.56107   0.87157   0.00000  Uiso   1.00
O1787  O     0.09058   0.50000   0.86261   0.00000  Uiso   1.00
O1788  O     0.24275   0.50000   0.80405   0.00000  Uiso   1.00
O1789  O     0.09058   0.50000   0.78617   0.00000  Uiso   1.00
O1790  O     0.24275   0.50000   0.88050   0.00000  Uiso   1.00
Zn1791 Zn    0.16667   0.49999   0.88437   0.00000  Uiso   1.00
Zn1792 Zn    0.16667   0.50001   0.78229   0.00000  Uiso   1.00
C1793  C     0.32124   0.48213   0.77004   0.00000  Uiso   1.00
N1794  N     0.30208   0.47144   0.73382   0.00000  Uiso   1.00
C1795  C     0.01300   0.52235   0.89418   0.00000  Uiso   1.00
N1796  N     0.03398   0.53625   0.92856   0.00000  Uiso   1.00
C1797  C     0.21670   0.37637   0.76621   0.00000  Uiso   1.00
N1798  N     0.24055   0.39254   0.74074   0.00000  Uiso   1.00
C1799  C     0.13039   0.62500   0.90746   0.00000  Uiso   1.00
N1800  N     0.11183   0.60900   0.93645   0.00000  Uiso   1.00
O1801  O     0.18461   0.62640   0.75518   0.00000  Uiso   1.00
C1802  C     0.14548   0.63410   0.71845   0.00000  Uiso   1.00
H1803  H     0.16228   0.63259   0.68656   0.00000  Uiso   1.00
H1804  H     0.13101   0.66539   0.71954   0.00000  Uiso   1.00
C1805  C     0.10018   0.60126   0.71578   0.00000  Uiso   1.00
H1806  H     0.06951   0.60872   0.68779   0.00000  Uiso   1.00
H1807  H     0.11263   0.57034   0.70888   0.00000  Uiso   1.00
H1808  H     0.08426   0.60038   0.74823   0.00000  Uiso   1.00
O1809  O     0.16375   0.37432   0.91548   0.00000  Uiso   1.00
C1810  C     0.21289   0.37249   0.94240   0.00000  Uiso   1.00
H1811  H     0.24467   0.36779   0.92235   0.00000  Uiso   1.00
H1812  H     0.21065   0.34684   0.96702   0.00000  Uiso   1.00
C1813  C     0.22786   0.41272   0.96900   0.00000  Uiso   1.00
H1814  H     0.23099   0.43906   0.94552   0.00000  Uiso   1.00
H1815  H     0.26600   0.41104   0.99025   0.00000  Uiso   1.00
H1816  H     0.19886   0.41790   0.99131   0.00000  Uiso   1.00
O1817  O     0.22632   0.55576   0.72920   0.00000  Uiso   1.00
C1818  C     0.27033   0.57798   0.71786   0.00000  Uiso   1.00
H1819  H     0.25778   0.60467   0.69692   0.00000  Uiso   1.00
H1820  H     0.29449   0.55766   0.70163   0.00000  Uiso   1.00
C1821  C     0.30310   0.59647   0.76097   0.00000  Uiso   1.00
H1822  H     0.32204   0.57195   0.78157   0.00000  Uiso   1.00
H1823  H     0.33327   0.61947   0.75171   0.00000  Uiso   1.00
H1824  H     0.27913   0.61246   0.78195   0.00000  Uiso   1.00
O1825  O     0.08772   0.46135   0.93801   0.00000  Uiso   1.00
C1826  C     0.06861   0.42054   0.94496   0.00000  Uiso   1.00
H1827  H     0.03594   0.42182   0.96413   0.00000  Uiso   1.00
H1828  H     0.09891   0.40137   0.96226   0.00000  Uiso   1.00
C1829  C     0.04549   0.40053   0.89925   0.00000  Uiso   1.00
H1830  H     0.07432   0.40190   0.87568   0.00000  Uiso   1.00
H1831  H     0.03234   0.36761   0.90425   0.00000  Uiso   1.00
H1832  H     0.01184   0.41697   0.88351   0.00000  Uiso   1.00
O1833  O     0.21380   0.56732   0.96312   0.00000  Uiso   1.00
C1834  C     0.26045   0.56634   0.94509   0.00000  Uiso   1.00
H1835  H     0.25128   0.56417   0.90805   0.00000  Uiso   1.00
H1836  H     0.28375   0.54070   0.95881   0.00000  Uiso   1.00
C1837  C     0.29301   0.60787   0.95161   0.00000  Uiso   1.00
H1838  H     0.31834   0.61017   0.98490   0.00000  Uiso   1.00
H1839  H     0.31870   0.61150   0.92523   0.00000  Uiso   1.00
H1840  H     0.26773   0.63368   0.94809   0.00000  Uiso   1.00
O1841  O     0.08348   0.45962   0.69934   0.00000  Uiso   1.00
C1842  C     0.08988   0.42225   0.72377   0.00000  Uiso   1.00
H1843  H     0.08582   0.42900   0.75926   0.00000  Uiso   1.00
H1844  H     0.12684   0.40860   0.72114   0.00000  Uiso   1.00
C1845  C     0.04553   0.38891   0.71038   0.00000  Uiso   1.00
H1846  H     0.05166   0.37000   0.68098   0.00000  Uiso   1.00
H1847  H     0.04335   0.36703   0.73900   0.00000  Uiso   1.00
H1848  H     0.00831   0.40305   0.70315   0.00000  Uiso   1.00
C1849  C     0.50391   0.42043   0.83412   0.00000  Uiso   1.00
C1850  C     0.49773   0.57990   0.83289   0.00000  Uiso   1.00
C1851  C     0.40068   0.49982   0.82148   0.00000  Uiso   1.00
C1852  C     0.59939   0.50037   0.84508   0.00000  Uiso   1.00
C1853  C     0.34593   0.49632   0.81528   0.00000  Uiso   1.00
C1854  C     0.65418   0.50468   0.85071   0.00000  Uiso   1.00
C1855  C     0.52079   0.35568   0.79828   0.00000  Uiso   1.00
C1856  C     0.48664   0.64536   0.87114   0.00000  Uiso   1.00
C1857  C     0.51002   0.64655   0.79436   0.00000  Uiso   1.00
C1858  C     0.49692   0.35442   0.87425   0.00000  Uiso   1.00
C1859  C     0.49630   0.62434   0.83226   0.00000  Uiso   1.00
C1860  C     0.50851   0.37646   0.83584   0.00000  Uiso   1.00
C1861  C     0.53320   0.52739   0.69682   0.00000  Uiso   1.00
C1862  C     0.46303   0.47605   0.96974   0.00000  Uiso   1.00
C1863  C     0.53149   0.52936   0.98101   0.00000  Uiso   1.00
C1864  C     0.46234   0.47591   0.68483   0.00000  Uiso   1.00
N1865  N     0.49999   0.49999   0.95240   0.00000  Uiso   1.00
N1866  N     0.50001   0.50001   0.71427   0.00000  Uiso   1.00
O1867  O     0.50000   0.43892   0.87154   0.00000  Uiso   1.00
O1868  O     0.50000   0.56108   0.79513   0.00000  Uiso   1.00
O1869  O     0.50000   0.43893   0.79510   0.00000  Uiso   1.00
O1870  O     0.50000   0.56107   0.87157   0.00000  Uiso   1.00
O1871  O     0.42392   0.50000   0.86261   0.00000  Uiso   1.00
O1872  O     0.57608   0.50000   0.80405   0.00000  Uiso   1.00
O1873  O     0.42392   0.50000   0.78617   0.00000  Uiso   1.00
O1874  O     0.57608   0.50000   0.88050   0.00000  Uiso   1.00
Zn1875 Zn    0.50000   0.49999   0.88437   0.00000  Uiso   1.00
Zn1876 Zn    0.50000   0.50001   0.78229   0.00000  Uiso   1.00
C1877  C     0.65457   0.48213   0.77004   0.00000  Uiso   1.00
N1878  N     0.63541   0.47144   0.73382   0.00000  Uiso   1.00
C1879  C     0.34634   0.52235   0.89418   0.00000  Uiso   1.00
N1880  N     0.36731   0.53625   0.92856   0.00000  Uiso   1.00
C1881  C     0.55003   0.37637   0.76621   0.00000  Uiso   1.00
N1882  N     0.57389   0.39254   0.74074   0.00000  Uiso   1.00
C1883  C     0.46373   0.62500   0.90746   0.00000  Uiso   1.00
N1884  N     0.44517   0.60900   0.93645   0.00000  Uiso   1.00
O1885  O     0.51794   0.62640   0.75518   0.00000  Uiso   1.00
C1886  C     0.47881   0.63410   0.71845   0.00000  Uiso   1.00
H1887  H     0.49562   0.63259   0.68656   0.00000  Uiso   1.00
H1888  H     0.46435   0.66539   0.71954   0.00000  Uiso   1.00
C1889  C     0.43351   0.60126   0.71578   0.00000  Uiso   1.00
H1890  H     0.40285   0.60872   0.68779   0.00000  Uiso   1.00
H1891  H     0.44597   0.57034   0.70888   0.00000  Uiso   1.00
H1892  H     0.41760   0.60038   0.74823   0.00000  Uiso   1.00
O1893  O     0.49708   0.37432   0.91548   0.00000  Uiso   1.00
C1894  C     0.54622   0.37249   0.94240   0.00000  Uiso   1.00
H1895  H     0.57800   0.36779   0.92235   0.00000  Uiso   1.00
H1896  H     0.54399   0.34684   0.96702   0.00000  Uiso   1.00
C1897  C     0.56119   0.41272   0.96900   0.00000  Uiso   1.00
H1898  H     0.56432   0.43906   0.94552   0.00000  Uiso   1.00
H1899  H     0.59933   0.41104   0.99025   0.00000  Uiso   1.00
H1900  H     0.53219   0.41790   0.99131   0.00000  Uiso   1.00
O1901  O     0.55965   0.55576   0.72920   0.00000  Uiso   1.00
C1902  C     0.60366   0.57798   0.71786   0.00000  Uiso   1.00
H1903  H     0.59112   0.60467   0.69692   0.00000  Uiso   1.00
H1904  H     0.62783   0.55766   0.70163   0.00000  Uiso   1.00
C1905  C     0.63643   0.59647   0.76097   0.00000  Uiso   1.00
H1906  H     0.65537   0.57195   0.78157   0.00000  Uiso   1.00
H1907  H     0.66661   0.61947   0.75171   0.00000  Uiso   1.00
H1908  H     0.61247   0.61246   0.78195   0.00000  Uiso   1.00
O1909  O     0.42106   0.46135   0.93801   0.00000  Uiso   1.00
C1910  C     0.40194   0.42054   0.94496   0.00000  Uiso   1.00
H1911  H     0.36927   0.42182   0.96413   0.00000  Uiso   1.00
H1912  H     0.43224   0.40137   0.96226   0.00000  Uiso   1.00
C1913  C     0.37883   0.40053   0.89925   0.00000  Uiso   1.00
H1914  H     0.40765   0.40190   0.87568   0.00000  Uiso   1.00
H1915  H     0.36567   0.36761   0.90425   0.00000  Uiso   1.00
H1916  H     0.34517   0.41697   0.88351   0.00000  Uiso   1.00
O1917  O     0.54713   0.56732   0.96312   0.00000  Uiso   1.00
C1918  C     0.59378   0.56634   0.94509   0.00000  Uiso   1.00
H1919  H     0.58462   0.56417   0.90805   0.00000  Uiso   1.00
H1920  H     0.61708   0.54070   0.95881   0.00000  Uiso   1.00
C1921  C     0.62634   0.60787   0.95161   0.00000  Uiso   1.00
H1922  H     0.65167   0.61017   0.98490   0.00000  Uiso   1.00
H1923  H     0.65203   0.61150   0.92523   0.00000  Uiso   1.00
H1924  H     0.60106   0.63368   0.94809   0.00000  Uiso   1.00
O1925  O     0.41681   0.45962   0.69934   0.00000  Uiso   1.00
C1926  C     0.42321   0.42225   0.72377   0.00000  Uiso   1.00
H1927  H     0.41915   0.42900   0.75926   0.00000  Uiso   1.00
H1928  H     0.46018   0.40860   0.72114   0.00000  Uiso   1.00
C1929  C     0.37886   0.38891   0.71038   0.00000  Uiso   1.00
H1930  H     0.38500   0.37000   0.68098   0.00000  Uiso   1.00
H1931  H     0.37669   0.36703   0.73900   0.00000  Uiso   1.00
H1932  H     0.34164   0.40305   0.70315   0.00000  Uiso   1.00
C1933  C     0.83724   0.42043   0.83412   0.00000  Uiso   1.00
C1934  C     0.83106   0.57990   0.83289   0.00000  Uiso   1.00
C1935  C     0.73401   0.49982   0.82148   0.00000  Uiso   1.00
C1936  C     0.93272   0.50037   0.84508   0.00000  Uiso   1.00
C1937  C     0.67927   0.49632   0.81528   0.00000  Uiso   1.00
C1938  C     0.98751   0.50468   0.85071   0.00000  Uiso   1.00
C1939  C     0.85412   0.35568   0.79828   0.00000  Uiso   1.00
C1940  C     0.81997   0.64536   0.87114   0.00000  Uiso   1.00
C1941  C     0.84336   0.64655   0.79436   0.00000  Uiso   1.00
C1942  C     0.83026   0.35442   0.87425   0.00000  Uiso   1.00
C1943  C     0.82963   0.62434   0.83226   0.00000  Uiso   1.00
C1944  C     0.84184   0.37646   0.83584   0.00000  Uiso   1.00
C1945  C     0.86654   0.52739   0.69682   0.00000  Uiso   1.00
C1946  C     0.79636   0.47605   0.96974   0.00000  Uiso   1.00
C1947  C     0.86483   0.52936   0.98101   0.00000  Uiso   1.00
C1948  C     0.79567   0.47591   0.68483   0.00000  Uiso   1.00
N1949  N     0.83332   0.49999   0.95240   0.00000  Uiso   1.00
N1950  N     0.83335   0.50001   0.71427   0.00000  Uiso   1.00
O1951  O     0.83333   0.43892   0.87154   0.00000  Uiso   1.00
O1952  O     0.83334   0.56108   0.79513   0.00000  Uiso   1.00
O1953  O     0.83333   0.43893   0.79510   0.00000  Uiso   1.00
O1954  O     0.83334   0.56107   0.87157   0.00000  Uiso   1.00
O1955  O     0.75725   0.50000   0.86261   0.00000  Uiso   1.00
O1956  O     0.90942   0.50000   0.80405   0.00000  Uiso   1.00
O1957  O     0.75725   0.50000   0.78617   0.00000  Uiso   1.00
O1958  O     0.90942   0.50000   0.88050   0.00000  Uiso   1.00
Zn1959 Zn    0.83333   0.49999   0.88437   0.00000  Uiso   1.00
Zn1960 Zn    0.83333   0.50001   0.78229   0.00000  Uiso   1.00
C1961  C     0.98791   0.48213   0.77004   0.00000  Uiso   1.00
N1962  N     0.96875   0.47144   0.73382   0.00000  Uiso   1.00
C1963  C     0.67967   0.52235   0.89418   0.00000  Uiso   1.00
N1964  N     0.70064   0.53625   0.92856   0.00000  Uiso   1.00
C1965  C     0.88336   0.37637   0.76621   0.00000  Uiso   1.00
N1966  N     0.90722   0.39254   0.74074   0.00000  Uiso   1.00
C1967  C     0.79706   0.62500   0.90746   0.00000  Uiso   1.00
N1968  N     0.77850   0.60900   0.93645   0.00000  Uiso   1.00
O1969  O     0.85128   0.62640   0.75518   0.00000  Uiso   1.00
C1970  C     0.81214   0.63410   0.71845   0.00000  Uiso   1.00
H1971  H     0.82895   0.63259   0.68656   0.00000  Uiso   1.00
H1972  H     0.79768   0.66539   0.71954   0.00000  Uiso   1.00
C1973  C     0.76684   0.60126   0.71578   0.00000  Uiso   1.00
H1974  H     0.73618   0.60872   0.68779   0.00000  Uiso   1.00
H1975  H     0.77930   0.57034   0.70888   0.00000  Uiso   1.00
H1976  H     0.75093   0.60038   0.74823   0.00000  Uiso   1.00
O1977  O     0.83041   0.37432   0.91548   0.00000  Uiso   1.00
C1978  C     0.87955   0.37249   0.94240   0.00000  Uiso   1.00
H1979  H     0.91133   0.36779   0.92235   0.00000  Uiso   1.00
H1980  H     0.87732   0.34684   0.96702   0.00000  Uiso   1.00
C1981  C     0.89452   0.41272   0.96900   0.00000  Uiso   1.00
H1982  H     0.89765   0.43906   0.94552   0.00000  Uiso   1.00
H1983  H     0.93266   0.41104   0.99025   0.00000  Uiso   1.00
H1984  H     0.86552   0.41790   0.99131   0.00000  Uiso   1.00
O1985  O     0.89298   0.55576   0.72920   0.00000  Uiso   1.00
C1986  C     0.93699   0.57798   0.71786   0.00000  Uiso   1.00
H1987  H     0.92445   0.60467   0.69692   0.00000  Uiso   1.00
H1988  H     0.96116   0.55766   0.70163   0.00000  Uiso   1.00
C1989  C     0.96977   0.59647   0.76097   0.00000  Uiso   1.00
H1990  H     0.98870   0.57195   0.78157   0.00000  Uiso   1.00
H1991  H     0.99994   0.61947   0.75171   0.00000  Uiso   1.00
H1992  H     0.94580   0.61246   0.78195   0.00000  Uiso   1.00
O1993  O     0.75439   0.46135   0.93801   0.00000  Uiso   1.00
C1994  C     0.73527   0.42054   0.94496   0.00000  Uiso   1.00
H1995  H     0.70261   0.42182   0.96413   0.00000  Uiso   1.00
H1996  H     0.76558   0.40137   0.96226   0.00000  Uiso   1.00
C1997  C     0.71216   0.40053   0.89925   0.00000  Uiso   1.00
H1998  H     0.74099   0.40190   0.87568   0.00000  Uiso   1.00
H1999  H     0.69901   0.36761   0.90425   0.00000  Uiso   1.00
H2000  H     0.67850   0.41697   0.88351   0.00000  Uiso   1.00
O2001  O     0.88047   0.56732   0.96312   0.00000  Uiso   1.00
C2002  C     0.92712   0.56634   0.94509   0.00000  Uiso   1.00
H2003  H     0.91795   0.56417   0.90805   0.00000  Uiso   1.00
H2004  H     0.95042   0.54070   0.95881   0.00000  Uiso   1.00
C2005  C     0.95967   0.60787   0.95161   0.00000  Uiso   1.00
H2006  H     0.98501   0.61017   0.98490   0.00000  Uiso   1.00
H2007  H     0.98537   0.61150   0.92523   0.00000  Uiso   1.00
H2008  H     0.93439   0.63368   0.94809   0.00000  Uiso   1.00
O2009  O     0.75015   0.45962   0.69934   0.00000  Uiso   1.00
C2010  C     0.75654   0.42225   0.72377   0.00000  Uiso   1.00
H2011  H     0.75248   0.42900   0.75926   0.00000  Uiso   1.00
H2012  H     0.79351   0.40860   0.72114   0.00000  Uiso   1.00
C2013  C     0.71220   0.38891   0.71038   0.00000  Uiso   1.00
H2014  H     0.71833   0.37000   0.68098   0.00000  Uiso   1.00
H2015  H     0.71002   0.36703   0.73900   0.00000  Uiso   1.00
H2016  H     0.67498   0.40305   0.70315   0.00000  Uiso   1.00
C2017  C     0.17057   0.75377   0.83412   0.00000  Uiso   1.00
C2018  C     0.16439   0.91323   0.83289   0.00000  Uiso   1.00
C2019  C     0.06734   0.83315   0.82148   0.00000  Uiso   1.00
C2020  C     0.26606   0.83370   0.84508   0.00000  Uiso   1.00
C2021  C     0.01260   0.82965   0.81528   0.00000  Uiso   1.00
C2022  C     0.32084   0.83801   0.85071   0.00000  Uiso   1.00
C2023  C     0.18746   0.68901   0.79828   0.00000  Uiso   1.00
C2024  C     0.15330   0.97870   0.87114   0.00000  Uiso   1.00
C2025  C     0.17669   0.97988   0.79436   0.00000  Uiso   1.00
C2026  C     0.16359   0.68775   0.87425   0.00000  Uiso   1.00
C2027  C     0.16296   0.95767   0.83226   0.00000  Uiso   1.00
C2028  C     0.17518   0.70979   0.83584   0.00000  Uiso   1.00
C2029  C     0.19987   0.86072   0.69682   0.00000  Uiso   1.00
C2030  C     0.12970   0.80938   0.96974   0.00000  Uiso   1.00
C2031  C     0.19816   0.86270   0.98101   0.00000  Uiso   1.00
C2032  C     0.12901   0.80924   0.68483   0.00000  Uiso   1.00
N2033  N     0.16665   0.83332   0.95240   0.00000  Uiso   1.00
N2034  N     0.16668   0.83334   0.71427   0.00000  Uiso   1.00
O2035  O     0.16666   0.77225   0.87154   0.00000  Uiso   1.00
O2036  O     0.16667   0.89442   0.79513   0.00000  Uiso   1.00
O2037  O     0.16666   0.77226   0.79510   0.00000  Uiso   1.00
O2038  O     0.16667   0.89441   0.87157   0.00000  Uiso   1.00
O2039  O     0.09058   0.83333   0.86261   0.00000  Uiso   1.00
O2040  O     0.24275   0.83334   0.80405   0.00000  Uiso   1.00
O2041  O     0.09058   0.83334   0.78617   0.00000  Uiso   1.00
O2042  O     0.24275   0.83333   0.88050   0.00000  Uiso   1.00
Zn2043 Zn    0.16667   0.83333   0.88437   0.00000  Uiso   1.00
Zn2044 Zn    0.16667   0.83334   0.78229   0.00000  Uiso   1.00
C2045  C     0.32124   0.81546   0.77004   0.00000  Uiso   1.00
N2046  N     0.30208   0.80477   0.73382   0.00000  Uiso   1.00
C2047  C     0.01300   0.85568   0.89418   0.00000  Uiso   1.00
N2048  N     0.03398   0.86958   0.92856   0.00000  Uiso   1.00
C2049  C     0.21670   0.70970   0.76621   0.00000  Uiso   1.00
N2050  N     0.24055   0.72588   0.74074   0.00000  Uiso   1.00
C2051  C     0.13039   0.95834   0.90746   0.00000  Uiso   1.00
N2052  N     0.11183   0.94233   0.93645   0.00000  Uiso   1.00
O2053  O     0.18461   0.95974   0.75518   0.00000  Uiso   1.00
C2054  C     0.14548   0.96744   0.71845   0.00000  Uiso   1.00
H2055  H     0.16228   0.96592   0.68656   0.00000  Uiso   1.00
H2056  H     0.13101   0.99872   0.71954   0.00000  Uiso   1.00
C2057  C     0.10018   0.93460   0.71578   0.00000  Uiso   1.00
H2058  H     0.06951   0.94206   0.68779   0.00000  Uiso   1.00
H2059  H     0.11263   0.90367   0.70888   0.00000  Uiso   1.00
H2060  H     0.08426   0.93371   0.74823   0.00000  Uiso   1.00
O2061  O     0.16375   0.70765   0.91548   0.00000  Uiso   1.00
C2062  C     0.21289   0.70582   0.94240   0.00000  Uiso   1.00
H2063  H     0.24467   0.70112   0.92235   0.00000  Uiso   1.00
H2064  H     0.21065   0.68017   0.96702   0.00000  Uiso   1.00
C2065  C     0.22786   0.74605   0.96900   0.00000  Uiso   1.00
H2066  H     0.23099   0.77240   0.94552   0.00000  Uiso   1.00
H2067  H     0.26600   0.74438   0.99025   0.00000  Uiso   1.00
H2068  H     0.19886   0.75123   0.99131   0.00000  Uiso   1.00
O2069  O     0.22632   0.88910   0.72920   0.00000  Uiso   1.00
C2070  C     0.27033   0.91131   0.71786   0.00000  Uiso   1.00
H2071  H     0.25778   0.93800   0.69692   0.00000  Uiso   1.00
H2072  H     0.29449   0.89099   0.70163   0.00000  Uiso   1.00
C2073  C     0.30310   0.92980   0.76097   0.00000  Uiso   1.00
H2074  H     0.32204   0.90528   0.78157   0.00000  Uiso   1.00
H2075  H     0.33327   0.95280   0.75171   0.00000  Uiso   1.00
H2076  H     0.27913   0.94579   0.78195   0.00000  Uiso   1.00
O2077  O     0.08772   0.79468   0.93801   0.00000  Uiso   1.00
C2078  C     0.06861   0.75388   0.94496   0.00000  Uiso   1.00
H2079  H     0.03594   0.75516   0.96413   0.00000  Uiso   1.00
H2080  H     0.09891   0.73470   0.96226   0.00000  Uiso   1.00
C2081  C     0.04549   0.73386   0.89925   0.00000  Uiso   1.00
H2082  H     0.07432   0.73523   0.87568   0.00000  Uiso   1.00
H2083  H     0.03234   0.70095   0.90425   0.00000  Uiso   1.00
H2084  H     0.01184   0.75030   0.88351   0.00000  Uiso   1.00
O2085  O     0.21380   0.90066   0.96312   0.00000  Uiso   1.00
C2086  C     0.26045   0.89967   0.94509   0.00000  Uiso   1.00
H2087  H     0.25128   0.89751   0.90805   0.00000  Uiso   1.00
H2088  H     0.28375   0.87403   0.95881   0.00000  Uiso   1.00
C2089  C     0.29301   0.94120   0.95161   0.00000  Uiso   1.00
H2090  H     0.31834   0.94350   0.98490   0.00000  Uiso   1.00
H2091  H     0.31870   0.94483   0.92523   0.00000  Uiso   1.00
H2092  H     0.26773   0.96702   0.94809   0.00000  Uiso   1.00
O2093  O     0.08348   0.79296   0.69934   0.00000  Uiso   1.00
C2094  C     0.08988   0.75558   0.72377   0.00000  Uiso   1.00
H2095  H     0.08582   0.76233   0.75926   0.00000  Uiso   1.00
H2096  H     0.12684   0.74193   0.72114   0.00000  Uiso   1.00
C2097  C     0.04553   0.72224   0.71038   0.00000  Uiso   1.00
H2098  H     0.05166   0.70334   0.68098   0.00000  Uiso   1.00
H2099  H     0.04335   0.70037   0.73900   0.00000  Uiso   1.00
H2100  H     0.00831   0.73638   0.70315   0.00000  Uiso   1.00
C2101  C     0.50391   0.75377   0.83412   0.00000  Uiso   1.00
C2102  C     0.49773   0.91323   0.83289   0.00000  Uiso   1.00
C2103  C     0.40068   0.83315   0.82148   0.00000  Uiso   1.00
C2104  C     0.59939   0.83370   0.84508   0.00000  Uiso   1.00
C2105  C     0.34593   0.82965   0.81528   0.00000  Uiso   1.00
C2106  C     0.65418   0.83801   0.85071   0.00000  Uiso   1.00
C2107  C     0.52079   0.68901   0.79828   0.00000  Uiso   1.00
C2108  C     0.48664   0.97870   0.87114   0.00000  Uiso   1.00
C2109  C     0.51002   0.97988   0.79436   0.00000  Uiso   1.00
C2110  C     0.49692   0.68775   0.87425   0.00000  Uiso   1.00
C2111  C     0.49630   0.95767   0.83226   0.00000  Uiso   1.00
C2112  C     0.50851   0.70979   0.83584   0.00000  Uiso   1.00
C2113  C     0.53320   0.86072   0.69682   0.00000  Uiso   1.00
C2114  C     0.46303   0.80938   0.96974   0.00000  Uiso   1.00
C2115  C     0.53149   0.86270   0.98101   0.00000  Uiso   1.00
C2116  C     0.46234   0.80924   0.68483   0.00000  Uiso   1.00
N2117  N     0.49999   0.83332   0.95240   0.00000  Uiso   1.00
N2118  N     0.50001   0.83334   0.71427   0.00000  Uiso   1.00
O2119  O     0.50000   0.77225   0.87154   0.00000  Uiso   1.00
O2120  O     0.50000   0.89442   0.79513   0.00000  Uiso   1.00
O2121  O     0.50000   0.77226   0.79510   0.00000  Uiso   1.00
O2122  O     0.50000   0.89441   0.87157   0.00000  Uiso   1.00
O2123  O     0.42392   0.83333   0.86261   0.00000  Uiso   1.00
O2124  O     0.57608   0.83334   0.80405   0.00000  Uiso   1.00
O2125  O     0.42392   0.83334   0.78617   0.00000  Uiso   1.00
O2126  O     0.57608   0.83333   0.88050   0.00000  Uiso   1.00
Zn2127 Zn    0.50000   0.83333   0.88437   0.00000  Uiso   1.00
Zn2128 Zn    0.50000   0.83334   0.78229   0.00000  Uiso   1.00
C2129  C     0.65457   0.81546   0.77004   0.00000  Uiso   1.00
N2130  N     0.63541   0.80477   0.73382   0.00000  Uiso   1.00
C2131  C     0.34634   0.85568   0.89418   0.00000  Uiso   1.00
N2132  N     0.36731   0.86958   0.92856   0.00000  Uiso   1.00
C2133  C     0.55003   0.70970   0.76621   0.00000  Uiso   1.00
N2134  N     0.57389   0.72588   0.74074   0.00000  Uiso   1.00
C2135  C     0.46373   0.95834   0.90746   0.00000  Uiso   1.00
N2136  N     0.44517   0.94233   0.93645   0.00000  Uiso   1.00
O2137  O     0.51794   0.95974   0.75518   0.00000  Uiso   1.00
C2138  C     0.47881   0.96744   0.71845   0.00000  Uiso   1.00
H2139  H     0.49562   0.96592   0.68656   0.00000  Uiso   1.00
H2140  H     0.46435   0.99872   0.71954   0.00000  Uiso   1.00
C2141  C     0.43351   0.93460   0.71578   0.00000  Uiso   1.00
H2142  H     0.40285   0.94206   0.68779   0.00000  Uiso   1.00
H2143  H     0.44597   0.90367   0.70888   0.00000  Uiso   1.00
H2144  H     0.41760   0.93371   0.74823   0.00000  Uiso   1.00
O2145  O     0.49708   0.70765   0.91548   0.00000  Uiso   1.00
C2146  C     0.54622   0.70582   0.94240   0.00000  Uiso   1.00
H2147  H     0.57800   0.70112   0.92235   0.00000  Uiso   1.00
H2148  H     0.54399   0.68017   0.96702   0.00000  Uiso   1.00
C2149  C     0.56119   0.74605   0.96900   0.00000  Uiso   1.00
H2150  H     0.56432   0.77240   0.94552   0.00000  Uiso   1.00
H2151  H     0.59933   0.74438   0.99025   0.00000  Uiso   1.00
H2152  H     0.53219   0.75123   0.99131   0.00000  Uiso   1.00
O2153  O     0.55965   0.88910   0.72920   0.00000  Uiso   1.00
C2154  C     0.60366   0.91131   0.71786   0.00000  Uiso   1.00
H2155  H     0.59112   0.93800   0.69692   0.00000  Uiso   1.00
H2156  H     0.62783   0.89099   0.70163   0.00000  Uiso   1.00
C2157  C     0.63643   0.92980   0.76097   0.00000  Uiso   1.00
H2158  H     0.65537   0.90528   0.78157   0.00000  Uiso   1.00
H2159  H     0.66661   0.95280   0.75171   0.00000  Uiso   1.00
H2160  H     0.61247   0.94579   0.78195   0.00000  Uiso   1.00
O2161  O     0.42106   0.79468   0.93801   0.00000  Uiso   1.00
C2162  C     0.40194   0.75388   0.94496   0.00000  Uiso   1.00
H2163  H     0.36927   0.75516   0.96413   0.00000  Uiso   1.00
H2164  H     0.43224   0.73470   0.96226   0.00000  Uiso   1.00
C2165  C     0.37883   0.73386   0.89925   0.00000  Uiso   1.00
H2166  H     0.40765   0.73523   0.87568   0.00000  Uiso   1.00
H2167  H     0.36567   0.70095   0.90425   0.00000  Uiso   1.00
H2168  H     0.34517   0.75030   0.88351   0.00000  Uiso   1.00
O2169  O     0.54713   0.90066   0.96312   0.00000  Uiso   1.00
C2170  C     0.59378   0.89967   0.94509   0.00000  Uiso   1.00
H2171  H     0.58462   0.89751   0.90805   0.00000  Uiso   1.00
H2172  H     0.61708   0.87403   0.95881   0.00000  Uiso   1.00
C2173  C     0.62634   0.94120   0.95161   0.00000  Uiso   1.00
H2174  H     0.65167   0.94350   0.98490   0.00000  Uiso   1.00
H2175  H     0.65203   0.94483   0.92523   0.00000  Uiso   1.00
H2176  H     0.60106   0.96702   0.94809   0.00000  Uiso   1.00
O2177  O     0.41681   0.79296   0.69934   0.00000  Uiso   1.00
C2178  C     0.42321   0.75558   0.72377   0.00000  Uiso   1.00
H2179  H     0.41915   0.76233   0.75926   0.00000  Uiso   1.00
H2180  H     0.46018   0.74193   0.72114   0.00000  Uiso   1.00
C2181  C     0.37886   0.72224   0.71038   0.00000  Uiso   1.00
H2182  H     0.38500   0.70334   0.68098   0.00000  Uiso   1.00
H2183  H     0.37669   0.70037   0.73900   0.00000  Uiso   1.00
H2184  H     0.34164   0.73638   0.70315   0.00000  Uiso   1.00
C2185  C     0.83724   0.75377   0.83412   0.00000  Uiso   1.00
C2186  C     0.83106   0.91323   0.83289   0.00000  Uiso   1.00
C2187  C     0.73401   0.83315   0.82148   0.00000  Uiso   1.00
C2188  C     0.93272   0.83370   0.84508   0.00000  Uiso   1.00
C2189  C     0.67927   0.82965   0.81528   0.00000  Uiso   1.00
C2190  C     0.98751   0.83801   0.85071   0.00000  Uiso   1.00
C2191  C     0.85412   0.68901   0.79828   0.00000  Uiso   1.00
C2192  C     0.81997   0.97870   0.87114   0.00000  Uiso   1.00
C2193  C     0.84336   0.97988   0.79436   0.00000  Uiso   1.00
C2194  C     0.83026   0.68775   0.87425   0.00000  Uiso   1.00
C2195  C     0.82963   0.95767   0.83226   0.00000  Uiso   1.00
C2196  C     0.84184   0.70979   0.83584   0.00000  Uiso   1.00
C2197  C     0.86654   0.86072   0.69682   0.00000  Uiso   1.00
C2198  C     0.79636   0.80938   0.96974   0.00000  Uiso   1.00
C2199  C     0.86483   0.86270   0.98101   0.00000  Uiso   1.00
C2200  C     0.79567   0.80924   0.68483   0.00000  Uiso   1.00
N2201  N     0.83332   0.83332   0.95240   0.00000  Uiso   1.00
N2202  N     0.83335   0.83334   0.71427   0.00000  Uiso   1.00
O2203  O     0.83333   0.77225   0.87154   0.00000  Uiso   1.00
O2204  O     0.83334   0.89442   0.79513   0.00000  Uiso   1.00
O2205  O     0.83333   0.77226   0.79510   0.00000  Uiso   1.00
O2206  O     0.83334   0.89441   0.87157   0.00000  Uiso   1.00
O2207  O     0.75725   0.83333   0.86261   0.00000  Uiso   1.00
O2208  O     0.90942   0.83334   0.80405   0.00000  Uiso   1.00
O2209  O     0.75725   0.83334   0.78617   0.00000  Uiso   1.00
O2210  O     0.90942   0.83333   0.88050   0.00000  Uiso   1.00
Zn2211 Zn    0.83333   0.83333   0.88437   0.00000  Uiso   1.00
Zn2212 Zn    0.83333   0.83334   0.78229   0.00000  Uiso   1.00
C2213  C     0.98791   0.81546   0.77004   0.00000  Uiso   1.00
N2214  N     0.96875   0.80477   0.73382   0.00000  Uiso   1.00
C2215  C     0.67967   0.85568   0.89418   0.00000  Uiso   1.00
N2216  N     0.70064   0.86958   0.92856   0.00000  Uiso   1.00
C2217  C     0.88336   0.70970   0.76621   0.00000  Uiso   1.00
N2218  N     0.90722   0.72588   0.74074   0.00000  Uiso   1.00
C2219  C     0.79706   0.95834   0.90746   0.00000  Uiso   1.00
N2220  N     0.77850   0.94233   0.93645   0.00000  Uiso   1.00
O2221  O     0.85128   0.95974   0.75518   0.00000  Uiso   1.00
C2222  C     0.81214   0.96744   0.71845   0.00000  Uiso   1.00
H2223  H     0.82895   0.96592   0.68656   0.00000  Uiso   1.00
H2224  H     0.79768   0.99872   0.71954   0.00000  Uiso   1.00
C2225  C     0.76684   0.93460   0.71578   0.00000  Uiso   1.00
H2226  H     0.73618   0.94206   0.68779   0.00000  Uiso   1.00
H2227  H     0.77930   0.90367   0.70888   0.00000  Uiso   1.00
H2228  H     0.75093   0.93371   0.74823   0.00000  Uiso   1.00
O2229  O     0.83041   0.70765   0.91548   0.00000  Uiso   1.00
C2230  C     0.87955   0.70582   0.94240   0.00000  Uiso   1.00
H2231  H     0.91133   0.70112   0.92235   0.00000  Uiso   1.00
H2232  H     0.87732   0.68017   0.96702   0.00000  Uiso   1.00
C2233  C     0.89452   0.74605   0.96900   0.00000  Uiso   1.00
H2234  H     0.89765   0.77240   0.94552   0.00000  Uiso   1.00
H2235  H     0.93266   0.74438   0.99025   0.00000  Uiso   1.00
H2236  H     0.86552   0.75123   0.99131   0.00000  Uiso   1.00
O2237  O     0.89298   0.88910   0.72920   0.00000  Uiso   1.00
C2238  C     0.93699   0.91131   0.71786   0.00000  Uiso   1.00
H2239  H     0.92445   0.93800   0.69692   0.00000  Uiso   1.00
H2240  H     0.96116   0.89099   0.70163   0.00000  Uiso   1.00
C2241  C     0.96977   0.92980   0.76097   0.00000  Uiso   1.00
H2242  H     0.98870   0.90528   0.78157   0.00000  Uiso   1.00
H2243  H     0.99994   0.95280   0.75171   0.00000  Uiso   1.00
H2244  H     0.94580   0.94579   0.78195   0.00000  Uiso   1.00
O2245  O     0.75439   0.79468   0.93801   0.00000  Uiso   1.00
C2246  C     0.73527   0.75388   0.94496   0.00000  Uiso   1.00
H2247  H     0.70261   0.75516   0.96413   0.00000  Uiso   1.00
H2248  H     0.76558   0.73470   0.96226   0.00000  Uiso   1.00
C2249  C     0.71216   0.73386   0.89925   0.00000  Uiso   1.00
H2250  H     0.74099   0.73523   0.87568   0.00000  Uiso   1.00
H2251  H     0.69901   0.70095   0.90425   0.00000  Uiso   1.00
H2252  H     0.67850   0.75030   0.88351   0.00000  Uiso   1.00
O2253  O     0.88047   0.90066   0.96312   0.00000  Uiso   1.00
C2254  C     0.92712   0.89967   0.94509   0.00000  Uiso   1.00
H2255  H     0.91795   0.89751   0.90805   0.00000  Uiso   1.00
H2256  H     0.95042   0.87403   0.95881   0.00000  Uiso   1.00
C2257  C     0.95967   0.94120   0.95161   0.00000  Uiso   1.00
H2258  H     0.98501   0.94350   0.98490   0.00000  Uiso   1.00
H2259  H     0.98537   0.94483   0.92523   0.00000  Uiso   1.00
H2260  H     0.93439   0.96702   0.94809   0.00000  Uiso   1.00
O2261  O     0.75015   0.79296   0.69934   0.00000  Uiso   1.00
C2262  C     0.75654   0.75558   0.72377   0.00000  Uiso   1.00
H2263  H     0.75248   0.76233   0.75926   0.00000  Uiso   1.00
H2264  H     0.79351   0.74193   0.72114   0.00000  Uiso   1.00
C2265  C     0.71220   0.72224   0.71038   0.00000  Uiso   1.00
H2266  H     0.71833   0.70334   0.68098   0.00000  Uiso   1.00
H2267  H     0.71002   0.70037   0.73900   0.00000  Uiso   1.00
H2268  H     0.67498   0.73638   0.70315   0.00000  Uiso   1.00
loop_
_geom_bond_atom_site_label_1
_geom_bond_atom_site_label_2
_geom_bond_distance
_geom_bond_site_symmetry_2
_ccdc_geom_bond_type
C1     O21     1.299   .     A
C1     C12     1.439   .     S
C1     O19     1.286   .     A
C2     O22     1.297   .     A
C2     C11     1.443   .     S
C2     O20     1.290   .     A
C3     O23     1.280   .     A
C3     O25     1.293   .     A
C3     C5      1.418   .     S
C4     O24     1.278   .     A
C4     C6      1.420   .     S
C4     O26     1.297   .     A
C5     C174    1.365   1_455 S
C5     C197    1.458   1_455 S
C6     C89     1.365   .     S
C6     C115    1.456   .     S
C7     C33     1.446   .     S
C7     C12     1.397   .     A
C7     C513    1.383   1_545 S
C8     C35     1.448   .     S
C8     C11     1.409   .     A
C8     C262    1.378   .     S
C9     O37     1.387   .     S
C9     C11     1.414   .     A
C9     C259    1.383   .     S
C10    O45     1.385   .     S
C10    C12     1.406   .     A
C10    C512    1.378   1_545 S
C13    N18     1.353   .     A
C13    O53     1.395   .     S
C13    C1527   1.456   1_554 S
C14    N17     1.357   .     A
C14    O61     1.389   .     S
C14    C772    1.443   .     S
C15    N17     1.404   .     A
C15    O69     1.395   .     S
C15    C769    1.456   .     S
C16    O77     1.398   .     S
C16    N18     1.402   .     A
C16    C1526   1.443   1_554 S
N17    Zn27    2.023   .     S
N18    Zn28    2.023   .     S
O19    Zn27    2.015   .     S
O20    Zn28    2.015   .     S
O21    Zn28    2.014   .     S
O22    Zn27    2.014   .     S
O23    Zn27    2.006   .     S
O24    Zn28    2.006   .     S
O25    Zn28    2.022   .     S
O26    Zn27    2.022   .     S
C29    N30     1.157   .     T
C29    C89     1.458   .     S
C31    N32     1.157   .     T
C31    C174    1.456   1_455 S
C33    N34     1.155   .     T
C35    N36     1.156   .     T
O37    C38     1.417   .     S
C38    C41     1.524   .     S
C38    H40     1.113   .     S
C38    H39     1.109   .     S
C41    H42     1.107   .     S
C41    H43     1.108   .     S
C41    H44     1.109   .     S
O45    C46     1.417   .     S
C46    C49     1.517   .     S
C46    H47     1.119   .     S
C46    H48     1.111   .     S
C49    H51     1.105   .     S
C49    H52     1.108   .     S
C49    H50     1.108   .     S
O53    C54     1.398   .     S
C54    H56     1.111   .     S
C54    H55     1.107   .     S
C54    C57     1.524   .     S
C57    H59     1.109   .     S
C57    H60     1.109   .     S
C57    H58     1.106   .     S
O61    C62     1.402   .     S
C62    H64     1.113   .     S
C62    H63     1.105   .     S
C62    C65     1.523   .     S
C65    H67     1.111   .     S
C65    H68     1.111   .     S
C65    H66     1.107   .     S
O69    C70     1.415   .     S
C70    H71     1.091   .     S
C70    C73     1.530   .     S
C70    H72     1.112   .     S
C73    H74     1.104   .     S
C73    H75     1.112   .     S
C73    H76     1.105   .     S
O77    C78     1.420   .     S
C78    H80     1.114   .     S
C78    H79     1.101   .     S
C78    C81     1.529   .     S
C81    H82     1.107   .     S
C81    H83     1.112   .     S
C81    H84     1.105   .     S
C85    O105    1.299   .     A
C85    C96     1.439   .     S
C85    O103    1.286   .     A
C86    O106    1.297   .     A
C86    C95     1.443   .     S
C86    O104    1.290   .     A
C87    O107    1.280   .     A
C87    O109    1.293   .     A
C87    C89     1.418   .     S
C88    O108    1.278   .     A
C88    C90     1.420   .     S
C88    O110    1.297   .     A
C90    C173    1.365   .     S
C90    C199    1.456   .     S
C91    C117    1.446   .     S
C91    C96     1.397   .     A
C91    C597    1.383   1_545 S
C92    C119    1.448   .     S
C92    C95     1.409   .     A
C92    C346    1.378   .     S
C93    O121    1.387   .     S
C93    C95     1.414   .     A
C93    C343    1.383   .     S
C94    O129    1.385   .     S
C94    C96     1.406   .     A
C94    C596    1.378   1_545 S
C97    N102    1.353   .     A
C97    O137    1.395   .     S
C97    C1611   1.456   1_554 S
C98    N101    1.357   .     A
C98    O145    1.389   .     S
C98    C856    1.443   .     S
C99    N101    1.404   .     A
C99    O153    1.395   .     S
C99    C853    1.456   .     S
C100   O161    1.398   .     S
C100   N102    1.402   .     A
C100   C1610   1.443   1_554 S
N101   Zn111   2.023   .     S
N102   Zn112   2.023   .     S
O103   Zn111   2.015   .     S
O104   Zn112   2.015   .     S
O105   Zn112   2.014   .     S
O106   Zn111   2.014   .     S
O107   Zn111   2.006   .     S
O108   Zn112   2.006   .     S
O109   Zn112   2.022   .     S
O110   Zn111   2.022   .     S
C113   N114    1.157   .     T
C113   C173    1.458   .     S
C115   N116    1.157   .     T
C117   N118    1.155   .     T
C119   N120    1.156   .     T
O121   C122    1.417   .     S
C122   C125    1.524   .     S
C122   H124    1.113   .     S
C122   H123    1.109   .     S
C125   H126    1.107   .     S
C125   H127    1.108   .     S
C125   H128    1.109   .     S
O129   C130    1.417   .     S
C130   C133    1.517   .     S
C130   H131    1.119   .     S
C130   H132    1.111   .     S
C133   H135    1.105   .     S
C133   H136    1.108   .     S
C133   H134    1.108   .     S
O137   C138    1.398   .     S
C138   H140    1.111   .     S
C138   H139    1.107   .     S
C138   C141    1.524   .     S
C141   H143    1.109   .     S
C141   H144    1.109   .     S
C141   H142    1.106   .     S
O145   C146    1.402   .     S
C146   H148    1.113   .     S
C146   H147    1.105   .     S
C146   C149    1.523   .     S
C149   H151    1.111   .     S
C149   H152    1.111   .     S
C149   H150    1.107   .     S
O153   C154    1.415   .     S
C154   H155    1.091   .     S
C154   C157    1.530   .     S
C154   H156    1.112   .     S
C157   H158    1.104   .     S
C157   H159    1.112   .     S
C157   H160    1.105   .     S
O161   C162    1.420   .     S
C162   H164    1.114   .     S
C162   H163    1.101   .     S
C162   C165    1.529   .     S
C165   H166    1.107   .     S
C165   H167    1.112   .     S
C165   H168    1.105   .     S
C169   O189    1.299   .     A
C169   C180    1.439   .     S
C169   O187    1.286   .     A
C170   O190    1.297   .     A
C170   C179    1.443   .     S
C170   O188    1.290   .     A
C171   O191    1.280   .     A
C171   O193    1.293   .     A
C171   C173    1.418   .     S
C172   O192    1.278   .     A
C172   C174    1.420   .     S
C172   O194    1.297   .     A
C174   C5      1.365   1_655 S
C174   C31     1.456   1_655 S
C175   C201    1.446   .     S
C175   C180    1.397   .     A
C175   C681    1.383   1_545 S
C176   C203    1.448   .     S
C176   C179    1.409   .     A
C176   C430    1.378   .     S
C177   O205    1.387   .     S
C177   C179    1.414   .     A
C177   C427    1.383   .     S
C178   O213    1.385   .     S
C178   C180    1.406   .     A
C178   C680    1.378   1_545 S
C181   N186    1.353   .     A
C181   O221    1.395   .     S
C181   C1695   1.456   1_554 S
C182   N185    1.357   .     A
C182   O229    1.389   .     S
C182   C940    1.443   .     S
C183   N185    1.404   .     A
C183   O237    1.395   .     S
C183   C937    1.456   .     S
C184   O245    1.398   .     S
C184   N186    1.402   .     A
C184   C1694   1.443   1_554 S
N185   Zn195   2.023   .     S
N186   Zn196   2.023   .     S
O187   Zn195   2.015   .     S
O188   Zn196   2.015   .     S
O189   Zn196   2.014   .     S
O190   Zn195   2.014   .     S
O191   Zn195   2.006   .     S
O192   Zn196   2.006   .     S
O193   Zn196   2.022   .     S
O194   Zn195   2.022   .     S
C197   N198    1.157   .     T
C197   C5      1.458   1_655 S
C199   N200    1.157   .     T
C201   N202    1.155   .     T
C203   N204    1.156   .     T
O205   C206    1.417   .     S
C206   C209    1.524   .     S
C206   H208    1.113   .     S
C206   H207    1.109   .     S
C209   H210    1.107   .     S
C209   H211    1.108   .     S
C209   H212    1.109   .     S
O213   C214    1.417   .     S
C214   C217    1.517   .     S
C214   H215    1.119   .     S
C214   H216    1.111   .     S
C217   H219    1.105   .     S
C217   H220    1.108   .     S
C217   H218    1.108   .     S
O221   C222    1.398   .     S
C222   H224    1.111   .     S
C222   H223    1.107   .     S
C222   C225    1.524   .     S
C225   H227    1.109   .     S
C225   H228    1.109   .     S
C225   H226    1.106   .     S
O229   C230    1.402   .     S
C230   H232    1.113   .     S
C230   H231    1.105   .     S
C230   C233    1.523   .     S
C233   H235    1.111   .     S
C233   H236    1.111   .     S
C233   H234    1.107   .     S
O237   C238    1.415   .     S
C238   H239    1.091   .     S
C238   C241    1.530   .     S
C238   H240    1.112   .     S
C241   H242    1.104   .     S
C241   H243    1.112   .     S
C241   H244    1.105   .     S
O245   C246    1.420   .     S
C246   H248    1.114   .     S
C246   H247    1.101   .     S
C246   C249    1.529   .     S
C249   H250    1.107   .     S
C249   H251    1.112   .     S
C249   H252    1.105   .     S
C253   O273    1.299   .     A
C253   C264    1.439   .     S
C253   O271    1.286   .     A
C254   O274    1.297   .     A
C254   C263    1.443   .     S
C254   O272    1.290   .     A
C255   O275    1.280   .     A
C255   O277    1.293   .     A
C255   C257    1.418   .     S
C256   O276    1.278   .     A
C256   C258    1.420   .     S
C256   O278    1.297   .     A
C257   C426    1.365   1_455 S
C257   C449    1.458   1_455 S
C258   C341    1.365   .     S
C258   C367    1.456   .     S
C259   C285    1.446   .     S
C259   C264    1.397   .     A
C260   C287    1.448   .     S
C260   C263    1.409   .     A
C260   C514    1.378   .     S
C261   O289    1.387   .     S
C261   C263    1.414   .     A
C261   C511    1.383   .     S
C262   O297    1.385   .     S
C262   C264    1.406   .     A
C265   N270    1.353   .     A
C265   O305    1.395   .     S
C265   C1779   1.456   1_554 S
C266   N269    1.357   .     A
C266   O313    1.389   .     S
C266   C1024   1.443   .     S
C267   N269    1.404   .     A
C267   O321    1.395   .     S
C267   C1021   1.456   .     S
C268   O329    1.398   .     S
C268   N270    1.402   .     A
C268   C1778   1.443   1_554 S
N269   Zn279   2.023   .     S
N270   Zn280   2.023   .     S
O271   Zn279   2.015   .     S
O272   Zn280   2.015   .     S
O273   Zn280   2.014   .     S
O274   Zn279   2.014   .     S
O275   Zn279   2.006   .     S
O276   Zn280   2.006   .     S
O277   Zn280   2.022   .     S
O278   Zn279   2.022   .     S
C281   N282    1.157   .     T
C281   C341    1.458   .     S
C283   N284    1.157   .     T
C283   C426    1.456   1_455 S
C285   N286    1.155   .     T
C287   N288    1.156   .     T
O289   C290    1.417   .     S
C290   C293    1.524   .     S
C290   H292    1.113   .     S
C290   H291    1.109   .     S
C293   H294    1.107   .     S
C293   H295    1.108   .     S
C293   H296    1.109   .     S
O297   C298    1.417   .     S
C298   C301    1.517   .     S
C298   H299    1.119   .     S
C298   H300    1.111   .     S
C301   H303    1.105   .     S
C301   H304    1.108   .     S
C301   H302    1.108   .     S
O305   C306    1.398   .     S
C306   H308    1.111   .     S
C306   H307    1.107   .     S
C306   C309    1.524   .     S
C309   H311    1.109   .     S
C309   H312    1.109   .     S
C309   H310    1.106   .     S
O313   C314    1.402   .     S
C314   H316    1.113   .     S
C314   H315    1.105   .     S
C314   C317    1.523   .     S
C317   H319    1.111   .     S
C317   H320    1.111   .     S
C317   H318    1.107   .     S
O321   C322    1.415   .     S
C322   H323    1.091   .     S
C322   C325    1.530   .     S
C322   H324    1.112   .     S
C325   H326    1.104   .     S
C325   H327    1.112   .     S
C325   H328    1.105   .     S
O329   C330    1.420   .     S
C330   H332    1.114   .     S
C330   H331    1.101   .     S
C330   C333    1.529   .     S
C333   H334    1.107   .     S
C333   H335    1.112   .     S
C333   H336    1.105   .     S
C337   O357    1.299   .     A
C337   C348    1.439   .     S
C337   O355    1.286   .     A
C338   O358    1.297   .     A
C338   C347    1.443   .     S
C338   O356    1.290   .     A
C339   O359    1.280   .     A
C339   O361    1.293   .     A
C339   C341    1.418   .     S
C340   O360    1.278   .     A
C340   C342    1.420   .     S
C340   O362    1.297   .     A
C342   C425    1.365   .     S
C342   C451    1.456   .     S
C343   C369    1.446   .     S
C343   C348    1.397   .     A
C344   C371    1.448   .     S
C344   C347    1.409   .     A
C344   C598    1.378   .     S
C345   O373    1.387   .     S
C345   C347    1.414   .     A
C345   C595    1.383   .     S
C346   O381    1.385   .     S
C346   C348    1.406   .     A
C349   N354    1.353   .     A
C349   O389    1.395   .     S
C349   C1863   1.456   1_554 S
C350   N353    1.357   .     A
C350   O397    1.389   .     S
C350   C1108   1.443   .     S
C351   N353    1.404   .     A
C351   O405    1.395   .     S
C351   C1105   1.456   .     S
C352   O413    1.398   .     S
C352   N354    1.402   .     A
C352   C1862   1.443   1_554 S
N353   Zn363   2.023   .     S
N354   Zn364   2.023   .     S
O355   Zn363   2.015   .     S
O356   Zn364   2.015   .     S
O357   Zn364   2.014   .     S
O358   Zn363   2.014   .     S
O359   Zn363   2.006   .     S
O360   Zn364   2.006   .     S
O361   Zn364   2.022   .     S
O362   Zn363   2.022   .     S
C365   N366    1.157   .     T
C365   C425    1.458   .     S
C367   N368    1.157   .     T
C369   N370    1.155   .     T
C371   N372    1.156   .     T
O373   C374    1.417   .     S
C374   C377    1.524   .     S
C374   H376    1.113   .     S
C374   H375    1.109   .     S
C377   H378    1.107   .     S
C377   H379    1.108   .     S
C377   H380    1.109   .     S
O381   C382    1.417   .     S
C382   C385    1.517   .     S
C382   H383    1.119   .     S
C382   H384    1.111   .     S
C385   H387    1.105   .     S
C385   H388    1.108   .     S
C385   H386    1.108   .     S
O389   C390    1.398   .     S
C390   H392    1.111   .     S
C390   H391    1.107   .     S
C390   C393    1.524   .     S
C393   H395    1.109   .     S
C393   H396    1.109   .     S
C393   H394    1.106   .     S
O397   C398    1.402   .     S
C398   H400    1.113   .     S
C398   H399    1.105   .     S
C398   C401    1.523   .     S
C401   H403    1.111   .     S
C401   H404    1.111   .     S
C401   H402    1.107   .     S
O405   C406    1.415   .     S
C406   H407    1.091   .     S
C406   C409    1.530   .     S
C406   H408    1.112   .     S
C409   H410    1.104   .     S
C409   H411    1.112   .     S
C409   H412    1.105   .     S
O413   C414    1.420   .     S
C414   H416    1.114   .     S
C414   H415    1.101   .     S
C414   C417    1.529   .     S
C417   H418    1.107   .     S
C417   H419    1.112   .     S
C417   H420    1.105   .     S
C421   O441    1.299   .     A
C421   C432    1.439   .     S
C421   O439    1.286   .     A
C422   O442    1.297   .     A
C422   C431    1.443   .     S
C422   O440    1.290   .     A
C423   O443    1.280   .     A
C423   O445    1.293   .     A
C423   C425    1.418   .     S
C424   O444    1.278   .     A
C424   C426    1.420   .     S
C424   O446    1.297   .     A
C426   C257    1.365   1_655 S
C426   C283    1.456   1_655 S
C427   C453    1.446   .     S
C427   C432    1.397   .     A
C428   C455    1.448   .     S
C428   C431    1.409   .     A
C428   C682    1.378   .     S
C429   O457    1.387   .     S
C429   C431    1.414   .     A
C429   C679    1.383   .     S
C430   O465    1.385   .     S
C430   C432    1.406   .     A
C433   N438    1.353   .     A
C433   O473    1.395   .     S
C433   C1947   1.456   1_554 S
C434   N437    1.357   .     A
C434   O481    1.389   .     S
C434   C1192   1.443   .     S
C435   N437    1.404   .     A
C435   O489    1.395   .     S
C435   C1189   1.456   .     S
C436   O497    1.398   .     S
C436   N438    1.402   .     A
C436   C1946   1.443   1_554 S
N437   Zn447   2.023   .     S
N438   Zn448   2.023   .     S
O439   Zn447   2.015   .     S
O440   Zn448   2.015   .     S
O441   Zn448   2.014   .     S
O442   Zn447   2.014   .     S
O443   Zn447   2.006   .     S
O444   Zn448   2.006   .     S
O445   Zn448   2.022   .     S
O446   Zn447   2.022   .     S
C449   N450    1.157   .     T
C449   C257    1.458   1_655 S
C451   N452    1.157   .     T
C453   N454    1.155   .     T
C455   N456    1.156   .     T
O457   C458    1.417   .     S
C458   C461    1.524   .     S
C458   H460    1.113   .     S
C458   H459    1.109   .     S
C461   H462    1.107   .     S
C461   H463    1.108   .     S
C461   H464    1.109   .     S
O465   C466    1.417   .     S
C466   C469    1.517   .     S
C466   H467    1.119   .     S
C466   H468    1.111   .     S
C469   H471    1.105   .     S
C469   H472    1.108   .     S
C469   H470    1.108   .     S
O473   C474    1.398   .     S
C474   H476    1.111   .     S
C474   H475    1.107   .     S
C474   C477    1.524   .     S
C477   H479    1.109   .     S
C477   H480    1.109   .     S
C477   H478    1.106   .     S
O481   C482    1.402   .     S
C482   H484    1.113   .     S
C482   H483    1.105   .     S
C482   C485    1.523   .     S
C485   H487    1.111   .     S
C485   H488    1.111   .     S
C485   H486    1.107   .     S
O489   C490    1.415   .     S
C490   H491    1.091   .     S
C490   C493    1.530   .     S
C490   H492    1.112   .     S
C493   H494    1.104   .     S
C493   H495    1.112   .     S
C493   H496    1.105   .     S
O497   C498    1.420   .     S
C498   H500    1.114   .     S
C498   H499    1.101   .     S
C498   C501    1.529   .     S
C501   H502    1.107   .     S
C501   H503    1.112   .     S
C501   H504    1.105   .     S
C505   O525    1.299   .     A
C505   C516    1.439   .     S
C505   O523    1.286   .     A
C506   O526    1.297   .     A
C506   C515    1.443   .     S
C506   O524    1.290   .     A
C507   O527    1.280   .     A
C507   O529    1.293   .     A
C507   C509    1.418   .     S
C508   O528    1.278   .     A
C508   C510    1.420   .     S
C508   O530    1.297   .     A
C509   C678    1.365   1_455 S
C509   C701    1.458   1_455 S
C510   C593    1.365   .     S
C510   C619    1.456   .     S
C511   C537    1.446   .     S
C511   C516    1.397   .     A
C512   C539    1.448   .     S
C512   C515    1.409   .     A
C512   C10     1.378   1_565 S
C513   O541    1.387   .     S
C513   C515    1.414   .     A
C513   C7      1.383   1_565 S
C514   O549    1.385   .     S
C514   C516    1.406   .     A
C517   N522    1.353   .     A
C517   O557    1.395   .     S
C517   C2031   1.456   1_554 S
C518   N521    1.357   .     A
C518   O565    1.389   .     S
C518   C1276   1.443   .     S
C519   N521    1.404   .     A
C519   O573    1.395   .     S
C519   C1273   1.456   .     S
C520   O581    1.398   .     S
C520   N522    1.402   .     A
C520   C2030   1.443   1_554 S
N521   Zn531   2.023   .     S
N522   Zn532   2.023   .     S
O523   Zn531   2.015   .     S
O524   Zn532   2.015   .     S
O525   Zn532   2.014   .     S
O526   Zn531   2.014   .     S
O527   Zn531   2.006   .     S
O528   Zn532   2.006   .     S
O529   Zn532   2.022   .     S
O530   Zn531   2.022   .     S
C533   N534    1.157   .     T
C533   C593    1.458   .     S
C535   N536    1.157   .     T
C535   C678    1.456   1_455 S
C537   N538    1.155   .     T
C539   N540    1.156   .     T
O541   C542    1.417   .     S
C542   C545    1.524   .     S
C542   H544    1.113   .     S
C542   H543    1.109   .     S
C545   H546    1.107   .     S
C545   H547    1.108   .     S
C545   H548    1.109   .     S
O549   C550    1.417   .     S
C550   C553    1.517   .     S
C550   H551    1.119   .     S
C550   H552    1.111   .     S
C553   H555    1.105   .     S
C553   H556    1.108   .     S
C553   H554    1.108   .     S
O557   C558    1.398   .     S
C558   H560    1.111   .     S
C558   H559    1.107   .     S
C558   C561    1.524   .     S
C561   H563    1.109   .     S
C561   H564    1.109   .     S
C561   H562    1.106   .     S
O565   C566    1.402   .     S
C566   H568    1.113   .     S
C566   H567    1.105   .     S
C566   C569    1.523   .     S
C569   H571    1.111   .     S
C569   H572    1.111   .     S
C569   H570    1.107   .     S
O573   C574    1.415   .     S
C574   H575    1.091   .     S
C574   C577    1.530   .     S
C574   H576    1.112   .     S
C577   H578    1.104   .     S
C577   H579    1.112   .     S
C577   H580    1.105   .     S
O581   C582    1.420   .     S
C582   H584    1.114   .     S
C582   H583    1.101   .     S
C582   C585    1.529   .     S
C585   H586    1.107   .     S
C585   H587    1.112   .     S
C585   H588    1.105   .     S
C589   O609    1.299   .     A
C589   C600    1.439   .     S
C589   O607    1.286   .     A
C590   O610    1.297   .     A
C590   C599    1.443   .     S
C590   O608    1.290   .     A
C591   O611    1.280   .     A
C591   O613    1.293   .     A
C591   C593    1.418   .     S
C592   O612    1.278   .     A
C592   C594    1.420   .     S
C592   O614    1.297   .     A
C594   C677    1.365   .     S
C594   C703    1.456   .     S
C595   C621    1.446   .     S
C595   C600    1.397   .     A
C596   C623    1.448   .     S
C596   C599    1.409   .     A
C596   C94     1.378   1_565 S
C597   O625    1.387   .     S
C597   C599    1.414   .     A
C597   C91     1.383   1_565 S
C598   O633    1.385   .     S
C598   C600    1.406   .     A
C601   N606    1.353   .     A
C601   O641    1.395   .     S
C601   C2115   1.456   1_554 S
C602   N605    1.357   .     A
C602   O649    1.389   .     S
C602   C1360   1.443   .     S
C603   N605    1.404   .     A
C603   O657    1.395   .     S
C603   C1357   1.456   .     S
C604   O665    1.398   .     S
C604   N606    1.402   .     A
C604   C2114   1.443   1_554 S
N605   Zn615   2.023   .     S
N606   Zn616   2.023   .     S
O607   Zn615   2.015   .     S
O608   Zn616   2.015   .     S
O609   Zn616   2.014   .     S
O610   Zn615   2.014   .     S
O611   Zn615   2.006   .     S
O612   Zn616   2.006   .     S
O613   Zn616   2.022   .     S
O614   Zn615   2.022   .     S
C617   N618    1.157   .     T
C617   C677    1.458   .     S
C619   N620    1.157   .     T
C621   N622    1.155   .     T
C623   N624    1.156   .     T
O625   C626    1.417   .     S
C626   C629    1.524   .     S
C626   H628    1.113   .     S
C626   H627    1.109   .     S
C629   H630    1.107   .     S
C629   H631    1.108   .     S
C629   H632    1.109   .     S
O633   C634    1.417   .     S
C634   C637    1.517   .     S
C634   H635    1.119   .     S
C634   H636    1.111   .     S
C637   H639    1.105   .     S
C637   H640    1.108   .     S
C637   H638    1.108   .     S
O641   C642    1.398   .     S
C642   H644    1.111   .     S
C642   H643    1.107   .     S
C642   C645    1.524   .     S
C645   H647    1.109   .     S
C645   H648    1.109   .     S
C645   H646    1.106   .     S
O649   C650    1.402   .     S
C650   H652    1.113   .     S
C650   H651    1.105   .     S
C650   C653    1.523   .     S
C653   H655    1.111   .     S
C653   H656    1.111   .     S
C653   H654    1.107   .     S
O657   C658    1.415   .     S
C658   H659    1.091   .     S
C658   C661    1.530   .     S
C658   H660    1.112   .     S
C661   H662    1.104   .     S
C661   H663    1.112   .     S
C661   H664    1.105   .     S
O665   C666    1.420   .     S
C666   H668    1.114   .     S
C666   H667    1.101   .     S
C666   C669    1.529   .     S
C669   H670    1.107   .     S
C669   H671    1.112   .     S
C669   H672    1.105   .     S
C673   O693    1.299   .     A
C673   C684    1.439   .     S
C673   O691    1.286   .     A
C674   O694    1.297   .     A
C674   C683    1.443   .     S
C674   O692    1.290   .     A
C675   O695    1.280   .     A
C675   O697    1.293   .     A
C675   C677    1.418   .     S
C676   O696    1.278   .     A
C676   C678    1.420   .     S
C676   O698    1.297   .     A
C678   C509    1.365   1_655 S
C678   C535    1.456   1_655 S
C679   C705    1.446   .     S
C679   C684    1.397   .     A
C680   C707    1.448   .     S
C680   C683    1.409   .     A
C680   C178    1.378   1_565 S
C681   O709    1.387   .     S
C681   C683    1.414   .     A
C681   C175    1.383   1_565 S
C682   O717    1.385   .     S
C682   C684    1.406   .     A
C685   N690    1.353   .     A
C685   O725    1.395   .     S
C685   C2199   1.456   1_554 S
C686   N689    1.357   .     A
C686   O733    1.389   .     S
C686   C1444   1.443   .     S
C687   N689    1.404   .     A
C687   O741    1.395   .     S
C687   C1441   1.456   .     S
C688   O749    1.398   .     S
C688   N690    1.402   .     A
C688   C2198   1.443   1_554 S
N689   Zn699   2.023   .     S
N690   Zn700   2.023   .     S
O691   Zn699   2.015   .     S
O692   Zn700   2.015   .     S
O693   Zn700   2.014   .     S
O694   Zn699   2.014   .     S
O695   Zn699   2.006   .     S
O696   Zn700   2.006   .     S
O697   Zn700   2.022   .     S
O698   Zn699   2.022   .     S
C701   N702    1.157   .     T
C701   C509    1.458   1_655 S
C703   N704    1.157   .     T
C705   N706    1.155   .     T
C707   N708    1.156   .     T
O709   C710    1.417   .     S
C710   C713    1.524   .     S
C710   H712    1.113   .     S
C710   H711    1.109   .     S
C713   H714    1.107   .     S
C713   H715    1.108   .     S
C713   H716    1.109   .     S
O717   C718    1.417   .     S
C718   C721    1.517   .     S
C718   H719    1.119   .     S
C718   H720    1.111   .     S
C721   H723    1.105   .     S
C721   H724    1.108   .     S
C721   H722    1.108   .     S
O725   C726    1.398   .     S
C726   H728    1.111   .     S
C726   H727    1.107   .     S
C726   C729    1.524   .     S
C729   H731    1.109   .     S
C729   H732    1.109   .     S
C729   H730    1.106   .     S
O733   C734    1.402   .     S
C734   H736    1.113   .     S
C734   H735    1.105   .     S
C734   C737    1.523   .     S
C737   H739    1.111   .     S
C737   H740    1.111   .     S
C737   H738    1.107   .     S
O741   C742    1.415   .     S
C742   H743    1.091   .     S
C742   C745    1.530   .     S
C742   H744    1.112   .     S
C745   H746    1.104   .     S
C745   H747    1.112   .     S
C745   H748    1.105   .     S
O749   C750    1.420   .     S
C750   H752    1.114   .     S
C750   H751    1.101   .     S
C750   C753    1.529   .     S
C753   H754    1.107   .     S
C753   H755    1.112   .     S
C753   H756    1.105   .     S
C757   O777    1.299   .     A
C757   C768    1.439   .     S
C757   O775    1.286   .     A
C758   O778    1.297   .     A
C758   C767    1.443   .     S
C758   O776    1.290   .     A
C759   O779    1.280   .     A
C759   O781    1.293   .     A
C759   C761    1.418   .     S
C760   O780    1.278   .     A
C760   C762    1.420   .     S
C760   O782    1.297   .     A
C761   C930    1.365   1_455 S
C761   C953    1.458   1_455 S
C762   C845    1.365   .     S
C762   C871    1.456   .     S
C763   C789    1.446   .     S
C763   C768    1.397   .     A
C763   C1269   1.383   1_545 S
C764   C791    1.448   .     S
C764   C767    1.409   .     A
C764   C1018   1.378   .     S
C765   O793    1.387   .     S
C765   C767    1.414   .     A
C765   C1015   1.383   .     S
C766   O801    1.385   .     S
C766   C768    1.406   .     A
C766   C1268   1.378   1_545 S
C769   N774    1.353   .     A
C769   O809    1.395   .     S
C770   N773    1.357   .     A
C770   O817    1.389   .     S
C770   C1528   1.443   .     S
C771   N773    1.404   .     A
C771   O825    1.395   .     S
C771   C1525   1.456   .     S
C772   O833    1.398   .     S
C772   N774    1.402   .     A
N773   Zn783   2.023   .     S
N774   Zn784   2.023   .     S
O775   Zn783   2.015   .     S
O776   Zn784   2.015   .     S
O777   Zn784   2.014   .     S
O778   Zn783   2.014   .     S
O779   Zn783   2.006   .     S
O780   Zn784   2.006   .     S
O781   Zn784   2.022   .     S
O782   Zn783   2.022   .     S
C785   N786    1.157   .     T
C785   C845    1.458   .     S
C787   N788    1.157   .     T
C787   C930    1.456   1_455 S
C789   N790    1.155   .     T
C791   N792    1.156   .     T
O793   C794    1.417   .     S
C794   C797    1.524   .     S
C794   H796    1.113   .     S
C794   H795    1.109   .     S
C797   H798    1.107   .     S
C797   H799    1.108   .     S
C797   H800    1.109   .     S
O801   C802    1.417   .     S
C802   C805    1.517   .     S
C802   H803    1.119   .     S
C802   H804    1.111   .     S
C805   H807    1.105   .     S
C805   H808    1.108   .     S
C805   H806    1.108   .     S
O809   C810    1.398   .     S
C810   H812    1.111   .     S
C810   H811    1.107   .     S
C810   C813    1.524   .     S
C813   H815    1.109   .     S
C813   H816    1.109   .     S
C813   H814    1.106   .     S
O817   C818    1.402   .     S
C818   H820    1.113   .     S
C818   H819    1.105   .     S
C818   C821    1.523   .     S
C821   H823    1.111   .     S
C821   H824    1.111   .     S
C821   H822    1.107   .     S
O825   C826    1.415   .     S
C826   H827    1.091   .     S
C826   C829    1.530   .     S
C826   H828    1.112   .     S
C829   H830    1.104   .     S
C829   H831    1.112   .     S
C829   H832    1.105   .     S
O833   C834    1.420   .     S
C834   H836    1.114   .     S
C834   H835    1.101   .     S
C834   C837    1.529   .     S
C837   H838    1.107   .     S
C837   H839    1.112   .     S
C837   H840    1.105   .     S
C841   O861    1.299   .     A
C841   C852    1.439   .     S
C841   O859    1.286   .     A
C842   O862    1.297   .     A
C842   C851    1.443   .     S
C842   O860    1.290   .     A
C843   O863    1.280   .     A
C843   O865    1.293   .     A
C843   C845    1.418   .     S
C844   O864    1.278   .     A
C844   C846    1.420   .     S
C844   O866    1.297   .     A
C846   C929    1.365   .     S
C846   C955    1.456   .     S
C847   C873    1.446   .     S
C847   C852    1.397   .     A
C847   C1353   1.383   1_545 S
C848   C875    1.448   .     S
C848   C851    1.409   .     A
C848   C1102   1.378   .     S
C849   O877    1.387   .     S
C849   C851    1.414   .     A
C849   C1099   1.383   .     S
C850   O885    1.385   .     S
C850   C852    1.406   .     A
C850   C1352   1.378   1_545 S
C853   N858    1.353   .     A
C853   O893    1.395   .     S
C854   N857    1.357   .     A
C854   O901    1.389   .     S
C854   C1612   1.443   .     S
C855   N857    1.404   .     A
C855   O909    1.395   .     S
C855   C1609   1.456   .     S
C856   O917    1.398   .     S
C856   N858    1.402   .     A
N857   Zn867   2.023   .     S
N858   Zn868   2.023   .     S
O859   Zn867   2.015   .     S
O860   Zn868   2.015   .     S
O861   Zn868   2.014   .     S
O862   Zn867   2.014   .     S
O863   Zn867   2.006   .     S
O864   Zn868   2.006   .     S
O865   Zn868   2.022   .     S
O866   Zn867   2.022   .     S
C869   N870    1.157   .     T
C869   C929    1.458   .     S
C871   N872    1.157   .     T
C873   N874    1.155   .     T
C875   N876    1.156   .     T
O877   C878    1.417   .     S
C878   C881    1.524   .     S
C878   H880    1.113   .     S
C878   H879    1.109   .     S
C881   H882    1.107   .     S
C881   H883    1.108   .     S
C881   H884    1.109   .     S
O885   C886    1.417   .     S
C886   C889    1.517   .     S
C886   H887    1.119   .     S
C886   H888    1.111   .     S
C889   H891    1.105   .     S
C889   H892    1.108   .     S
C889   H890    1.108   .     S
O893   C894    1.398   .     S
C894   H896    1.111   .     S
C894   H895    1.107   .     S
C894   C897    1.524   .     S
C897   H899    1.109   .     S
C897   H900    1.109   .     S
C897   H898    1.106   .     S
O901   C902    1.402   .     S
C902   H904    1.113   .     S
C902   H903    1.105   .     S
C902   C905    1.523   .     S
C905   H907    1.111   .     S
C905   H908    1.111   .     S
C905   H906    1.107   .     S
O909   C910    1.415   .     S
C910   H911    1.091   .     S
C910   C913    1.530   .     S
C910   H912    1.112   .     S
C913   H914    1.104   .     S
C913   H915    1.112   .     S
C913   H916    1.105   .     S
O917   C918    1.420   .     S
C918   H920    1.114   .     S
C918   H919    1.101   .     S
C918   C921    1.529   .     S
C921   H922    1.107   .     S
C921   H923    1.112   .     S
C921   H924    1.105   .     S
C925   O945    1.299   .     A
C925   C936    1.439   .     S
C925   O943    1.286   .     A
C926   O946    1.297   .     A
C926   C935    1.443   .     S
C926   O944    1.290   .     A
C927   O947    1.280   .     A
C927   O949    1.293   .     A
C927   C929    1.418   .     S
C928   O948    1.278   .     A
C928   C930    1.420   .     S
C928   O950    1.297   .     A
C930   C761    1.365   1_655 S
C930   C787    1.456   1_655 S
C931   C957    1.446   .     S
C931   C936    1.397   .     A
C931   C1437   1.383   1_545 S
C932   C959    1.448   .     S
C932   C935    1.409   .     A
C932   C1186   1.378   .     S
C933   O961    1.387   .     S
C933   C935    1.414   .     A
C933   C1183   1.383   .     S
C934   O969    1.385   .     S
C934   C936    1.406   .     A
C934   C1436   1.378   1_545 S
C937   N942    1.353   .     A
C937   O977    1.395   .     S
C938   N941    1.357   .     A
C938   O985    1.389   .     S
C938   C1696   1.443   .     S
C939   N941    1.404   .     A
C939   O993    1.395   .     S
C939   C1693   1.456   .     S
C940   O1001   1.398   .     S
C940   N942    1.402   .     A
N941   Zn951   2.023   .     S
N942   Zn952   2.023   .     S
O943   Zn951   2.015   .     S
O944   Zn952   2.015   .     S
O945   Zn952   2.014   .     S
O946   Zn951   2.014   .     S
O947   Zn951   2.006   .     S
O948   Zn952   2.006   .     S
O949   Zn952   2.022   .     S
O950   Zn951   2.022   .     S
C953   N954    1.157   .     T
C953   C761    1.458   1_655 S
C955   N956    1.157   .     T
C957   N958    1.155   .     T
C959   N960    1.156   .     T
O961   C962    1.417   .     S
C962   C965    1.524   .     S
C962   H964    1.113   .     S
C962   H963    1.109   .     S
C965   H966    1.107   .     S
C965   H967    1.108   .     S
C965   H968    1.109   .     S
O969   C970    1.417   .     S
C970   C973    1.517   .     S
C970   H971    1.119   .     S
C970   H972    1.111   .     S
C973   H975    1.105   .     S
C973   H976    1.108   .     S
C973   H974    1.108   .     S
O977   C978    1.398   .     S
C978   H980    1.111   .     S
C978   H979    1.107   .     S
C978   C981    1.524   .     S
C981   H983    1.109   .     S
C981   H984    1.109   .     S
C981   H982    1.106   .     S
O985   C986    1.402   .     S
C986   H988    1.113   .     S
C986   H987    1.105   .     S
C986   C989    1.523   .     S
C989   H991    1.111   .     S
C989   H992    1.111   .     S
C989   H990    1.107   .     S
O993   C994    1.415   .     S
C994   H995    1.091   .     S
C994   C997    1.530   .     S
C994   H996    1.112   .     S
C997   H998    1.104   .     S
C997   H999    1.112   .     S
C997   H1000   1.105   .     S
O1001  C1002   1.420   .     S
C1002  H1004   1.114   .     S
C1002  H1003   1.101   .     S
C1002  C1005   1.529   .     S
C1005  H1006   1.107   .     S
C1005  H1007   1.112   .     S
C1005  H1008   1.105   .     S
C1009  O1029   1.299   .     A
C1009  C1020   1.439   .     S
C1009  O1027   1.286   .     A
C1010  O1030   1.297   .     A
C1010  C1019   1.443   .     S
C1010  O1028   1.290   .     A
C1011  O1031   1.280   .     A
C1011  O1033   1.293   .     A
C1011  C1013   1.418   .     S
C1012  O1032   1.278   .     A
C1012  C1014   1.420   .     S
C1012  O1034   1.297   .     A
C1013  C1182   1.365   1_455 S
C1013  C1205   1.458   1_455 S
C1014  C1097   1.365   .     S
C1014  C1123   1.456   .     S
C1015  C1041   1.446   .     S
C1015  C1020   1.397   .     A
C1016  C1043   1.448   .     S
C1016  C1019   1.409   .     A
C1016  C1270   1.378   .     S
C1017  O1045   1.387   .     S
C1017  C1019   1.414   .     A
C1017  C1267   1.383   .     S
C1018  O1053   1.385   .     S
C1018  C1020   1.406   .     A
C1021  N1026   1.353   .     A
C1021  O1061   1.395   .     S
C1022  N1025   1.357   .     A
C1022  O1069   1.389   .     S
C1022  C1780   1.443   .     S
C1023  N1025   1.404   .     A
C1023  O1077   1.395   .     S
C1023  C1777   1.456   .     S
C1024  O1085   1.398   .     S
C1024  N1026   1.402   .     A
N1025  Zn1035  2.023   .     S
N1026  Zn1036  2.023   .     S
O1027  Zn1035  2.015   .     S
O1028  Zn1036  2.015   .     S
O1029  Zn1036  2.014   .     S
O1030  Zn1035  2.014   .     S
O1031  Zn1035  2.006   .     S
O1032  Zn1036  2.006   .     S
O1033  Zn1036  2.022   .     S
O1034  Zn1035  2.022   .     S
C1037  N1038   1.157   .     T
C1037  C1097   1.458   .     S
C1039  N1040   1.157   .     T
C1039  C1182   1.456   1_455 S
C1041  N1042   1.155   .     T
C1043  N1044   1.156   .     T
O1045  C1046   1.417   .     S
C1046  C1049   1.524   .     S
C1046  H1048   1.113   .     S
C1046  H1047   1.109   .     S
C1049  H1050   1.107   .     S
C1049  H1051   1.108   .     S
C1049  H1052   1.109   .     S
O1053  C1054   1.417   .     S
C1054  C1057   1.517   .     S
C1054  H1055   1.119   .     S
C1054  H1056   1.111   .     S
C1057  H1059   1.105   .     S
C1057  H1060   1.108   .     S
C1057  H1058   1.108   .     S
O1061  C1062   1.398   .     S
C1062  H1064   1.111   .     S
C1062  H1063   1.107   .     S
C1062  C1065   1.524   .     S
C1065  H1067   1.109   .     S
C1065  H1068   1.109   .     S
C1065  H1066   1.106   .     S
O1069  C1070   1.402   .     S
C1070  H1072   1.113   .     S
C1070  H1071   1.105   .     S
C1070  C1073   1.523   .     S
C1073  H1075   1.111   .     S
C1073  H1076   1.111   .     S
C1073  H1074   1.107   .     S
O1077  C1078   1.415   .     S
C1078  H1079   1.091   .     S
C1078  C1081   1.530   .     S
C1078  H1080   1.112   .     S
C1081  H1082   1.104   .     S
C1081  H1083   1.112   .     S
C1081  H1084   1.105   .     S
O1085  C1086   1.420   .     S
C1086  H1088   1.114   .     S
C1086  H1087   1.101   .     S
C1086  C1089   1.529   .     S
C1089  H1090   1.107   .     S
C1089  H1091   1.112   .     S
C1089  H1092   1.105   .     S
C1093  O1113   1.299   .     A
C1093  C1104   1.439   .     S
C1093  O1111   1.286   .     A
C1094  O1114   1.297   .     A
C1094  C1103   1.443   .     S
C1094  O1112   1.290   .     A
C1095  O1115   1.280   .     A
C1095  O1117   1.293   .     A
C1095  C1097   1.418   .     S
C1096  O1116   1.278   .     A
C1096  C1098   1.420   .     S
C1096  O1118   1.297   .     A
C1098  C1181   1.365   .     S
C1098  C1207   1.456   .     S
C1099  C1125   1.446   .     S
C1099  C1104   1.397   .     A
C1100  C1127   1.448   .     S
C1100  C1103   1.409   .     A
C1100  C1354   1.378   .     S
C1101  O1129   1.387   .     S
C1101  C1103   1.414   .     A
C1101  C1351   1.383   .     S
C1102  O1137   1.385   .     S
C1102  C1104   1.406   .     A
C1105  N1110   1.353   .     A
C1105  O1145   1.395   .     S
C1106  N1109   1.357   .     A
C1106  O1153   1.389   .     S
C1106  C1864   1.443   .     S
C1107  N1109   1.404   .     A
C1107  O1161   1.395   .     S
C1107  C1861   1.456   .     S
C1108  O1169   1.398   .     S
C1108  N1110   1.402   .     A
N1109  Zn1119  2.023   .     S
N1110  Zn1120  2.023   .     S
O1111  Zn1119  2.015   .     S
O1112  Zn1120  2.015   .     S
O1113  Zn1120  2.014   .     S
O1114  Zn1119  2.014   .     S
O1115  Zn1119  2.006   .     S
O1116  Zn1120  2.006   .     S
O1117  Zn1120  2.022   .     S
O1118  Zn1119  2.022   .     S
C1121  N1122   1.157   .     T
C1121  C1181   1.458   .     S
C1123  N1124   1.157   .     T
C1125  N1126   1.155   .     T
C1127  N1128   1.156   .     T
O1129  C1130   1.417   .     S
C1130  C1133   1.524   .     S
C1130  H1132   1.113   .     S
C1130  H1131   1.109   .     S
C1133  H1134   1.107   .     S
C1133  H1135   1.108   .     S
C1133  H1136   1.109   .     S
O1137  C1138   1.417   .     S
C1138  C1141   1.517   .     S
C1138  H1139   1.119   .     S
C1138  H1140   1.111   .     S
C1141  H1143   1.105   .     S
C1141  H1144   1.108   .     S
C1141  H1142   1.108   .     S
O1145  C1146   1.398   .     S
C1146  H1148   1.111   .     S
C1146  H1147   1.107   .     S
C1146  C1149   1.524   .     S
C1149  H1151   1.109   .     S
C1149  H1152   1.109   .     S
C1149  H1150   1.106   .     S
O1153  C1154   1.402   .     S
C1154  H1156   1.113   .     S
C1154  H1155   1.105   .     S
C1154  C1157   1.523   .     S
C1157  H1159   1.111   .     S
C1157  H1160   1.111   .     S
C1157  H1158   1.107   .     S
O1161  C1162   1.415   .     S
C1162  H1163   1.091   .     S
C1162  C1165   1.530   .     S
C1162  H1164   1.112   .     S
C1165  H1166   1.104   .     S
C1165  H1167   1.112   .     S
C1165  H1168   1.105   .     S
O1169  C1170   1.420   .     S
C1170  H1172   1.114   .     S
C1170  H1171   1.101   .     S
C1170  C1173   1.529   .     S
C1173  H1174   1.107   .     S
C1173  H1175   1.112   .     S
C1173  H1176   1.105   .     S
C1177  O1197   1.299   .     A
C1177  C1188   1.439   .     S
C1177  O1195   1.286   .     A
C1178  O1198   1.297   .     A
C1178  C1187   1.443   .     S
C1178  O1196   1.290   .     A
C1179  O1199   1.280   .     A
C1179  O1201   1.293   .     A
C1179  C1181   1.418   .     S
C1180  O1200   1.278   .     A
C1180  C1182   1.420   .     S
C1180  O1202   1.297   .     A
C1182  C1013   1.365   1_655 S
C1182  C1039   1.456   1_655 S
C1183  C1209   1.446   .     S
C1183  C1188   1.397   .     A
C1184  C1211   1.448   .     S
C1184  C1187   1.409   .     A
C1184  C1438   1.378   .     S
C1185  O1213   1.387   .     S
C1185  C1187   1.414   .     A
C1185  C1435   1.383   .     S
C1186  O1221   1.385   .     S
C1186  C1188   1.406   .     A
C1189  N1194   1.353   .     A
C1189  O1229   1.395   .     S
C1190  N1193   1.357   .     A
C1190  O1237   1.389   .     S
C1190  C1948   1.443   .     S
C1191  N1193   1.404   .     A
C1191  O1245   1.395   .     S
C1191  C1945   1.456   .     S
C1192  O1253   1.398   .     S
C1192  N1194   1.402   .     A
N1193  Zn1203  2.023   .     S
N1194  Zn1204  2.023   .     S
O1195  Zn1203  2.015   .     S
O1196  Zn1204  2.015   .     S
O1197  Zn1204  2.014   .     S
O1198  Zn1203  2.014   .     S
O1199  Zn1203  2.006   .     S
O1200  Zn1204  2.006   .     S
O1201  Zn1204  2.022   .     S
O1202  Zn1203  2.022   .     S
C1205  N1206   1.157   .     T
C1205  C1013   1.458   1_655 S
C1207  N1208   1.157   .     T
C1209  N1210   1.155   .     T
C1211  N1212   1.156   .     T
O1213  C1214   1.417   .     S
C1214  C1217   1.524   .     S
C1214  H1216   1.113   .     S
C1214  H1215   1.109   .     S
C1217  H1218   1.107   .     S
C1217  H1219   1.108   .     S
C1217  H1220   1.109   .     S
O1221  C1222   1.417   .     S
C1222  C1225   1.517   .     S
C1222  H1223   1.119   .     S
C1222  H1224   1.111   .     S
C1225  H1227   1.105   .     S
C1225  H1228   1.108   .     S
C1225  H1226   1.108   .     S
O1229  C1230   1.398   .     S
C1230  H1232   1.111   .     S
C1230  H1231   1.107   .     S
C1230  C1233   1.524   .     S
C1233  H1235   1.109   .     S
C1233  H1236   1.109   .     S
C1233  H1234   1.106   .     S
O1237  C1238   1.402   .     S
C1238  H1240   1.113   .     S
C1238  H1239   1.105   .     S
C1238  C1241   1.523   .     S
C1241  H1243   1.111   .     S
C1241  H1244   1.111   .     S
C1241  H1242   1.107   .     S
O1245  C1246   1.415   .     S
C1246  H1247   1.091   .     S
C1246  C1249   1.530   .     S
C1246  H1248   1.112   .     S
C1249  H1250   1.104   .     S
C1249  H1251   1.112   .     S
C1249  H1252   1.105   .     S
O1253  C1254   1.420   .     S
C1254  H1256   1.114   .     S
C1254  H1255   1.101   .     S
C1254  C1257   1.529   .     S
C1257  H1258   1.107   .     S
C1257  H1259   1.112   .     S
C1257  H1260   1.105   .     S
C1261  O1281   1.299   .     A
C1261  C1272   1.439   .     S
C1261  O1279   1.286   .     A
C1262  O1282   1.297   .     A
C1262  C1271   1.443   .     S
C1262  O1280   1.290   .     A
C1263  O1283   1.280   .     A
C1263  O1285   1.293   .     A
C1263  C1265   1.418   .     S
C1264  O1284   1.278   .     A
C1264  C1266   1.420   .     S
C1264  O1286   1.297   .     A
C1265  C1434   1.365   1_455 S
C1265  C1457   1.458   1_455 S
C1266  C1349   1.365   .     S
C1266  C1375   1.456   .     S
C1267  C1293   1.446   .     S
C1267  C1272   1.397   .     A
C1268  C1295   1.448   .     S
C1268  C1271   1.409   .     A
C1268  C766    1.378   1_565 S
C1269  O1297   1.387   .     S
C1269  C1271   1.414   .     A
C1269  C763    1.383   1_565 S
C1270  O1305   1.385   .     S
C1270  C1272   1.406   .     A
C1273  N1278   1.353   .     A
C1273  O1313   1.395   .     S
C1274  N1277   1.357   .     A
C1274  O1321   1.389   .     S
C1274  C2032   1.443   .     S
C1275  N1277   1.404   .     A
C1275  O1329   1.395   .     S
C1275  C2029   1.456   .     S
C1276  O1337   1.398   .     S
C1276  N1278   1.402   .     A
N1277  Zn1287  2.023   .     S
N1278  Zn1288  2.023   .     S
O1279  Zn1287  2.015   .     S
O1280  Zn1288  2.015   .     S
O1281  Zn1288  2.014   .     S
O1282  Zn1287  2.014   .     S
O1283  Zn1287  2.006   .     S
O1284  Zn1288  2.006   .     S
O1285  Zn1288  2.022   .     S
O1286  Zn1287  2.022   .     S
C1289  N1290   1.157   .     T
C1289  C1349   1.458   .     S
C1291  N1292   1.157   .     T
C1291  C1434   1.456   1_455 S
C1293  N1294   1.155   .     T
C1295  N1296   1.156   .     T
O1297  C1298   1.417   .     S
C1298  C1301   1.524   .     S
C1298  H1300   1.113   .     S
C1298  H1299   1.109   .     S
C1301  H1302   1.107   .     S
C1301  H1303   1.108   .     S
C1301  H1304   1.109   .     S
O1305  C1306   1.417   .     S
C1306  C1309   1.517   .     S
C1306  H1307   1.119   .     S
C1306  H1308   1.111   .     S
C1309  H1311   1.105   .     S
C1309  H1312   1.108   .     S
C1309  H1310   1.108   .     S
O1313  C1314   1.398   .     S
C1314  H1316   1.111   .     S
C1314  H1315   1.107   .     S
C1314  C1317   1.524   .     S
C1317  H1319   1.109   .     S
C1317  H1320   1.109   .     S
C1317  H1318   1.106   .     S
O1321  C1322   1.402   .     S
C1322  H1324   1.113   .     S
C1322  H1323   1.105   .     S
C1322  C1325   1.523   .     S
C1325  H1327   1.111   .     S
C1325  H1328   1.111   .     S
C1325  H1326   1.107   .     S
O1329  C1330   1.415   .     S
C1330  H1331   1.091   .     S
C1330  C1333   1.530   .     S
C1330  H1332   1.112   .     S
C1333  H1334   1.104   .     S
C1333  H1335   1.112   .     S
C1333  H1336   1.105   .     S
O1337  C1338   1.420   .     S
C1338  H1340   1.114   .     S
C1338  H1339   1.101   .     S
C1338  C1341   1.529   .     S
C1341  H1342   1.107   .     S
C1341  H1343   1.112   .     S
C1341  H1344   1.105   .     S
C1345  O1365   1.299   .     A
C1345  C1356   1.439   .     S
C1345  O1363   1.286   .     A
C1346  O1366   1.297   .     A
C1346  C1355   1.443   .     S
C1346  O1364   1.290   .     A
C1347  O1367   1.280   .     A
C1347  O1369   1.293   .     A
C1347  C1349   1.418   .     S
C1348  O1368   1.278   .     A
C1348  C1350   1.420   .     S
C1348  O1370   1.297   .     A
C1350  C1433   1.365   .     S
C1350  C1459   1.456   .     S
C1351  C1377   1.446   .     S
C1351  C1356   1.397   .     A
C1352  C1379   1.448   .     S
C1352  C1355   1.409   .     A
C1352  C850    1.378   1_565 S
C1353  O1381   1.387   .     S
C1353  C1355   1.414   .     A
C1353  C847    1.383   1_565 S
C1354  O1389   1.385   .     S
C1354  C1356   1.406   .     A
C1357  N1362   1.353   .     A
C1357  O1397   1.395   .     S
C1358  N1361   1.357   .     A
C1358  O1405   1.389   .     S
C1358  C2116   1.443   .     S
C1359  N1361   1.404   .     A
C1359  O1413   1.395   .     S
C1359  C2113   1.456   .     S
C1360  O1421   1.398   .     S
C1360  N1362   1.402   .     A
N1361  Zn1371  2.023   .     S
N1362  Zn1372  2.023   .     S
O1363  Zn1371  2.015   .     S
O1364  Zn1372  2.015   .     S
O1365  Zn1372  2.014   .     S
O1366  Zn1371  2.014   .     S
O1367  Zn1371  2.006   .     S
O1368  Zn1372  2.006   .     S
O1369  Zn1372  2.022   .     S
O1370  Zn1371  2.022   .     S
C1373  N1374   1.157   .     T
C1373  C1433   1.458   .     S
C1375  N1376   1.157   .     T
C1377  N1378   1.155   .     T
C1379  N1380   1.156   .     T
O1381  C1382   1.417   .     S
C1382  C1385   1.524   .     S
C1382  H1384   1.113   .     S
C1382  H1383   1.109   .     S
C1385  H1386   1.107   .     S
C1385  H1387   1.108   .     S
C1385  H1388   1.109   .     S
O1389  C1390   1.417   .     S
C1390  C1393   1.517   .     S
C1390  H1391   1.119   .     S
C1390  H1392   1.111   .     S
C1393  H1395   1.105   .     S
C1393  H1396   1.108   .     S
C1393  H1394   1.108   .     S
O1397  C1398   1.398   .     S
C1398  H1400   1.111   .     S
C1398  H1399   1.107   .     S
C1398  C1401   1.524   .     S
C1401  H1403   1.109   .     S
C1401  H1404   1.109   .     S
C1401  H1402   1.106   .     S
O1405  C1406   1.402   .     S
C1406  H1408   1.113   .     S
C1406  H1407   1.105   .     S
C1406  C1409   1.523   .     S
C1409  H1411   1.111   .     S
C1409  H1412   1.111   .     S
C1409  H1410   1.107   .     S
O1413  C1414   1.415   .     S
C1414  H1415   1.091   .     S
C1414  C1417   1.530   .     S
C1414  H1416   1.112   .     S
C1417  H1418   1.104   .     S
C1417  H1419   1.112   .     S
C1417  H1420   1.105   .     S
O1421  C1422   1.420   .     S
C1422  H1424   1.114   .     S
C1422  H1423   1.101   .     S
C1422  C1425   1.529   .     S
C1425  H1426   1.107   .     S
C1425  H1427   1.112   .     S
C1425  H1428   1.105   .     S
C1429  O1449   1.299   .     A
C1429  C1440   1.439   .     S
C1429  O1447   1.286   .     A
C1430  O1450   1.297   .     A
C1430  C1439   1.443   .     S
C1430  O1448   1.290   .     A
C1431  O1451   1.280   .     A
C1431  O1453   1.293   .     A
C1431  C1433   1.418   .     S
C1432  O1452   1.278   .     A
C1432  C1434   1.420   .     S
C1432  O1454   1.297   .     A
C1434  C1265   1.365   1_655 S
C1434  C1291   1.456   1_655 S
C1435  C1461   1.446   .     S
C1435  C1440   1.397   .     A
C1436  C1463   1.448   .     S
C1436  C1439   1.409   .     A
C1436  C934    1.378   1_565 S
C1437  O1465   1.387   .     S
C1437  C1439   1.414   .     A
C1437  C931    1.383   1_565 S
C1438  O1473   1.385   .     S
C1438  C1440   1.406   .     A
C1441  N1446   1.353   .     A
C1441  O1481   1.395   .     S
C1442  N1445   1.357   .     A
C1442  O1489   1.389   .     S
C1442  C2200   1.443   .     S
C1443  N1445   1.404   .     A
C1443  O1497   1.395   .     S
C1443  C2197   1.456   .     S
C1444  O1505   1.398   .     S
C1444  N1446   1.402   .     A
N1445  Zn1455  2.023   .     S
N1446  Zn1456  2.023   .     S
O1447  Zn1455  2.015   .     S
O1448  Zn1456  2.015   .     S
O1449  Zn1456  2.014   .     S
O1450  Zn1455  2.014   .     S
O1451  Zn1455  2.006   .     S
O1452  Zn1456  2.006   .     S
O1453  Zn1456  2.022   .     S
O1454  Zn1455  2.022   .     S
C1457  N1458   1.157   .     T
C1457  C1265   1.458   1_655 S
C1459  N1460   1.157   .     T
C1461  N1462   1.155   .     T
C1463  N1464   1.156   .     T
O1465  C1466   1.417   .     S
C1466  C1469   1.524   .     S
C1466  H1468   1.113   .     S
C1466  H1467   1.109   .     S
C1469  H1470   1.107   .     S
C1469  H1471   1.108   .     S
C1469  H1472   1.109   .     S
O1473  C1474   1.417   .     S
C1474  C1477   1.517   .     S
C1474  H1475   1.119   .     S
C1474  H1476   1.111   .     S
C1477  H1479   1.105   .     S
C1477  H1480   1.108   .     S
C1477  H1478   1.108   .     S
O1481  C1482   1.398   .     S
C1482  H1484   1.111   .     S
C1482  H1483   1.107   .     S
C1482  C1485   1.524   .     S
C1485  H1487   1.109   .     S
C1485  H1488   1.109   .     S
C1485  H1486   1.106   .     S
O1489  C1490   1.402   .     S
C1490  H1492   1.113   .     S
C1490  H1491   1.105   .     S
C1490  C1493   1.523   .     S
C1493  H1495   1.111   .     S
C1493  H1496   1.111   .     S
C1493  H1494   1.107   .     S
O1497  C1498   1.415   .     S
C1498  H1499   1.091   .     S
C1498  C1501   1.530   .     S
C1498  H1500   1.112   .     S
C1501  H1502   1.104   .     S
C1501  H1503   1.112   .     S
C1501  H1504   1.105   .     S
O1505  C1506   1.420   .     S
C1506  H1508   1.114   .     S
C1506  H1507   1.101   .     S
C1506  C1509   1.529   .     S
C1509  H1510   1.107   .     S
C1509  H1511   1.112   .     S
C1509  H1512   1.105   .     S
C1513  O1533   1.299   .     A
C1513  C1524   1.439   .     S
C1513  O1531   1.286   .     A
C1514  O1534   1.297   .     A
C1514  C1523   1.443   .     S
C1514  O1532   1.290   .     A
C1515  O1535   1.280   .     A
C1515  O1537   1.293   .     A
C1515  C1517   1.418   .     S
C1516  O1536   1.278   .     A
C1516  C1518   1.420   .     S
C1516  O1538   1.297   .     A
C1517  C1686   1.365   1_455 S
C1517  C1709   1.458   1_455 S
C1518  C1601   1.365   .     S
C1518  C1627   1.456   .     S
C1519  C1545   1.446   .     S
C1519  C1524   1.397   .     A
C1519  C2025   1.383   1_545 S
C1520  C1547   1.448   .     S
C1520  C1523   1.409   .     A
C1520  C1774   1.378   .     S
C1521  O1549   1.387   .     S
C1521  C1523   1.414   .     A
C1521  C1771   1.383   .     S
C1522  O1557   1.385   .     S
C1522  C1524   1.406   .     A
C1522  C2024   1.378   1_545 S
C1525  N1530   1.353   .     A
C1525  O1565   1.395   .     S
C1526  N1529   1.357   .     A
C1526  O1573   1.389   .     S
C1526  C16     1.443   1_556 S
C1527  N1529   1.404   .     A
C1527  O1581   1.395   .     S
C1527  C13     1.456   1_556 S
C1528  O1589   1.398   .     S
C1528  N1530   1.402   .     A
N1529  Zn1539  2.023   .     S
N1530  Zn1540  2.023   .     S
O1531  Zn1539  2.015   .     S
O1532  Zn1540  2.015   .     S
O1533  Zn1540  2.014   .     S
O1534  Zn1539  2.014   .     S
O1535  Zn1539  2.006   .     S
O1536  Zn1540  2.006   .     S
O1537  Zn1540  2.022   .     S
O1538  Zn1539  2.022   .     S
C1541  N1542   1.157   .     T
C1541  C1601   1.458   .     S
C1543  N1544   1.157   .     T
C1543  C1686   1.456   1_455 S
C1545  N1546   1.155   .     T
C1547  N1548   1.156   .     T
O1549  C1550   1.417   .     S
C1550  C1553   1.524   .     S
C1550  H1552   1.113   .     S
C1550  H1551   1.109   .     S
C1553  H1554   1.107   .     S
C1553  H1555   1.108   .     S
C1553  H1556   1.109   .     S
O1557  C1558   1.417   .     S
C1558  C1561   1.517   .     S
C1558  H1559   1.119   .     S
C1558  H1560   1.111   .     S
C1561  H1563   1.105   .     S
C1561  H1564   1.108   .     S
C1561  H1562   1.108   .     S
O1565  C1566   1.398   .     S
C1566  H1568   1.111   .     S
C1566  H1567   1.107   .     S
C1566  C1569   1.524   .     S
C1569  H1571   1.109   .     S
C1569  H1572   1.109   .     S
C1569  H1570   1.106   .     S
O1573  C1574   1.402   .     S
C1574  H1576   1.113   .     S
C1574  H1575   1.105   .     S
C1574  C1577   1.523   .     S
C1577  H1579   1.111   .     S
C1577  H1580   1.111   .     S
C1577  H1578   1.107   .     S
O1581  C1582   1.415   .     S
C1582  H1583   1.091   .     S
C1582  C1585   1.530   .     S
C1582  H1584   1.112   .     S
C1585  H1586   1.104   .     S
C1585  H1587   1.112   .     S
C1585  H1588   1.105   .     S
O1589  C1590   1.420   .     S
C1590  H1592   1.114   .     S
C1590  H1591   1.101   .     S
C1590  C1593   1.529   .     S
C1593  H1594   1.107   .     S
C1593  H1595   1.112   .     S
C1593  H1596   1.105   .     S
C1597  O1617   1.299   .     A
C1597  C1608   1.439   .     S
C1597  O1615   1.286   .     A
C1598  O1618   1.297   .     A
C1598  C1607   1.443   .     S
C1598  O1616   1.290   .     A
C1599  O1619   1.280   .     A
C1599  O1621   1.293   .     A
C1599  C1601   1.418   .     S
C1600  O1620   1.278   .     A
C1600  C1602   1.420   .     S
C1600  O1622   1.297   .     A
C1602  C1685   1.365   .     S
C1602  C1711   1.456   .     S
C1603  C1629   1.446   .     S
C1603  C1608   1.397   .     A
C1603  C2109   1.383   1_545 S
C1604  C1631   1.448   .     S
C1604  C1607   1.409   .     A
C1604  C1858   1.378   .     S
C1605  O1633   1.387   .     S
C1605  C1607   1.414   .     A
C1605  C1855   1.383   .     S
C1606  O1641   1.385   .     S
C1606  C1608   1.406   .     A
C1606  C2108   1.378   1_545 S
C1609  N1614   1.353   .     A
C1609  O1649   1.395   .     S
C1610  N1613   1.357   .     A
C1610  O1657   1.389   .     S
C1610  C100    1.443   1_556 S
C1611  N1613   1.404   .     A
C1611  O1665   1.395   .     S
C1611  C97     1.456   1_556 S
C1612  O1673   1.398   .     S
C1612  N1614   1.402   .     A
N1613  Zn1623  2.023   .     S
N1614  Zn1624  2.023   .     S
O1615  Zn1623  2.015   .     S
O1616  Zn1624  2.015   .     S
O1617  Zn1624  2.014   .     S
O1618  Zn1623  2.014   .     S
O1619  Zn1623  2.006   .     S
O1620  Zn1624  2.006   .     S
O1621  Zn1624  2.022   .     S
O1622  Zn1623  2.022   .     S
C1625  N1626   1.157   .     T
C1625  C1685   1.458   .     S
C1627  N1628   1.157   .     T
C1629  N1630   1.155   .     T
C1631  N1632   1.156   .     T
O1633  C1634   1.417   .     S
C1634  C1637   1.524   .     S
C1634  H1636   1.113   .     S
C1634  H1635   1.109   .     S
C1637  H1638   1.107   .     S
C1637  H1639   1.108   .     S
C1637  H1640   1.109   .     S
O1641  C1642   1.417   .     S
C1642  C1645   1.517   .     S
C1642  H1643   1.119   .     S
C1642  H1644   1.111   .     S
C1645  H1647   1.105   .     S
C1645  H1648   1.108   .     S
C1645  H1646   1.108   .     S
O1649  C1650   1.398   .     S
C1650  H1652   1.111   .     S
C1650  H1651   1.107   .     S
C1650  C1653   1.524   .     S
C1653  H1655   1.109   .     S
C1653  H1656   1.109   .     S
C1653  H1654   1.106   .     S
O1657  C1658   1.402   .     S
C1658  H1660   1.113   .     S
C1658  H1659   1.105   .     S
C1658  C1661   1.523   .     S
C1661  H1663   1.111   .     S
C1661  H1664   1.111   .     S
C1661  H1662   1.107   .     S
O1665  C1666   1.415   .     S
C1666  H1667   1.091   .     S
C1666  C1669   1.530   .     S
C1666  H1668   1.112   .     S
C1669  H1670   1.104   .     S
C1669  H1671   1.112   .     S
C1669  H1672   1.105   .     S
O1673  C1674   1.420   .     S
C1674  H1676   1.114   .     S
C1674  H1675   1.101   .     S
C1674  C1677   1.529   .     S
C1677  H1678   1.107   .     S
C1677  H1679   1.112   .     S
C1677  H1680   1.105   .     S
C1681  O1701   1.299   .     A
C1681  C1692   1.439   .     S
C1681  O1699   1.286   .     A
C1682  O1702   1.297   .     A
C1682  C1691   1.443   .     S
C1682  O1700   1.290   .     A
C1683  O1703   1.280   .     A
C1683  O1705   1.293   .     A
C1683  C1685   1.418   .     S
C1684  O1704   1.278   .     A
C1684  C1686   1.420   .     S
C1684  O1706   1.297   .     A
C1686  C1517   1.365   1_655 S
C1686  C1543   1.456   1_655 S
C1687  C1713   1.446   .     S
C1687  C1692   1.397   .     A
C1687  C2193   1.383   1_545 S
C1688  C1715   1.448   .     S
C1688  C1691   1.409   .     A
C1688  C1942   1.378   .     S
C1689  O1717   1.387   .     S
C1689  C1691   1.414   .     A
C1689  C1939   1.383   .     S
C1690  O1725   1.385   .     S
C1690  C1692   1.406   .     A
C1690  C2192   1.378   1_545 S
C1693  N1698   1.353   .     A
C1693  O1733   1.395   .     S
C1694  N1697   1.357   .     A
C1694  O1741   1.389   .     S
C1694  C184    1.443   1_556 S
C1695  N1697   1.404   .     A
C1695  O1749   1.395   .     S
C1695  C181    1.456   1_556 S
C1696  O1757   1.398   .     S
C1696  N1698   1.402   .     A
N1697  Zn1707  2.023   .     S
N1698  Zn1708  2.023   .     S
O1699  Zn1707  2.015   .     S
O1700  Zn1708  2.015   .     S
O1701  Zn1708  2.014   .     S
O1702  Zn1707  2.014   .     S
O1703  Zn1707  2.006   .     S
O1704  Zn1708  2.006   .     S
O1705  Zn1708  2.022   .     S
O1706  Zn1707  2.022   .     S
C1709  N1710   1.157   .     T
C1709  C1517   1.458   1_655 S
C1711  N1712   1.157   .     T
C1713  N1714   1.155   .     T
C1715  N1716   1.156   .     T
O1717  C1718   1.417   .     S
C1718  C1721   1.524   .     S
C1718  H1720   1.113   .     S
C1718  H1719   1.109   .     S
C1721  H1722   1.107   .     S
C1721  H1723   1.108   .     S
C1721  H1724   1.109   .     S
O1725  C1726   1.417   .     S
C1726  C1729   1.517   .     S
C1726  H1727   1.119   .     S
C1726  H1728   1.111   .     S
C1729  H1731   1.105   .     S
C1729  H1732   1.108   .     S
C1729  H1730   1.108   .     S
O1733  C1734   1.398   .     S
C1734  H1736   1.111   .     S
C1734  H1735   1.107   .     S
C1734  C1737   1.524   .     S
C1737  H1739   1.109   .     S
C1737  H1740   1.109   .     S
C1737  H1738   1.106   .     S
O1741  C1742   1.402   .     S
C1742  H1744   1.113   .     S
C1742  H1743   1.105   .     S
C1742  C1745   1.523   .     S
C1745  H1747   1.111   .     S
C1745  H1748   1.111   .     S
C1745  H1746   1.107   .     S
O1749  C1750   1.415   .     S
C1750  H1751   1.091   .     S
C1750  C1753   1.530   .     S
C1750  H1752   1.112   .     S
C1753  H1754   1.104   .     S
C1753  H1755   1.112   .     S
C1753  H1756   1.105   .     S
O1757  C1758   1.420   .     S
C1758  H1760   1.114   .     S
C1758  H1759   1.101   .     S
C1758  C1761   1.529   .     S
C1761  H1762   1.107   .     S
C1761  H1763   1.112   .     S
C1761  H1764   1.105   .     S
C1765  O1785   1.299   .     A
C1765  C1776   1.439   .     S
C1765  O1783   1.286   .     A
C1766  O1786   1.297   .     A
C1766  C1775   1.443   .     S
C1766  O1784   1.290   .     A
C1767  O1787   1.280   .     A
C1767  O1789   1.293   .     A
C1767  C1769   1.418   .     S
C1768  O1788   1.278   .     A
C1768  C1770   1.420   .     S
C1768  O1790   1.297   .     A
C1769  C1938   1.365   1_455 S
C1769  C1961   1.458   1_455 S
C1770  C1853   1.365   .     S
C1770  C1879   1.456   .     S
C1771  C1797   1.446   .     S
C1771  C1776   1.397   .     A
C1772  C1799   1.448   .     S
C1772  C1775   1.409   .     A
C1772  C2026   1.378   .     S
C1773  O1801   1.387   .     S
C1773  C1775   1.414   .     A
C1773  C2023   1.383   .     S
C1774  O1809   1.385   .     S
C1774  C1776   1.406   .     A
C1777  N1782   1.353   .     A
C1777  O1817   1.395   .     S
C1778  N1781   1.357   .     A
C1778  O1825   1.389   .     S
C1778  C268    1.443   1_556 S
C1779  N1781   1.404   .     A
C1779  O1833   1.395   .     S
C1779  C265    1.456   1_556 S
C1780  O1841   1.398   .     S
C1780  N1782   1.402   .     A
N1781  Zn1791  2.023   .     S
N1782  Zn1792  2.023   .     S
O1783  Zn1791  2.015   .     S
O1784  Zn1792  2.015   .     S
O1785  Zn1792  2.014   .     S
O1786  Zn1791  2.014   .     S
O1787  Zn1791  2.006   .     S
O1788  Zn1792  2.006   .     S
O1789  Zn1792  2.022   .     S
O1790  Zn1791  2.022   .     S
C1793  N1794   1.157   .     T
C1793  C1853   1.458   .     S
C1795  N1796   1.157   .     T
C1795  C1938   1.456   1_455 S
C1797  N1798   1.155   .     T
C1799  N1800   1.156   .     T
O1801  C1802   1.417   .     S
C1802  C1805   1.524   .     S
C1802  H1804   1.113   .     S
C1802  H1803   1.109   .     S
C1805  H1806   1.107   .     S
C1805  H1807   1.108   .     S
C1805  H1808   1.109   .     S
O1809  C1810   1.417   .     S
C1810  C1813   1.517   .     S
C1810  H1811   1.119   .     S
C1810  H1812   1.111   .     S
C1813  H1815   1.105   .     S
C1813  H1816   1.108   .     S
C1813  H1814   1.108   .     S
O1817  C1818   1.398   .     S
C1818  H1820   1.111   .     S
C1818  H1819   1.107   .     S
C1818  C1821   1.524   .     S
C1821  H1823   1.109   .     S
C1821  H1824   1.109   .     S
C1821  H1822   1.106   .     S
O1825  C1826   1.402   .     S
C1826  H1828   1.113   .     S
C1826  H1827   1.105   .     S
C1826  C1829   1.523   .     S
C1829  H1831   1.111   .     S
C1829  H1832   1.111   .     S
C1829  H1830   1.107   .     S
O1833  C1834   1.415   .     S
C1834  H1835   1.091   .     S
C1834  C1837   1.530   .     S
C1834  H1836   1.112   .     S
C1837  H1838   1.104   .     S
C1837  H1839   1.112   .     S
C1837  H1840   1.105   .     S
O1841  C1842   1.420   .     S
C1842  H1844   1.114   .     S
C1842  H1843   1.101   .     S
C1842  C1845   1.529   .     S
C1845  H1846   1.107   .     S
C1845  H1847   1.112   .     S
C1845  H1848   1.105   .     S
C1849  O1869   1.299   .     A
C1849  C1860   1.439   .     S
C1849  O1867   1.286   .     A
C1850  O1870   1.297   .     A
C1850  C1859   1.443   .     S
C1850  O1868   1.290   .     A
C1851  O1871   1.280   .     A
C1851  O1873   1.293   .     A
C1851  C1853   1.418   .     S
C1852  O1872   1.278   .     A
C1852  C1854   1.420   .     S
C1852  O1874   1.297   .     A
C1854  C1937   1.365   .     S
C1854  C1963   1.456   .     S
C1855  C1881   1.446   .     S
C1855  C1860   1.397   .     A
C1856  C1883   1.448   .     S
C1856  C1859   1.409   .     A
C1856  C2110   1.378   .     S
C1857  O1885   1.387   .     S
C1857  C1859   1.414   .     A
C1857  C2107   1.383   .     S
C1858  O1893   1.385   .     S
C1858  C1860   1.406   .     A
C1861  N1866   1.353   .     A
C1861  O1901   1.395   .     S
C1862  N1865   1.357   .     A
C1862  O1909   1.389   .     S
C1862  C352    1.443   1_556 S
C1863  N1865   1.404   .     A
C1863  O1917   1.395   .     S
C1863  C349    1.456   1_556 S
C1864  O1925   1.398   .     S
C1864  N1866   1.402   .     A
N1865  Zn1875  2.023   .     S
N1866  Zn1876  2.023   .     S
O1867  Zn1875  2.015   .     S
O1868  Zn1876  2.015   .     S
O1869  Zn1876  2.014   .     S
O1870  Zn1875  2.014   .     S
O1871  Zn1875  2.006   .     S
O1872  Zn1876  2.006   .     S
O1873  Zn1876  2.022   .     S
O1874  Zn1875  2.022   .     S
C1877  N1878   1.157   .     T
C1877  C1937   1.458   .     S
C1879  N1880   1.157   .     T
C1881  N1882   1.155   .     T
C1883  N1884   1.156   .     T
O1885  C1886   1.417   .     S
C1886  C1889   1.524   .     S
C1886  H1888   1.113   .     S
C1886  H1887   1.109   .     S
C1889  H1890   1.107   .     S
C1889  H1891   1.108   .     S
C1889  H1892   1.109   .     S
O1893  C1894   1.417   .     S
C1894  C1897   1.517   .     S
C1894  H1895   1.119   .     S
C1894  H1896   1.111   .     S
C1897  H1899   1.105   .     S
C1897  H1900   1.108   .     S
C1897  H1898   1.108   .     S
O1901  C1902   1.398   .     S
C1902  H1904   1.111   .     S
C1902  H1903   1.107   .     S
C1902  C1905   1.524   .     S
C1905  H1907   1.109   .     S
C1905  H1908   1.109   .     S
C1905  H1906   1.106   .     S
O1909  C1910   1.402   .     S
C1910  H1912   1.113   .     S
C1910  H1911   1.105   .     S
C1910  C1913   1.523   .     S
C1913  H1915   1.111   .     S
C1913  H1916   1.111   .     S
C1913  H1914   1.107   .     S
O1917  C1918   1.415   .     S
C1918  H1919   1.091   .     S
C1918  C1921   1.530   .     S
C1918  H1920   1.112   .     S
C1921  H1922   1.104   .     S
C1921  H1923   1.112   .     S
C1921  H1924   1.105   .     S
O1925  C1926   1.420   .     S
C1926  H1928   1.114   .     S
C1926  H1927   1.101   .     S
C1926  C1929   1.529   .     S
C1929  H1930   1.107   .     S
C1929  H1931   1.112   .     S
C1929  H1932   1.105   .     S
C1933  O1953   1.299   .     A
C1933  C1944   1.439   .     S
C1933  O1951   1.286   .     A
C1934  O1954   1.297   .     A
C1934  C1943   1.443   .     S
C1934  O1952   1.290   .     A
C1935  O1955   1.280   .     A
C1935  O1957   1.293   .     A
C1935  C1937   1.418   .     S
C1936  O1956   1.278   .     A
C1936  C1938   1.420   .     S
C1936  O1958   1.297   .     A
C1938  C1769   1.365   1_655 S
C1938  C1795   1.456   1_655 S
C1939  C1965   1.446   .     S
C1939  C1944   1.397   .     A
C1940  C1967   1.448   .     S
C1940  C1943   1.409   .     A
C1940  C2194   1.378   .     S
C1941  O1969   1.387   .     S
C1941  C1943   1.414   .     A
C1941  C2191   1.383   .     S
C1942  O1977   1.385   .     S
C1942  C1944   1.406   .     A
C1945  N1950   1.353   .     A
C1945  O1985   1.395   .     S
C1946  N1949   1.357   .     A
C1946  O1993   1.389   .     S
C1946  C436    1.443   1_556 S
C1947  N1949   1.404   .     A
C1947  O2001   1.395   .     S
C1947  C433    1.456   1_556 S
C1948  O2009   1.398   .     S
C1948  N1950   1.402   .     A
N1949  Zn1959  2.023   .     S
N1950  Zn1960  2.023   .     S
O1951  Zn1959  2.015   .     S
O1952  Zn1960  2.015   .     S
O1953  Zn1960  2.014   .     S
O1954  Zn1959  2.014   .     S
O1955  Zn1959  2.006   .     S
O1956  Zn1960  2.006   .     S
O1957  Zn1960  2.022   .     S
O1958  Zn1959  2.022   .     S
C1961  N1962   1.157   .     T
C1961  C1769   1.458   1_655 S
C1963  N1964   1.157   .     T
C1965  N1966   1.155   .     T
C1967  N1968   1.156   .     T
O1969  C1970   1.417   .     S
C1970  C1973   1.524   .     S
C1970  H1972   1.113   .     S
C1970  H1971   1.109   .     S
C1973  H1974   1.107   .     S
C1973  H1975   1.108   .     S
C1973  H1976   1.109   .     S
O1977  C1978   1.417   .     S
C1978  C1981   1.517   .     S
C1978  H1979   1.119   .     S
C1978  H1980   1.111   .     S
C1981  H1983   1.105   .     S
C1981  H1984   1.108   .     S
C1981  H1982   1.108   .     S
O1985  C1986   1.398   .     S
C1986  H1988   1.111   .     S
C1986  H1987   1.107   .     S
C1986  C1989   1.524   .     S
C1989  H1991   1.109   .     S
C1989  H1992   1.109   .     S
C1989  H1990   1.106   .     S
O1993  C1994   1.402   .     S
C1994  H1996   1.113   .     S
C1994  H1995   1.105   .     S
C1994  C1997   1.523   .     S
C1997  H1999   1.111   .     S
C1997  H2000   1.111   .     S
C1997  H1998   1.107   .     S
O2001  C2002   1.415   .     S
C2002  H2003   1.091   .     S
C2002  C2005   1.530   .     S
C2002  H2004   1.112   .     S
C2005  H2006   1.104   .     S
C2005  H2007   1.112   .     S
C2005  H2008   1.105   .     S
O2009  C2010   1.420   .     S
C2010  H2012   1.114   .     S
C2010  H2011   1.101   .     S
C2010  C2013   1.529   .     S
C2013  H2014   1.107   .     S
C2013  H2015   1.112   .     S
C2013  H2016   1.105   .     S
C2017  O2037   1.299   .     A
C2017  C2028   1.439   .     S
C2017  O2035   1.286   .     A
C2018  O2038   1.297   .     A
C2018  C2027   1.443   .     S
C2018  O2036   1.290   .     A
C2019  O2039   1.280   .     A
C2019  O2041   1.293   .     A
C2019  C2021   1.418   .     S
C2020  O2040   1.278   .     A
C2020  C2022   1.420   .     S
C2020  O2042   1.297   .     A
C2021  C2190   1.365   1_455 S
C2021  C2213   1.458   1_455 S
C2022  C2105   1.365   .     S
C2022  C2131   1.456   .     S
C2023  C2049   1.446   .     S
C2023  C2028   1.397   .     A
C2024  C2051   1.448   .     S
C2024  C2027   1.409   .     A
C2024  C1522   1.378   1_565 S
C2025  O2053   1.387   .     S
C2025  C2027   1.414   .     A
C2025  C1519   1.383   1_565 S
C2026  O2061   1.385   .     S
C2026  C2028   1.406   .     A
C2029  N2034   1.353   .     A
C2029  O2069   1.395   .     S
C2030  N2033   1.357   .     A
C2030  O2077   1.389   .     S
C2030  C520    1.443   1_556 S
C2031  N2033   1.404   .     A
C2031  O2085   1.395   .     S
C2031  C517    1.456   1_556 S
C2032  O2093   1.398   .     S
C2032  N2034   1.402   .     A
N2033  Zn2043  2.023   .     S
N2034  Zn2044  2.023   .     S
O2035  Zn2043  2.015   .     S
O2036  Zn2044  2.015   .     S
O2037  Zn2044  2.014   .     S
O2038  Zn2043  2.014   .     S
O2039  Zn2043  2.006   .     S
O2040  Zn2044  2.006   .     S
O2041  Zn2044  2.022   .     S
O2042  Zn2043  2.022   .     S
C2045  N2046   1.157   .     T
C2045  C2105   1.458   .     S
C2047  N2048   1.157   .     T
C2047  C2190   1.456   1_455 S
C2049  N2050   1.155   .     T
C2051  N2052   1.156   .     T
O2053  C2054   1.417   .     S
C2054  C2057   1.524   .     S
C2054  H2056   1.113   .     S
C2054  H2055   1.109   .     S
C2057  H2058   1.107   .     S
C2057  H2059   1.108   .     S
C2057  H2060   1.109   .     S
O2061  C2062   1.417   .     S
C2062  C2065   1.517   .     S
C2062  H2063   1.119   .     S
C2062  H2064   1.111   .     S
C2065  H2067   1.105   .     S
C2065  H2068   1.108   .     S
C2065  H2066   1.108   .     S
O2069  C2070   1.398   .     S
C2070  H2072   1.111   .     S
C2070  H2071   1.107   .     S
C2070  C2073   1.524   .     S
C2073  H2075   1.109   .     S
C2073  H2076   1.109   .     S
C2073  H2074   1.106   .     S
O2077  C2078   1.402   .     S
C2078  H2080   1.113   .     S
C2078  H2079   1.105   .     S
C2078  C2081   1.523   .     S
C2081  H2083   1.111   .     S
C2081  H2084   1.111   .     S
C2081  H2082   1.107   .     S
O2085  C2086   1.415   .     S
C2086  H2087   1.091   .     S
C2086  C2089   1.530   .     S
C2086  H2088   1.112   .     S
C2089  H2090   1.104   .     S
C2089  H2091   1.112   .     S
C2089  H2092   1.105   .     S
O2093  C2094   1.420   .     S
C2094  H2096   1.114   .     S
C2094  H2095   1.101   .     S
C2094  C2097   1.529   .     S
C2097  H2098   1.107   .     S
C2097  H2099   1.112   .     S
C2097  H2100   1.105   .     S
C2101  O2121   1.299   .     A
C2101  C2112   1.439   .     S
C2101  O2119   1.286   .     A
C2102  O2122   1.297   .     A
C2102  C2111   1.443   .     S
C2102  O2120   1.290   .     A
C2103  O2123   1.280   .     A
C2103  O2125   1.293   .     A
C2103  C2105   1.418   .     S
C2104  O2124   1.278   .     A
C2104  C2106   1.420   .     S
C2104  O2126   1.297   .     A
C2106  C2189   1.365   .     S
C2106  C2215   1.456   .     S
C2107  C2133   1.446   .     S
C2107  C2112   1.397   .     A
C2108  C2135   1.448   .     S
C2108  C2111   1.409   .     A
C2108  C1606   1.378   1_565 S
C2109  O2137   1.387   .     S
C2109  C2111   1.414   .     A
C2109  C1603   1.383   1_565 S
C2110  O2145   1.385   .     S
C2110  C2112   1.406   .     A
C2113  N2118   1.353   .     A
C2113  O2153   1.395   .     S
C2114  N2117   1.357   .     A
C2114  O2161   1.389   .     S
C2114  C604    1.443   1_556 S
C2115  N2117   1.404   .     A
C2115  O2169   1.395   .     S
C2115  C601    1.456   1_556 S
C2116  O2177   1.398   .     S
C2116  N2118   1.402   .     A
N2117  Zn2127  2.023   .     S
N2118  Zn2128  2.023   .     S
O2119  Zn2127  2.015   .     S
O2120  Zn2128  2.015   .     S
O2121  Zn2128  2.014   .     S
O2122  Zn2127  2.014   .     S
O2123  Zn2127  2.006   .     S
O2124  Zn2128  2.006   .     S
O2125  Zn2128  2.022   .     S
O2126  Zn2127  2.022   .     S
C2129  N2130   1.157   .     T
C2129  C2189   1.458   .     S
C2131  N2132   1.157   .     T
C2133  N2134   1.155   .     T
C2135  N2136   1.156   .     T
O2137  C2138   1.417   .     S
C2138  C2141   1.524   .     S
C2138  H2140   1.113   .     S
C2138  H2139   1.109   .     S
C2141  H2142   1.107   .     S
C2141  H2143   1.108   .     S
C2141  H2144   1.109   .     S
O2145  C2146   1.417   .     S
C2146  C2149   1.517   .     S
C2146  H2147   1.119   .     S
C2146  H2148   1.111   .     S
C2149  H2151   1.105   .     S
C2149  H2152   1.108   .     S
C2149  H2150   1.108   .     S
O2153  C2154   1.398   .     S
C2154  H2156   1.111   .     S
C2154  H2155   1.107   .     S
C2154  C2157   1.524   .     S
C2157  H2159   1.109   .     S
C2157  H2160   1.109   .     S
C2157  H2158   1.106   .     S
O2161  C2162   1.402   .     S
C2162  H2164   1.113   .     S
C2162  H2163   1.105   .     S
C2162  C2165   1.523   .     S
C2165  H2167   1.111   .     S
C2165  H2168   1.111   .     S
C2165  H2166   1.107   .     S
O2169  C2170   1.415   .     S
C2170  H2171   1.091   .     S
C2170  C2173   1.530   .     S
C2170  H2172   1.112   .     S
C2173  H2174   1.104   .     S
C2173  H2175   1.112   .     S
C2173  H2176   1.105   .     S
O2177  C2178   1.420   .     S
C2178  H2180   1.114   .     S
C2178  H2179   1.101   .     S
C2178  C2181   1.529   .     S
C2181  H2182   1.107   .     S
C2181  H2183   1.112   .     S
C2181  H2184   1.105   .     S
C2185  O2205   1.299   .     A
C2185  C2196   1.439   .     S
C2185  O2203   1.286   .     A
C2186  O2206   1.297   .     A
C2186  C2195   1.443   .     S
C2186  O2204   1.290   .     A
C2187  O2207   1.280   .     A
C2187  O2209   1.293   .     A
C2187  C2189   1.418   .     S
C2188  O2208   1.278   .     A
C2188  C2190   1.420   .     S
C2188  O2210   1.297   .     A
C2190  C2021   1.365   1_655 S
C2190  C2047   1.456   1_655 S
C2191  C2217   1.446   .     S
C2191  C2196   1.397   .     A
C2192  C2219   1.448   .     S
C2192  C2195   1.409   .     A
C2192  C1690   1.378   1_565 S
C2193  O2221   1.387   .     S
C2193  C2195   1.414   .     A
C2193  C1687   1.383   1_565 S
C2194  O2229   1.385   .     S
C2194  C2196   1.406   .     A
C2197  N2202   1.353   .     A
C2197  O2237   1.395   .     S
C2198  N2201   1.357   .     A
C2198  O2245   1.389   .     S
C2198  C688    1.443   1_556 S
C2199  N2201   1.404   .     A
C2199  O2253   1.395   .     S
C2199  C685    1.456   1_556 S
C2200  O2261   1.398   .     S
C2200  N2202   1.402   .     A
N2201  Zn2211  2.023   .     S
N2202  Zn2212  2.023   .     S
O2203  Zn2211  2.015   .     S
O2204  Zn2212  2.015   .     S
O2205  Zn2212  2.014   .     S
O2206  Zn2211  2.014   .     S
O2207  Zn2211  2.006   .     S
O2208  Zn2212  2.006   .     S
O2209  Zn2212  2.022   .     S
O2210  Zn2211  2.022   .     S
C2213  N2214   1.157   .     T
C2213  C2021   1.458   1_655 S
C2215  N2216   1.157   .     T
C2217  N2218   1.155   .     T
C2219  N2220   1.156   .     T
O2221  C2222   1.417   .     S
C2222  C2225   1.524   .     S
C2222  H2224   1.113   .     S
C2222  H2223   1.109   .     S
C2225  H2226   1.107   .     S
C2225  H2227   1.108   .     S
C2225  H2228   1.109   .     S
O2229  C2230   1.417   .     S
C2230  C2233   1.517   .     S
C2230  H2231   1.119   .     S
C2230  H2232   1.111   .     S
C2233  H2235   1.105   .     S
C2233  H2236   1.108   .     S
C2233  H2234   1.108   .     S
O2237  C2238   1.398   .     S
C2238  H2240   1.111   .     S
C2238  H2239   1.107   .     S
C2238  C2241   1.524   .     S
C2241  H2243   1.109   .     S
C2241  H2244   1.109   .     S
C2241  H2242   1.106   .     S
O2245  C2246   1.402   .     S
C2246  H2248   1.113   .     S
C2246  H2247   1.105   .     S
C2246  C2249   1.523   .     S
C2249  H2251   1.111   .     S
C2249  H2252   1.111   .     S
C2249  H2250   1.107   .     S
O2253  C2254   1.415   .     S
C2254  H2255   1.091   .     S
C2254  C2257   1.530   .     S
C2254  H2256   1.112   .     S
C2257  H2258   1.104   .     S
C2257  H2259   1.112   .     S
C2257  H2260   1.105   .     S
O2261  C2262   1.420   .     S
C2262  H2264   1.114   .     S
C2262  H2263   1.101   .     S
C2262  C2265   1.529   .     S
C2265  H2266   1.107   .     S
C2265  H2267   1.112   .     S
C2265  H2268   1.105   .     S
