data_str_m3_o1_o18_pcu_sym.93
_audit_creation_date              2020-01-03
_audit_creation_method            'Materials Studio'
_symmetry_space_group_name_H-M    'P1'
_symmetry_Int_Tables_number       1
_symmetry_cell_setting            triclinic
loop_
_symmetry_equiv_pos_as_xyz
  x,y,z
_cell_length_a                    29.5637
_cell_length_b                    31.9584
_cell_length_c                    31.1696
_cell_angle_alpha                 89.8463
_cell_angle_beta                  66.9856
_cell_angle_gamma                 89.7915
loop_
_atom_site_label
_atom_site_type_symbol
_atom_site_fract_x
_atom_site_fract_y
_atom_site_fract_z
_atom_site_U_iso_or_equiv
_atom_site_adp_type
_atom_site_occupancy
Br1    Br    0.31385   0.19692   0.10651   0.00000  Uiso   1.00
Br2    Br    0.02373   0.12580   0.38943   0.00000  Uiso   1.00
C3     C     0.16715   0.24657   0.24861   0.00000  Uiso   1.00
C4     C     0.12639   0.31087   0.27993   0.00000  Uiso   1.00
C5     C     0.16642   0.04258   0.25208   0.00000  Uiso   1.00
C6     C     0.16721   0.29069   0.24731   0.00000  Uiso   1.00
C7     C     0.32218   0.14259   0.21909   0.00000  Uiso   1.00
C8     C     0.01114   0.19071   0.28094   0.00000  Uiso   1.00
C9     C     0.03676   0.14257   0.21912   0.00000  Uiso   1.00
C10    C     0.29657   0.19073   0.28090   0.00000  Uiso   1.00
C11    C     0.13561   0.16611   0.33813   0.00000  Uiso   1.00
C12    C     0.19771   0.16685   0.16181   0.00000  Uiso   1.00
C13    C     0.11560   0.16192   0.38893   0.00000  Uiso   1.00
C14    C     0.16634   0.08674   0.25105   0.00000  Uiso   1.00
C15    C     0.21784   0.16709   0.11069   0.00000  Uiso   1.00
C16    C     0.05920   0.13249   0.46172   0.00000  Uiso   1.00
C17    C     0.27872   0.18513   0.03465   0.00000  Uiso   1.00
C18    C     0.07040   0.14235   0.41507   0.00000  Uiso   1.00
C19    C     0.26565   0.18082   0.08253   0.00000  Uiso   1.00
C20    C     0.14701   0.17306   0.41060   0.00000  Uiso   1.00
C21    C     0.18558   0.15557   0.08994   0.00000  Uiso   1.00
C22    C     0.13891   0.15929   0.45554   0.00000  Uiso   1.00
C23    C     0.19770   0.16039   0.04221   0.00000  Uiso   1.00
C24    C     0.09349   0.13977   0.48169   0.00000  Uiso   1.00
C25    C     0.11728   0.13268   0.04688   0.00000  Uiso   1.00
C26    C     0.24478   0.17640   0.01467   0.00000  Uiso   1.00
C27    C     0.17504   0.16386   0.47471   0.00000  Uiso   1.00
C28    C     0.16318   0.15216   0.02183   0.00000  Uiso   1.00
C29    C     0.22312   0.17849   0.44790   0.00000  Uiso   1.00
C30    C     0.08326   0.12667   0.02703   0.00000  Uiso   1.00
C31    C     0.25718   0.18452   0.46767   0.00000  Uiso   1.00
C32    C     0.20787   0.31287   0.21602   0.00000  Uiso   1.00
C33    C     0.12583   0.02036   0.28335   0.00000  Uiso   1.00
C34    C     0.20723   0.02241   0.21939   0.00000  Uiso   1.00
H35    H     0.04881   0.11129   0.04726   0.00000  Uiso   1.00
H36    H     0.09575   0.29314   0.30412   0.00000  Uiso   1.00
H37    H     0.31430   0.12336   0.19436   0.00000  Uiso   1.00
H38    H     0.01901   0.20991   0.30570   0.00000  Uiso   1.00
H39    H     0.06509   0.12326   0.19442   0.00000  Uiso   1.00
H40    H     0.26822   0.21003   0.30562   0.00000  Uiso   1.00
H41    H     0.23872   0.26597   0.17503   0.00000  Uiso   1.00
H42    H     0.09582   0.06679   0.32502   0.00000  Uiso   1.00
H43    H     0.29320   0.19658   0.44617   0.00000  Uiso   1.00
H44    H     0.14969   0.14503   0.11254   0.00000  Uiso   1.00
H45    H     0.17868   0.19157   0.39071   0.00000  Uiso   1.00
H46    H     0.02456   0.11733   0.48178   0.00000  Uiso   1.00
H47    H     0.31495   0.19686   0.01324   0.00000  Uiso   1.00
H48    H     0.10675   0.12026   0.08155   0.00000  Uiso   1.00
H49    H     0.23630   0.18480   0.41109   0.00000  Uiso   1.00
H50    H     0.23787   0.04018   0.19524   0.00000  Uiso   1.00
N51    N     0.04759   0.16668   0.25001   0.00000  Uiso   1.00
N52    N     0.28574   0.16666   0.24999   0.00000  Uiso   1.00
O53    O     0.12846   0.22775   0.25000   0.00000  Uiso   1.00
O54    O     0.08610   0.03885   0.31810   0.00000  Uiso   1.00
O55    O     0.20488   0.10558   0.24999   0.00000  Uiso   1.00
O56    O     0.20490   0.22774   0.25000   0.00000  Uiso   1.00
O57    O     0.12843   0.10559   0.25000   0.00000  Uiso   1.00
O58    O     0.10661   0.16667   0.31612   0.00000  Uiso   1.00
O59    O     0.22672   0.16666   0.18387   0.00000  Uiso   1.00
O60    O     0.18305   0.16666   0.31612   0.00000  Uiso   1.00
O61    O     0.15028   0.16667   0.18388   0.00000  Uiso   1.00
O62    O     0.24779   0.29434   0.18143   0.00000  Uiso   1.00
Zn63   Zn    0.11562   0.16667   0.25000   0.00000  Uiso   1.00
Zn64   Zn    0.21771   0.16666   0.25000   0.00000  Uiso   1.00
Br65   Br    0.64718   0.19692   0.10651   0.00000  Uiso   1.00
Br66   Br    0.35706   0.12580   0.38943   0.00000  Uiso   1.00
C67    C     0.50048   0.24657   0.24861   0.00000  Uiso   1.00
C68    C     0.45973   0.31087   0.27993   0.00000  Uiso   1.00
C69    C     0.49975   0.04258   0.25208   0.00000  Uiso   1.00
C70    C     0.50055   0.29069   0.24731   0.00000  Uiso   1.00
C71    C     0.65551   0.14259   0.21909   0.00000  Uiso   1.00
C72    C     0.34447   0.19071   0.28094   0.00000  Uiso   1.00
C73    C     0.37009   0.14257   0.21912   0.00000  Uiso   1.00
C74    C     0.62990   0.19073   0.28090   0.00000  Uiso   1.00
C75    C     0.46895   0.16611   0.33813   0.00000  Uiso   1.00
C76    C     0.53104   0.16685   0.16181   0.00000  Uiso   1.00
C77    C     0.44894   0.16192   0.38893   0.00000  Uiso   1.00
C78    C     0.49968   0.08674   0.25105   0.00000  Uiso   1.00
C79    C     0.55117   0.16709   0.11069   0.00000  Uiso   1.00
C80    C     0.39253   0.13249   0.46172   0.00000  Uiso   1.00
C81    C     0.61206   0.18513   0.03465   0.00000  Uiso   1.00
C82    C     0.40373   0.14235   0.41507   0.00000  Uiso   1.00
C83    C     0.59898   0.18082   0.08253   0.00000  Uiso   1.00
C84    C     0.48034   0.17306   0.41060   0.00000  Uiso   1.00
C85    C     0.51891   0.15557   0.08994   0.00000  Uiso   1.00
C86    C     0.47224   0.15929   0.45554   0.00000  Uiso   1.00
C87    C     0.53104   0.16039   0.04221   0.00000  Uiso   1.00
C88    C     0.42683   0.13977   0.48169   0.00000  Uiso   1.00
C89    C     0.45061   0.13268   0.04688   0.00000  Uiso   1.00
C90    C     0.57811   0.17640   0.01467   0.00000  Uiso   1.00
C91    C     0.50838   0.16386   0.47471   0.00000  Uiso   1.00
C92    C     0.49652   0.15216   0.02183   0.00000  Uiso   1.00
C93    C     0.55645   0.17849   0.44790   0.00000  Uiso   1.00
C94    C     0.41659   0.12667   0.02703   0.00000  Uiso   1.00
C95    C     0.59052   0.18452   0.46767   0.00000  Uiso   1.00
C96    C     0.54120   0.31287   0.21602   0.00000  Uiso   1.00
C97    C     0.45916   0.02036   0.28335   0.00000  Uiso   1.00
C98    C     0.54057   0.02241   0.21939   0.00000  Uiso   1.00
H99    H     0.38214   0.11129   0.04726   0.00000  Uiso   1.00
H100   H     0.42908   0.29314   0.30412   0.00000  Uiso   1.00
H101   H     0.64763   0.12336   0.19436   0.00000  Uiso   1.00
H102   H     0.35234   0.20991   0.30570   0.00000  Uiso   1.00
H103   H     0.39843   0.12326   0.19442   0.00000  Uiso   1.00
H104   H     0.60155   0.21003   0.30562   0.00000  Uiso   1.00
H105   H     0.57206   0.26597   0.17503   0.00000  Uiso   1.00
H106   H     0.42915   0.06679   0.32502   0.00000  Uiso   1.00
H107   H     0.62654   0.19658   0.44617   0.00000  Uiso   1.00
H108   H     0.48303   0.14503   0.11254   0.00000  Uiso   1.00
H109   H     0.51201   0.19157   0.39071   0.00000  Uiso   1.00
H110   H     0.35789   0.11733   0.48178   0.00000  Uiso   1.00
H111   H     0.64828   0.19686   0.01324   0.00000  Uiso   1.00
H112   H     0.44009   0.12026   0.08155   0.00000  Uiso   1.00
H113   H     0.56963   0.18480   0.41109   0.00000  Uiso   1.00
H114   H     0.57120   0.04018   0.19524   0.00000  Uiso   1.00
N115   N     0.38093   0.16668   0.25001   0.00000  Uiso   1.00
N116   N     0.61907   0.16666   0.24999   0.00000  Uiso   1.00
O117   O     0.46179   0.22775   0.25000   0.00000  Uiso   1.00
O118   O     0.41943   0.03885   0.31810   0.00000  Uiso   1.00
O119   O     0.53821   0.10558   0.24999   0.00000  Uiso   1.00
O120   O     0.53823   0.22774   0.25000   0.00000  Uiso   1.00
O121   O     0.46177   0.10559   0.25000   0.00000  Uiso   1.00
O122   O     0.43994   0.16667   0.31612   0.00000  Uiso   1.00
O123   O     0.56006   0.16666   0.18387   0.00000  Uiso   1.00
O124   O     0.51639   0.16666   0.31612   0.00000  Uiso   1.00
O125   O     0.48361   0.16667   0.18388   0.00000  Uiso   1.00
O126   O     0.58113   0.29434   0.18143   0.00000  Uiso   1.00
Zn127  Zn    0.44896   0.16667   0.25000   0.00000  Uiso   1.00
Zn128  Zn    0.55104   0.16666   0.25000   0.00000  Uiso   1.00
Br129  Br    0.98051   0.19692   0.10651   0.00000  Uiso   1.00
Br130  Br    0.69040   0.12580   0.38943   0.00000  Uiso   1.00
C131   C     0.83381   0.24657   0.24861   0.00000  Uiso   1.00
C132   C     0.79306   0.31087   0.27993   0.00000  Uiso   1.00
C133   C     0.83308   0.04258   0.25208   0.00000  Uiso   1.00
C134   C     0.83388   0.29069   0.24731   0.00000  Uiso   1.00
C135   C     0.98885   0.14259   0.21909   0.00000  Uiso   1.00
C136   C     0.67781   0.19071   0.28094   0.00000  Uiso   1.00
C137   C     0.70342   0.14257   0.21912   0.00000  Uiso   1.00
C138   C     0.96323   0.19073   0.28090   0.00000  Uiso   1.00
C139   C     0.80228   0.16611   0.33813   0.00000  Uiso   1.00
C140   C     0.86438   0.16685   0.16181   0.00000  Uiso   1.00
C141   C     0.78227   0.16192   0.38893   0.00000  Uiso   1.00
C142   C     0.83301   0.08674   0.25105   0.00000  Uiso   1.00
C143   C     0.88450   0.16709   0.11069   0.00000  Uiso   1.00
C144   C     0.72586   0.13249   0.46172   0.00000  Uiso   1.00
C145   C     0.94539   0.18513   0.03465   0.00000  Uiso   1.00
C146   C     0.73706   0.14235   0.41507   0.00000  Uiso   1.00
C147   C     0.93232   0.18082   0.08253   0.00000  Uiso   1.00
C148   C     0.81368   0.17306   0.41060   0.00000  Uiso   1.00
C149   C     0.85225   0.15557   0.08994   0.00000  Uiso   1.00
C150   C     0.80558   0.15929   0.45554   0.00000  Uiso   1.00
C151   C     0.86437   0.16039   0.04221   0.00000  Uiso   1.00
C152   C     0.76016   0.13977   0.48169   0.00000  Uiso   1.00
C153   C     0.78395   0.13268   0.04688   0.00000  Uiso   1.00
C154   C     0.91144   0.17640   0.01467   0.00000  Uiso   1.00
C155   C     0.84171   0.16386   0.47471   0.00000  Uiso   1.00
C156   C     0.82985   0.15216   0.02183   0.00000  Uiso   1.00
C157   C     0.88979   0.17849   0.44790   0.00000  Uiso   1.00
C158   C     0.74992   0.12667   0.02703   0.00000  Uiso   1.00
C159   C     0.92385   0.18452   0.46767   0.00000  Uiso   1.00
C160   C     0.87454   0.31287   0.21602   0.00000  Uiso   1.00
C161   C     0.79250   0.02036   0.28335   0.00000  Uiso   1.00
C162   C     0.87390   0.02241   0.21939   0.00000  Uiso   1.00
H163   H     0.71548   0.11129   0.04726   0.00000  Uiso   1.00
H164   H     0.76241   0.29314   0.30412   0.00000  Uiso   1.00
H165   H     0.98097   0.12336   0.19436   0.00000  Uiso   1.00
H166   H     0.68568   0.20991   0.30570   0.00000  Uiso   1.00
H167   H     0.73176   0.12326   0.19442   0.00000  Uiso   1.00
H168   H     0.93488   0.21003   0.30562   0.00000  Uiso   1.00
H169   H     0.90539   0.26597   0.17503   0.00000  Uiso   1.00
H170   H     0.76248   0.06679   0.32502   0.00000  Uiso   1.00
H171   H     0.95987   0.19658   0.44617   0.00000  Uiso   1.00
H172   H     0.81636   0.14503   0.11254   0.00000  Uiso   1.00
H173   H     0.84535   0.19157   0.39071   0.00000  Uiso   1.00
H174   H     0.69123   0.11733   0.48178   0.00000  Uiso   1.00
H175   H     0.98161   0.19686   0.01324   0.00000  Uiso   1.00
H176   H     0.77342   0.12026   0.08155   0.00000  Uiso   1.00
H177   H     0.90297   0.18480   0.41109   0.00000  Uiso   1.00
H178   H     0.90454   0.04018   0.19524   0.00000  Uiso   1.00
N179   N     0.71426   0.16668   0.25001   0.00000  Uiso   1.00
N180   N     0.95241   0.16666   0.24999   0.00000  Uiso   1.00
O181   O     0.79512   0.22775   0.25000   0.00000  Uiso   1.00
O182   O     0.75277   0.03885   0.31810   0.00000  Uiso   1.00
O183   O     0.87154   0.10558   0.24999   0.00000  Uiso   1.00
O184   O     0.87157   0.22774   0.25000   0.00000  Uiso   1.00
O185   O     0.79510   0.10559   0.25000   0.00000  Uiso   1.00
O186   O     0.77328   0.16667   0.31612   0.00000  Uiso   1.00
O187   O     0.89339   0.16666   0.18387   0.00000  Uiso   1.00
O188   O     0.84972   0.16666   0.31612   0.00000  Uiso   1.00
O189   O     0.81695   0.16667   0.18388   0.00000  Uiso   1.00
O190   O     0.91446   0.29434   0.18143   0.00000  Uiso   1.00
Zn191  Zn    0.78229   0.16667   0.25000   0.00000  Uiso   1.00
Zn192  Zn    0.88438   0.16666   0.25000   0.00000  Uiso   1.00
Br193  Br    0.31385   0.53025   0.10651   0.00000  Uiso   1.00
Br194  Br    0.02373   0.45913   0.38943   0.00000  Uiso   1.00
C195   C     0.16715   0.57990   0.24861   0.00000  Uiso   1.00
C196   C     0.12639   0.64420   0.27993   0.00000  Uiso   1.00
C197   C     0.16642   0.37591   0.25208   0.00000  Uiso   1.00
C198   C     0.16721   0.62402   0.24731   0.00000  Uiso   1.00
C199   C     0.32218   0.47593   0.21909   0.00000  Uiso   1.00
C200   C     0.01114   0.52404   0.28094   0.00000  Uiso   1.00
C201   C     0.03676   0.47591   0.21912   0.00000  Uiso   1.00
C202   C     0.29657   0.52407   0.28090   0.00000  Uiso   1.00
C203   C     0.13561   0.49944   0.33813   0.00000  Uiso   1.00
C204   C     0.19771   0.50018   0.16181   0.00000  Uiso   1.00
C205   C     0.11560   0.49525   0.38893   0.00000  Uiso   1.00
C206   C     0.16634   0.42007   0.25105   0.00000  Uiso   1.00
C207   C     0.21784   0.50043   0.11069   0.00000  Uiso   1.00
C208   C     0.05920   0.46583   0.46172   0.00000  Uiso   1.00
C209   C     0.27872   0.51846   0.03465   0.00000  Uiso   1.00
C210   C     0.07040   0.47568   0.41507   0.00000  Uiso   1.00
C211   C     0.26565   0.51415   0.08253   0.00000  Uiso   1.00
C212   C     0.14701   0.50640   0.41060   0.00000  Uiso   1.00
C213   C     0.18558   0.48891   0.08994   0.00000  Uiso   1.00
C214   C     0.13891   0.49262   0.45554   0.00000  Uiso   1.00
C215   C     0.19770   0.49372   0.04221   0.00000  Uiso   1.00
C216   C     0.09349   0.47310   0.48169   0.00000  Uiso   1.00
C217   C     0.11728   0.46601   0.04688   0.00000  Uiso   1.00
C218   C     0.24478   0.50973   0.01467   0.00000  Uiso   1.00
C219   C     0.17504   0.49719   0.47471   0.00000  Uiso   1.00
C220   C     0.16318   0.48550   0.02183   0.00000  Uiso   1.00
C221   C     0.22312   0.51182   0.44790   0.00000  Uiso   1.00
C222   C     0.08326   0.46000   0.02703   0.00000  Uiso   1.00
C223   C     0.25718   0.51786   0.46767   0.00000  Uiso   1.00
C224   C     0.20787   0.64621   0.21602   0.00000  Uiso   1.00
C225   C     0.12583   0.35369   0.28335   0.00000  Uiso   1.00
C226   C     0.20723   0.35575   0.21939   0.00000  Uiso   1.00
H227   H     0.04881   0.44463   0.04726   0.00000  Uiso   1.00
H228   H     0.09575   0.62647   0.30412   0.00000  Uiso   1.00
H229   H     0.31430   0.45669   0.19436   0.00000  Uiso   1.00
H230   H     0.01901   0.54325   0.30570   0.00000  Uiso   1.00
H231   H     0.06509   0.45659   0.19442   0.00000  Uiso   1.00
H232   H     0.26822   0.54336   0.30562   0.00000  Uiso   1.00
H233   H     0.23872   0.59930   0.17503   0.00000  Uiso   1.00
H234   H     0.09582   0.40013   0.32502   0.00000  Uiso   1.00
H235   H     0.29320   0.52991   0.44617   0.00000  Uiso   1.00
H236   H     0.14969   0.47837   0.11254   0.00000  Uiso   1.00
H237   H     0.17868   0.52490   0.39071   0.00000  Uiso   1.00
H238   H     0.02456   0.45066   0.48178   0.00000  Uiso   1.00
H239   H     0.31495   0.53019   0.01324   0.00000  Uiso   1.00
H240   H     0.10675   0.45360   0.08155   0.00000  Uiso   1.00
H241   H     0.23630   0.51813   0.41109   0.00000  Uiso   1.00
H242   H     0.23787   0.37351   0.19524   0.00000  Uiso   1.00
N243   N     0.04759   0.50001   0.25001   0.00000  Uiso   1.00
N244   N     0.28574   0.49999   0.24999   0.00000  Uiso   1.00
O245   O     0.12846   0.56108   0.25000   0.00000  Uiso   1.00
O246   O     0.08610   0.37219   0.31810   0.00000  Uiso   1.00
O247   O     0.20488   0.43892   0.24999   0.00000  Uiso   1.00
O248   O     0.20490   0.56107   0.25000   0.00000  Uiso   1.00
O249   O     0.12843   0.43893   0.25000   0.00000  Uiso   1.00
O250   O     0.10661   0.50001   0.31612   0.00000  Uiso   1.00
O251   O     0.22672   0.49999   0.18387   0.00000  Uiso   1.00
O252   O     0.18305   0.50000   0.31612   0.00000  Uiso   1.00
O253   O     0.15028   0.50000   0.18388   0.00000  Uiso   1.00
O254   O     0.24779   0.62768   0.18143   0.00000  Uiso   1.00
Zn255  Zn    0.11562   0.50001   0.25000   0.00000  Uiso   1.00
Zn256  Zn    0.21771   0.49999   0.25000   0.00000  Uiso   1.00
Br257  Br    0.64718   0.53025   0.10651   0.00000  Uiso   1.00
Br258  Br    0.35706   0.45913   0.38943   0.00000  Uiso   1.00
C259   C     0.50048   0.57990   0.24861   0.00000  Uiso   1.00
C260   C     0.45973   0.64420   0.27993   0.00000  Uiso   1.00
C261   C     0.49975   0.37591   0.25208   0.00000  Uiso   1.00
C262   C     0.50055   0.62402   0.24731   0.00000  Uiso   1.00
C263   C     0.65551   0.47593   0.21909   0.00000  Uiso   1.00
C264   C     0.34447   0.52404   0.28094   0.00000  Uiso   1.00
C265   C     0.37009   0.47591   0.21912   0.00000  Uiso   1.00
C266   C     0.62990   0.52407   0.28090   0.00000  Uiso   1.00
C267   C     0.46895   0.49944   0.33813   0.00000  Uiso   1.00
C268   C     0.53104   0.50018   0.16181   0.00000  Uiso   1.00
C269   C     0.44894   0.49525   0.38893   0.00000  Uiso   1.00
C270   C     0.49968   0.42007   0.25105   0.00000  Uiso   1.00
C271   C     0.55117   0.50043   0.11069   0.00000  Uiso   1.00
C272   C     0.39253   0.46583   0.46172   0.00000  Uiso   1.00
C273   C     0.61206   0.51846   0.03465   0.00000  Uiso   1.00
C274   C     0.40373   0.47568   0.41507   0.00000  Uiso   1.00
C275   C     0.59898   0.51415   0.08253   0.00000  Uiso   1.00
C276   C     0.48034   0.50640   0.41060   0.00000  Uiso   1.00
C277   C     0.51891   0.48891   0.08994   0.00000  Uiso   1.00
C278   C     0.47224   0.49262   0.45554   0.00000  Uiso   1.00
C279   C     0.53104   0.49372   0.04221   0.00000  Uiso   1.00
C280   C     0.42683   0.47310   0.48169   0.00000  Uiso   1.00
C281   C     0.45061   0.46601   0.04688   0.00000  Uiso   1.00
C282   C     0.57811   0.50973   0.01467   0.00000  Uiso   1.00
C283   C     0.50838   0.49719   0.47471   0.00000  Uiso   1.00
C284   C     0.49652   0.48550   0.02183   0.00000  Uiso   1.00
C285   C     0.55645   0.51182   0.44790   0.00000  Uiso   1.00
C286   C     0.41659   0.46000   0.02703   0.00000  Uiso   1.00
C287   C     0.59052   0.51786   0.46767   0.00000  Uiso   1.00
C288   C     0.54120   0.64621   0.21602   0.00000  Uiso   1.00
C289   C     0.45916   0.35369   0.28335   0.00000  Uiso   1.00
C290   C     0.54057   0.35575   0.21939   0.00000  Uiso   1.00
H291   H     0.38214   0.44463   0.04726   0.00000  Uiso   1.00
H292   H     0.42908   0.62647   0.30412   0.00000  Uiso   1.00
H293   H     0.64763   0.45669   0.19436   0.00000  Uiso   1.00
H294   H     0.35234   0.54325   0.30570   0.00000  Uiso   1.00
H295   H     0.39843   0.45659   0.19442   0.00000  Uiso   1.00
H296   H     0.60155   0.54336   0.30562   0.00000  Uiso   1.00
H297   H     0.57206   0.59930   0.17503   0.00000  Uiso   1.00
H298   H     0.42915   0.40013   0.32502   0.00000  Uiso   1.00
H299   H     0.62654   0.52991   0.44617   0.00000  Uiso   1.00
H300   H     0.48303   0.47837   0.11254   0.00000  Uiso   1.00
H301   H     0.51201   0.52490   0.39071   0.00000  Uiso   1.00
H302   H     0.35789   0.45066   0.48178   0.00000  Uiso   1.00
H303   H     0.64828   0.53019   0.01324   0.00000  Uiso   1.00
H304   H     0.44009   0.45360   0.08155   0.00000  Uiso   1.00
H305   H     0.56963   0.51813   0.41109   0.00000  Uiso   1.00
H306   H     0.57120   0.37351   0.19524   0.00000  Uiso   1.00
N307   N     0.38093   0.50001   0.25001   0.00000  Uiso   1.00
N308   N     0.61907   0.49999   0.24999   0.00000  Uiso   1.00
O309   O     0.46179   0.56108   0.25000   0.00000  Uiso   1.00
O310   O     0.41943   0.37219   0.31810   0.00000  Uiso   1.00
O311   O     0.53821   0.43892   0.24999   0.00000  Uiso   1.00
O312   O     0.53823   0.56107   0.25000   0.00000  Uiso   1.00
O313   O     0.46177   0.43893   0.25000   0.00000  Uiso   1.00
O314   O     0.43994   0.50001   0.31612   0.00000  Uiso   1.00
O315   O     0.56006   0.49999   0.18387   0.00000  Uiso   1.00
O316   O     0.51639   0.50000   0.31612   0.00000  Uiso   1.00
O317   O     0.48361   0.50000   0.18388   0.00000  Uiso   1.00
O318   O     0.58113   0.62768   0.18143   0.00000  Uiso   1.00
Zn319  Zn    0.44896   0.50001   0.25000   0.00000  Uiso   1.00
Zn320  Zn    0.55104   0.49999   0.25000   0.00000  Uiso   1.00
Br321  Br    0.98051   0.53025   0.10651   0.00000  Uiso   1.00
Br322  Br    0.69040   0.45913   0.38943   0.00000  Uiso   1.00
C323   C     0.83381   0.57990   0.24861   0.00000  Uiso   1.00
C324   C     0.79306   0.64420   0.27993   0.00000  Uiso   1.00
C325   C     0.83308   0.37591   0.25208   0.00000  Uiso   1.00
C326   C     0.83388   0.62402   0.24731   0.00000  Uiso   1.00
C327   C     0.98885   0.47593   0.21909   0.00000  Uiso   1.00
C328   C     0.67781   0.52404   0.28094   0.00000  Uiso   1.00
C329   C     0.70342   0.47591   0.21912   0.00000  Uiso   1.00
C330   C     0.96323   0.52407   0.28090   0.00000  Uiso   1.00
C331   C     0.80228   0.49944   0.33813   0.00000  Uiso   1.00
C332   C     0.86438   0.50018   0.16181   0.00000  Uiso   1.00
C333   C     0.78227   0.49525   0.38893   0.00000  Uiso   1.00
C334   C     0.83301   0.42007   0.25105   0.00000  Uiso   1.00
C335   C     0.88450   0.50043   0.11069   0.00000  Uiso   1.00
C336   C     0.72586   0.46583   0.46172   0.00000  Uiso   1.00
C337   C     0.94539   0.51846   0.03465   0.00000  Uiso   1.00
C338   C     0.73706   0.47568   0.41507   0.00000  Uiso   1.00
C339   C     0.93232   0.51415   0.08253   0.00000  Uiso   1.00
C340   C     0.81368   0.50640   0.41060   0.00000  Uiso   1.00
C341   C     0.85225   0.48891   0.08994   0.00000  Uiso   1.00
C342   C     0.80558   0.49262   0.45554   0.00000  Uiso   1.00
C343   C     0.86437   0.49372   0.04221   0.00000  Uiso   1.00
C344   C     0.76016   0.47310   0.48169   0.00000  Uiso   1.00
C345   C     0.78395   0.46601   0.04688   0.00000  Uiso   1.00
C346   C     0.91144   0.50973   0.01467   0.00000  Uiso   1.00
C347   C     0.84171   0.49719   0.47471   0.00000  Uiso   1.00
C348   C     0.82985   0.48550   0.02183   0.00000  Uiso   1.00
C349   C     0.88979   0.51182   0.44790   0.00000  Uiso   1.00
C350   C     0.74992   0.46000   0.02703   0.00000  Uiso   1.00
C351   C     0.92385   0.51786   0.46767   0.00000  Uiso   1.00
C352   C     0.87454   0.64621   0.21602   0.00000  Uiso   1.00
C353   C     0.79250   0.35369   0.28335   0.00000  Uiso   1.00
C354   C     0.87390   0.35575   0.21939   0.00000  Uiso   1.00
H355   H     0.71548   0.44463   0.04726   0.00000  Uiso   1.00
H356   H     0.76241   0.62647   0.30412   0.00000  Uiso   1.00
H357   H     0.98097   0.45669   0.19436   0.00000  Uiso   1.00
H358   H     0.68568   0.54325   0.30570   0.00000  Uiso   1.00
H359   H     0.73176   0.45659   0.19442   0.00000  Uiso   1.00
H360   H     0.93488   0.54336   0.30562   0.00000  Uiso   1.00
H361   H     0.90539   0.59930   0.17503   0.00000  Uiso   1.00
H362   H     0.76248   0.40013   0.32502   0.00000  Uiso   1.00
H363   H     0.95987   0.52991   0.44617   0.00000  Uiso   1.00
H364   H     0.81636   0.47837   0.11254   0.00000  Uiso   1.00
H365   H     0.84535   0.52490   0.39071   0.00000  Uiso   1.00
H366   H     0.69123   0.45066   0.48178   0.00000  Uiso   1.00
H367   H     0.98161   0.53019   0.01324   0.00000  Uiso   1.00
H368   H     0.77342   0.45360   0.08155   0.00000  Uiso   1.00
H369   H     0.90297   0.51813   0.41109   0.00000  Uiso   1.00
H370   H     0.90454   0.37351   0.19524   0.00000  Uiso   1.00
N371   N     0.71426   0.50001   0.25001   0.00000  Uiso   1.00
N372   N     0.95241   0.49999   0.24999   0.00000  Uiso   1.00
O373   O     0.79512   0.56108   0.25000   0.00000  Uiso   1.00
O374   O     0.75277   0.37219   0.31810   0.00000  Uiso   1.00
O375   O     0.87154   0.43892   0.24999   0.00000  Uiso   1.00
O376   O     0.87157   0.56107   0.25000   0.00000  Uiso   1.00
O377   O     0.79510   0.43893   0.25000   0.00000  Uiso   1.00
O378   O     0.77328   0.50001   0.31612   0.00000  Uiso   1.00
O379   O     0.89339   0.49999   0.18387   0.00000  Uiso   1.00
O380   O     0.84972   0.50000   0.31612   0.00000  Uiso   1.00
O381   O     0.81695   0.50000   0.18388   0.00000  Uiso   1.00
O382   O     0.91446   0.62768   0.18143   0.00000  Uiso   1.00
Zn383  Zn    0.78229   0.50001   0.25000   0.00000  Uiso   1.00
Zn384  Zn    0.88438   0.49999   0.25000   0.00000  Uiso   1.00
Br385  Br    0.31385   0.86358   0.10651   0.00000  Uiso   1.00
Br386  Br    0.02373   0.79247   0.38943   0.00000  Uiso   1.00
C387   C     0.16715   0.91323   0.24861   0.00000  Uiso   1.00
C388   C     0.12639   0.97753   0.27993   0.00000  Uiso   1.00
C389   C     0.16642   0.70925   0.25208   0.00000  Uiso   1.00
C390   C     0.16721   0.95735   0.24731   0.00000  Uiso   1.00
C391   C     0.32218   0.80926   0.21909   0.00000  Uiso   1.00
C392   C     0.01114   0.85738   0.28094   0.00000  Uiso   1.00
C393   C     0.03676   0.80924   0.21912   0.00000  Uiso   1.00
C394   C     0.29657   0.85740   0.28090   0.00000  Uiso   1.00
C395   C     0.13561   0.83278   0.33813   0.00000  Uiso   1.00
C396   C     0.19771   0.83352   0.16181   0.00000  Uiso   1.00
C397   C     0.11560   0.82858   0.38893   0.00000  Uiso   1.00
C398   C     0.16634   0.75340   0.25105   0.00000  Uiso   1.00
C399   C     0.21784   0.83376   0.11069   0.00000  Uiso   1.00
C400   C     0.05920   0.79916   0.46172   0.00000  Uiso   1.00
C401   C     0.27872   0.85180   0.03465   0.00000  Uiso   1.00
C402   C     0.07040   0.80902   0.41507   0.00000  Uiso   1.00
C403   C     0.26565   0.84748   0.08253   0.00000  Uiso   1.00
C404   C     0.14701   0.83973   0.41060   0.00000  Uiso   1.00
C405   C     0.18558   0.82224   0.08994   0.00000  Uiso   1.00
C406   C     0.13891   0.82596   0.45554   0.00000  Uiso   1.00
C407   C     0.19770   0.82706   0.04221   0.00000  Uiso   1.00
C408   C     0.09349   0.80643   0.48169   0.00000  Uiso   1.00
C409   C     0.11728   0.79934   0.04688   0.00000  Uiso   1.00
C410   C     0.24478   0.84307   0.01467   0.00000  Uiso   1.00
C411   C     0.17504   0.83052   0.47471   0.00000  Uiso   1.00
C412   C     0.16318   0.81883   0.02183   0.00000  Uiso   1.00
C413   C     0.22312   0.84515   0.44790   0.00000  Uiso   1.00
C414   C     0.08326   0.79333   0.02703   0.00000  Uiso   1.00
C415   C     0.25718   0.85119   0.46767   0.00000  Uiso   1.00
C416   C     0.20787   0.97954   0.21602   0.00000  Uiso   1.00
C417   C     0.12583   0.68702   0.28335   0.00000  Uiso   1.00
C418   C     0.20723   0.68908   0.21939   0.00000  Uiso   1.00
H419   H     0.04881   0.77796   0.04726   0.00000  Uiso   1.00
H420   H     0.09575   0.95981   0.30412   0.00000  Uiso   1.00
H421   H     0.31430   0.79002   0.19436   0.00000  Uiso   1.00
H422   H     0.01901   0.87658   0.30570   0.00000  Uiso   1.00
H423   H     0.06509   0.78992   0.19442   0.00000  Uiso   1.00
H424   H     0.26822   0.87669   0.30562   0.00000  Uiso   1.00
H425   H     0.23872   0.93263   0.17503   0.00000  Uiso   1.00
H426   H     0.09582   0.73346   0.32502   0.00000  Uiso   1.00
H427   H     0.29320   0.86325   0.44617   0.00000  Uiso   1.00
H428   H     0.14969   0.81170   0.11254   0.00000  Uiso   1.00
H429   H     0.17868   0.85824   0.39071   0.00000  Uiso   1.00
H430   H     0.02456   0.78400   0.48178   0.00000  Uiso   1.00
H431   H     0.31495   0.86353   0.01324   0.00000  Uiso   1.00
H432   H     0.10675   0.78693   0.08155   0.00000  Uiso   1.00
H433   H     0.23630   0.85146   0.41109   0.00000  Uiso   1.00
H434   H     0.23787   0.70684   0.19524   0.00000  Uiso   1.00
N435   N     0.04759   0.83334   0.25001   0.00000  Uiso   1.00
N436   N     0.28574   0.83332   0.24999   0.00000  Uiso   1.00
O437   O     0.12846   0.89442   0.25000   0.00000  Uiso   1.00
O438   O     0.08610   0.70552   0.31810   0.00000  Uiso   1.00
O439   O     0.20488   0.77225   0.24999   0.00000  Uiso   1.00
O440   O     0.20490   0.89441   0.25000   0.00000  Uiso   1.00
O441   O     0.12843   0.77226   0.25000   0.00000  Uiso   1.00
O442   O     0.10661   0.83334   0.31612   0.00000  Uiso   1.00
O443   O     0.22672   0.83333   0.18387   0.00000  Uiso   1.00
O444   O     0.18305   0.83333   0.31612   0.00000  Uiso   1.00
O445   O     0.15028   0.83334   0.18388   0.00000  Uiso   1.00
O446   O     0.24779   0.96101   0.18143   0.00000  Uiso   1.00
Zn447  Zn    0.11562   0.83334   0.25000   0.00000  Uiso   1.00
Zn448  Zn    0.21771   0.83333   0.25000   0.00000  Uiso   1.00
Br449  Br    0.64718   0.86358   0.10651   0.00000  Uiso   1.00
Br450  Br    0.35706   0.79247   0.38943   0.00000  Uiso   1.00
C451   C     0.50048   0.91323   0.24861   0.00000  Uiso   1.00
C452   C     0.45973   0.97753   0.27993   0.00000  Uiso   1.00
C453   C     0.49975   0.70925   0.25208   0.00000  Uiso   1.00
C454   C     0.50055   0.95735   0.24731   0.00000  Uiso   1.00
C455   C     0.65551   0.80926   0.21909   0.00000  Uiso   1.00
C456   C     0.34447   0.85738   0.28094   0.00000  Uiso   1.00
C457   C     0.37009   0.80924   0.21912   0.00000  Uiso   1.00
C458   C     0.62990   0.85740   0.28090   0.00000  Uiso   1.00
C459   C     0.46895   0.83278   0.33813   0.00000  Uiso   1.00
C460   C     0.53104   0.83352   0.16181   0.00000  Uiso   1.00
C461   C     0.44894   0.82858   0.38893   0.00000  Uiso   1.00
C462   C     0.49968   0.75340   0.25105   0.00000  Uiso   1.00
C463   C     0.55117   0.83376   0.11069   0.00000  Uiso   1.00
C464   C     0.39253   0.79916   0.46172   0.00000  Uiso   1.00
C465   C     0.61206   0.85180   0.03465   0.00000  Uiso   1.00
C466   C     0.40373   0.80902   0.41507   0.00000  Uiso   1.00
C467   C     0.59898   0.84748   0.08253   0.00000  Uiso   1.00
C468   C     0.48034   0.83973   0.41060   0.00000  Uiso   1.00
C469   C     0.51891   0.82224   0.08994   0.00000  Uiso   1.00
C470   C     0.47224   0.82596   0.45554   0.00000  Uiso   1.00
C471   C     0.53104   0.82706   0.04221   0.00000  Uiso   1.00
C472   C     0.42683   0.80643   0.48169   0.00000  Uiso   1.00
C473   C     0.45061   0.79934   0.04688   0.00000  Uiso   1.00
C474   C     0.57811   0.84307   0.01467   0.00000  Uiso   1.00
C475   C     0.50838   0.83052   0.47471   0.00000  Uiso   1.00
C476   C     0.49652   0.81883   0.02183   0.00000  Uiso   1.00
C477   C     0.55645   0.84515   0.44790   0.00000  Uiso   1.00
C478   C     0.41659   0.79333   0.02703   0.00000  Uiso   1.00
C479   C     0.59052   0.85119   0.46767   0.00000  Uiso   1.00
C480   C     0.54120   0.97954   0.21602   0.00000  Uiso   1.00
C481   C     0.45916   0.68702   0.28335   0.00000  Uiso   1.00
C482   C     0.54057   0.68908   0.21939   0.00000  Uiso   1.00
H483   H     0.38214   0.77796   0.04726   0.00000  Uiso   1.00
H484   H     0.42908   0.95981   0.30412   0.00000  Uiso   1.00
H485   H     0.64763   0.79002   0.19436   0.00000  Uiso   1.00
H486   H     0.35234   0.87658   0.30570   0.00000  Uiso   1.00
H487   H     0.39843   0.78992   0.19442   0.00000  Uiso   1.00
H488   H     0.60155   0.87669   0.30562   0.00000  Uiso   1.00
H489   H     0.57206   0.93263   0.17503   0.00000  Uiso   1.00
H490   H     0.42915   0.73346   0.32502   0.00000  Uiso   1.00
H491   H     0.62654   0.86325   0.44617   0.00000  Uiso   1.00
H492   H     0.48303   0.81170   0.11254   0.00000  Uiso   1.00
H493   H     0.51201   0.85824   0.39071   0.00000  Uiso   1.00
H494   H     0.35789   0.78400   0.48178   0.00000  Uiso   1.00
H495   H     0.64828   0.86353   0.01324   0.00000  Uiso   1.00
H496   H     0.44009   0.78693   0.08155   0.00000  Uiso   1.00
H497   H     0.56963   0.85146   0.41109   0.00000  Uiso   1.00
H498   H     0.57120   0.70684   0.19524   0.00000  Uiso   1.00
N499   N     0.38093   0.83334   0.25001   0.00000  Uiso   1.00
N500   N     0.61907   0.83332   0.24999   0.00000  Uiso   1.00
O501   O     0.46179   0.89442   0.25000   0.00000  Uiso   1.00
O502   O     0.41943   0.70552   0.31810   0.00000  Uiso   1.00
O503   O     0.53821   0.77225   0.24999   0.00000  Uiso   1.00
O504   O     0.53823   0.89441   0.25000   0.00000  Uiso   1.00
O505   O     0.46177   0.77226   0.25000   0.00000  Uiso   1.00
O506   O     0.43994   0.83334   0.31612   0.00000  Uiso   1.00
O507   O     0.56006   0.83333   0.18387   0.00000  Uiso   1.00
O508   O     0.51639   0.83333   0.31612   0.00000  Uiso   1.00
O509   O     0.48361   0.83334   0.18388   0.00000  Uiso   1.00
O510   O     0.58113   0.96101   0.18143   0.00000  Uiso   1.00
Zn511  Zn    0.44896   0.83334   0.25000   0.00000  Uiso   1.00
Zn512  Zn    0.55104   0.83333   0.25000   0.00000  Uiso   1.00
Br513  Br    0.98051   0.86358   0.10651   0.00000  Uiso   1.00
Br514  Br    0.69040   0.79247   0.38943   0.00000  Uiso   1.00
C515   C     0.83381   0.91323   0.24861   0.00000  Uiso   1.00
C516   C     0.79306   0.97753   0.27993   0.00000  Uiso   1.00
C517   C     0.83308   0.70925   0.25208   0.00000  Uiso   1.00
C518   C     0.83388   0.95735   0.24731   0.00000  Uiso   1.00
C519   C     0.98885   0.80926   0.21909   0.00000  Uiso   1.00
C520   C     0.67781   0.85738   0.28094   0.00000  Uiso   1.00
C521   C     0.70342   0.80924   0.21912   0.00000  Uiso   1.00
C522   C     0.96323   0.85740   0.28090   0.00000  Uiso   1.00
C523   C     0.80228   0.83278   0.33813   0.00000  Uiso   1.00
C524   C     0.86438   0.83352   0.16181   0.00000  Uiso   1.00
C525   C     0.78227   0.82858   0.38893   0.00000  Uiso   1.00
C526   C     0.83301   0.75340   0.25105   0.00000  Uiso   1.00
C527   C     0.88450   0.83376   0.11069   0.00000  Uiso   1.00
C528   C     0.72586   0.79916   0.46172   0.00000  Uiso   1.00
C529   C     0.94539   0.85180   0.03465   0.00000  Uiso   1.00
C530   C     0.73706   0.80902   0.41507   0.00000  Uiso   1.00
C531   C     0.93232   0.84748   0.08253   0.00000  Uiso   1.00
C532   C     0.81368   0.83973   0.41060   0.00000  Uiso   1.00
C533   C     0.85225   0.82224   0.08994   0.00000  Uiso   1.00
C534   C     0.80558   0.82596   0.45554   0.00000  Uiso   1.00
C535   C     0.86437   0.82706   0.04221   0.00000  Uiso   1.00
C536   C     0.76016   0.80643   0.48169   0.00000  Uiso   1.00
C537   C     0.78395   0.79934   0.04688   0.00000  Uiso   1.00
C538   C     0.91144   0.84307   0.01467   0.00000  Uiso   1.00
C539   C     0.84171   0.83052   0.47471   0.00000  Uiso   1.00
C540   C     0.82985   0.81883   0.02183   0.00000  Uiso   1.00
C541   C     0.88979   0.84515   0.44790   0.00000  Uiso   1.00
C542   C     0.74992   0.79333   0.02703   0.00000  Uiso   1.00
C543   C     0.92385   0.85119   0.46767   0.00000  Uiso   1.00
C544   C     0.87454   0.97954   0.21602   0.00000  Uiso   1.00
C545   C     0.79250   0.68702   0.28335   0.00000  Uiso   1.00
C546   C     0.87390   0.68908   0.21939   0.00000  Uiso   1.00
H547   H     0.71548   0.77796   0.04726   0.00000  Uiso   1.00
H548   H     0.76241   0.95981   0.30412   0.00000  Uiso   1.00
H549   H     0.98097   0.79002   0.19436   0.00000  Uiso   1.00
H550   H     0.68568   0.87658   0.30570   0.00000  Uiso   1.00
H551   H     0.73176   0.78992   0.19442   0.00000  Uiso   1.00
H552   H     0.93488   0.87669   0.30562   0.00000  Uiso   1.00
H553   H     0.90539   0.93263   0.17503   0.00000  Uiso   1.00
H554   H     0.76248   0.73346   0.32502   0.00000  Uiso   1.00
H555   H     0.95987   0.86325   0.44617   0.00000  Uiso   1.00
H556   H     0.81636   0.81170   0.11254   0.00000  Uiso   1.00
H557   H     0.84535   0.85824   0.39071   0.00000  Uiso   1.00
H558   H     0.69123   0.78400   0.48178   0.00000  Uiso   1.00
H559   H     0.98161   0.86353   0.01324   0.00000  Uiso   1.00
H560   H     0.77342   0.78693   0.08155   0.00000  Uiso   1.00
H561   H     0.90297   0.85146   0.41109   0.00000  Uiso   1.00
H562   H     0.90454   0.70684   0.19524   0.00000  Uiso   1.00
N563   N     0.71426   0.83334   0.25001   0.00000  Uiso   1.00
N564   N     0.95241   0.83332   0.24999   0.00000  Uiso   1.00
O565   O     0.79512   0.89442   0.25000   0.00000  Uiso   1.00
O566   O     0.75277   0.70552   0.31810   0.00000  Uiso   1.00
O567   O     0.87154   0.77225   0.24999   0.00000  Uiso   1.00
O568   O     0.87157   0.89441   0.25000   0.00000  Uiso   1.00
O569   O     0.79510   0.77226   0.25000   0.00000  Uiso   1.00
O570   O     0.77328   0.83334   0.31612   0.00000  Uiso   1.00
O571   O     0.89339   0.83333   0.18387   0.00000  Uiso   1.00
O572   O     0.84972   0.83333   0.31612   0.00000  Uiso   1.00
O573   O     0.81695   0.83334   0.18388   0.00000  Uiso   1.00
O574   O     0.91446   0.96101   0.18143   0.00000  Uiso   1.00
Zn575  Zn    0.78229   0.83334   0.25000   0.00000  Uiso   1.00
Zn576  Zn    0.88438   0.83333   0.25000   0.00000  Uiso   1.00
Br577  Br    0.31385   0.19692   0.60651   0.00000  Uiso   1.00
Br578  Br    0.02373   0.12580   0.88943   0.00000  Uiso   1.00
C579   C     0.16715   0.24657   0.74861   0.00000  Uiso   1.00
C580   C     0.12639   0.31087   0.77993   0.00000  Uiso   1.00
C581   C     0.16642   0.04258   0.75208   0.00000  Uiso   1.00
C582   C     0.16721   0.29069   0.74731   0.00000  Uiso   1.00
C583   C     0.32218   0.14259   0.71909   0.00000  Uiso   1.00
C584   C     0.01114   0.19071   0.78094   0.00000  Uiso   1.00
C585   C     0.03676   0.14257   0.71912   0.00000  Uiso   1.00
C586   C     0.29657   0.19073   0.78090   0.00000  Uiso   1.00
C587   C     0.13561   0.16611   0.83813   0.00000  Uiso   1.00
C588   C     0.19771   0.16685   0.66181   0.00000  Uiso   1.00
C589   C     0.11560   0.16192   0.88893   0.00000  Uiso   1.00
C590   C     0.16634   0.08674   0.75105   0.00000  Uiso   1.00
C591   C     0.21784   0.16709   0.61069   0.00000  Uiso   1.00
C592   C     0.05920   0.13249   0.96172   0.00000  Uiso   1.00
C593   C     0.27872   0.18513   0.53465   0.00000  Uiso   1.00
C594   C     0.07040   0.14235   0.91507   0.00000  Uiso   1.00
C595   C     0.26565   0.18082   0.58253   0.00000  Uiso   1.00
C596   C     0.14701   0.17306   0.91060   0.00000  Uiso   1.00
C597   C     0.18558   0.15557   0.58994   0.00000  Uiso   1.00
C598   C     0.13891   0.15929   0.95554   0.00000  Uiso   1.00
C599   C     0.19770   0.16039   0.54221   0.00000  Uiso   1.00
C600   C     0.09349   0.13977   0.98169   0.00000  Uiso   1.00
C601   C     0.11728   0.13268   0.54688   0.00000  Uiso   1.00
C602   C     0.24478   0.17640   0.51467   0.00000  Uiso   1.00
C603   C     0.17504   0.16386   0.97471   0.00000  Uiso   1.00
C604   C     0.16318   0.15216   0.52183   0.00000  Uiso   1.00
C605   C     0.22312   0.17849   0.94790   0.00000  Uiso   1.00
C606   C     0.08326   0.12667   0.52703   0.00000  Uiso   1.00
C607   C     0.25718   0.18452   0.96767   0.00000  Uiso   1.00
C608   C     0.20787   0.31287   0.71602   0.00000  Uiso   1.00
C609   C     0.12583   0.02036   0.78335   0.00000  Uiso   1.00
C610   C     0.20723   0.02241   0.71939   0.00000  Uiso   1.00
H611   H     0.04881   0.11129   0.54726   0.00000  Uiso   1.00
H612   H     0.09575   0.29314   0.80412   0.00000  Uiso   1.00
H613   H     0.31430   0.12336   0.69436   0.00000  Uiso   1.00
H614   H     0.01901   0.20991   0.80570   0.00000  Uiso   1.00
H615   H     0.06509   0.12326   0.69442   0.00000  Uiso   1.00
H616   H     0.26822   0.21003   0.80562   0.00000  Uiso   1.00
H617   H     0.23872   0.26597   0.67503   0.00000  Uiso   1.00
H618   H     0.09582   0.06679   0.82502   0.00000  Uiso   1.00
H619   H     0.29320   0.19658   0.94617   0.00000  Uiso   1.00
H620   H     0.14969   0.14503   0.61254   0.00000  Uiso   1.00
H621   H     0.17868   0.19157   0.89071   0.00000  Uiso   1.00
H622   H     0.02456   0.11733   0.98178   0.00000  Uiso   1.00
H623   H     0.31495   0.19686   0.51324   0.00000  Uiso   1.00
H624   H     0.10675   0.12026   0.58155   0.00000  Uiso   1.00
H625   H     0.23630   0.18480   0.91109   0.00000  Uiso   1.00
H626   H     0.23787   0.04018   0.69524   0.00000  Uiso   1.00
N627   N     0.04759   0.16668   0.75001   0.00000  Uiso   1.00
N628   N     0.28574   0.16666   0.74999   0.00000  Uiso   1.00
O629   O     0.12846   0.22775   0.75000   0.00000  Uiso   1.00
O630   O     0.08610   0.03885   0.81810   0.00000  Uiso   1.00
O631   O     0.20488   0.10558   0.74999   0.00000  Uiso   1.00
O632   O     0.20490   0.22774   0.75000   0.00000  Uiso   1.00
O633   O     0.12843   0.10559   0.75000   0.00000  Uiso   1.00
O634   O     0.10661   0.16667   0.81612   0.00000  Uiso   1.00
O635   O     0.22672   0.16666   0.68387   0.00000  Uiso   1.00
O636   O     0.18305   0.16666   0.81612   0.00000  Uiso   1.00
O637   O     0.15028   0.16667   0.68388   0.00000  Uiso   1.00
O638   O     0.24779   0.29434   0.68143   0.00000  Uiso   1.00
Zn639  Zn    0.11562   0.16667   0.75000   0.00000  Uiso   1.00
Zn640  Zn    0.21771   0.16666   0.75000   0.00000  Uiso   1.00
Br641  Br    0.64718   0.19692   0.60651   0.00000  Uiso   1.00
Br642  Br    0.35706   0.12580   0.88943   0.00000  Uiso   1.00
C643   C     0.50048   0.24657   0.74861   0.00000  Uiso   1.00
C644   C     0.45973   0.31087   0.77993   0.00000  Uiso   1.00
C645   C     0.49975   0.04258   0.75208   0.00000  Uiso   1.00
C646   C     0.50055   0.29069   0.74731   0.00000  Uiso   1.00
C647   C     0.65551   0.14259   0.71909   0.00000  Uiso   1.00
C648   C     0.34447   0.19071   0.78094   0.00000  Uiso   1.00
C649   C     0.37009   0.14257   0.71912   0.00000  Uiso   1.00
C650   C     0.62990   0.19073   0.78090   0.00000  Uiso   1.00
C651   C     0.46895   0.16611   0.83813   0.00000  Uiso   1.00
C652   C     0.53104   0.16685   0.66181   0.00000  Uiso   1.00
C653   C     0.44894   0.16192   0.88893   0.00000  Uiso   1.00
C654   C     0.49968   0.08674   0.75105   0.00000  Uiso   1.00
C655   C     0.55117   0.16709   0.61069   0.00000  Uiso   1.00
C656   C     0.39253   0.13249   0.96172   0.00000  Uiso   1.00
C657   C     0.61206   0.18513   0.53465   0.00000  Uiso   1.00
C658   C     0.40373   0.14235   0.91507   0.00000  Uiso   1.00
C659   C     0.59898   0.18082   0.58253   0.00000  Uiso   1.00
C660   C     0.48034   0.17306   0.91060   0.00000  Uiso   1.00
C661   C     0.51891   0.15557   0.58994   0.00000  Uiso   1.00
C662   C     0.47224   0.15929   0.95554   0.00000  Uiso   1.00
C663   C     0.53104   0.16039   0.54221   0.00000  Uiso   1.00
C664   C     0.42683   0.13977   0.98169   0.00000  Uiso   1.00
C665   C     0.45061   0.13268   0.54688   0.00000  Uiso   1.00
C666   C     0.57811   0.17640   0.51467   0.00000  Uiso   1.00
C667   C     0.50838   0.16386   0.97471   0.00000  Uiso   1.00
C668   C     0.49652   0.15216   0.52183   0.00000  Uiso   1.00
C669   C     0.55645   0.17849   0.94790   0.00000  Uiso   1.00
C670   C     0.41659   0.12667   0.52703   0.00000  Uiso   1.00
C671   C     0.59052   0.18452   0.96767   0.00000  Uiso   1.00
C672   C     0.54120   0.31287   0.71602   0.00000  Uiso   1.00
C673   C     0.45916   0.02036   0.78335   0.00000  Uiso   1.00
C674   C     0.54057   0.02241   0.71939   0.00000  Uiso   1.00
H675   H     0.38214   0.11129   0.54726   0.00000  Uiso   1.00
H676   H     0.42908   0.29314   0.80412   0.00000  Uiso   1.00
H677   H     0.64763   0.12336   0.69436   0.00000  Uiso   1.00
H678   H     0.35234   0.20991   0.80570   0.00000  Uiso   1.00
H679   H     0.39843   0.12326   0.69442   0.00000  Uiso   1.00
H680   H     0.60155   0.21003   0.80562   0.00000  Uiso   1.00
H681   H     0.57206   0.26597   0.67503   0.00000  Uiso   1.00
H682   H     0.42915   0.06679   0.82502   0.00000  Uiso   1.00
H683   H     0.62654   0.19658   0.94617   0.00000  Uiso   1.00
H684   H     0.48303   0.14503   0.61254   0.00000  Uiso   1.00
H685   H     0.51201   0.19157   0.89071   0.00000  Uiso   1.00
H686   H     0.35789   0.11733   0.98178   0.00000  Uiso   1.00
H687   H     0.64828   0.19686   0.51324   0.00000  Uiso   1.00
H688   H     0.44009   0.12026   0.58155   0.00000  Uiso   1.00
H689   H     0.56963   0.18480   0.91109   0.00000  Uiso   1.00
H690   H     0.57120   0.04018   0.69524   0.00000  Uiso   1.00
N691   N     0.38093   0.16668   0.75001   0.00000  Uiso   1.00
N692   N     0.61907   0.16666   0.74999   0.00000  Uiso   1.00
O693   O     0.46179   0.22775   0.75000   0.00000  Uiso   1.00
O694   O     0.41943   0.03885   0.81810   0.00000  Uiso   1.00
O695   O     0.53821   0.10558   0.74999   0.00000  Uiso   1.00
O696   O     0.53823   0.22774   0.75000   0.00000  Uiso   1.00
O697   O     0.46177   0.10559   0.75000   0.00000  Uiso   1.00
O698   O     0.43994   0.16667   0.81612   0.00000  Uiso   1.00
O699   O     0.56006   0.16666   0.68387   0.00000  Uiso   1.00
O700   O     0.51639   0.16666   0.81612   0.00000  Uiso   1.00
O701   O     0.48361   0.16667   0.68388   0.00000  Uiso   1.00
O702   O     0.58113   0.29434   0.68143   0.00000  Uiso   1.00
Zn703  Zn    0.44896   0.16667   0.75000   0.00000  Uiso   1.00
Zn704  Zn    0.55104   0.16666   0.75000   0.00000  Uiso   1.00
Br705  Br    0.98051   0.19692   0.60651   0.00000  Uiso   1.00
Br706  Br    0.69040   0.12580   0.88943   0.00000  Uiso   1.00
C707   C     0.83381   0.24657   0.74861   0.00000  Uiso   1.00
C708   C     0.79306   0.31087   0.77993   0.00000  Uiso   1.00
C709   C     0.83308   0.04258   0.75208   0.00000  Uiso   1.00
C710   C     0.83388   0.29069   0.74731   0.00000  Uiso   1.00
C711   C     0.98885   0.14259   0.71909   0.00000  Uiso   1.00
C712   C     0.67781   0.19071   0.78094   0.00000  Uiso   1.00
C713   C     0.70342   0.14257   0.71912   0.00000  Uiso   1.00
C714   C     0.96323   0.19073   0.78090   0.00000  Uiso   1.00
C715   C     0.80228   0.16611   0.83813   0.00000  Uiso   1.00
C716   C     0.86438   0.16685   0.66181   0.00000  Uiso   1.00
C717   C     0.78227   0.16192   0.88893   0.00000  Uiso   1.00
C718   C     0.83301   0.08674   0.75105   0.00000  Uiso   1.00
C719   C     0.88450   0.16709   0.61069   0.00000  Uiso   1.00
C720   C     0.72586   0.13249   0.96172   0.00000  Uiso   1.00
C721   C     0.94539   0.18513   0.53465   0.00000  Uiso   1.00
C722   C     0.73706   0.14235   0.91507   0.00000  Uiso   1.00
C723   C     0.93232   0.18082   0.58253   0.00000  Uiso   1.00
C724   C     0.81368   0.17306   0.91060   0.00000  Uiso   1.00
C725   C     0.85225   0.15557   0.58994   0.00000  Uiso   1.00
C726   C     0.80558   0.15929   0.95554   0.00000  Uiso   1.00
C727   C     0.86437   0.16039   0.54221   0.00000  Uiso   1.00
C728   C     0.76016   0.13977   0.98169   0.00000  Uiso   1.00
C729   C     0.78395   0.13268   0.54688   0.00000  Uiso   1.00
C730   C     0.91144   0.17640   0.51467   0.00000  Uiso   1.00
C731   C     0.84171   0.16386   0.97471   0.00000  Uiso   1.00
C732   C     0.82985   0.15216   0.52183   0.00000  Uiso   1.00
C733   C     0.88979   0.17849   0.94790   0.00000  Uiso   1.00
C734   C     0.74992   0.12667   0.52703   0.00000  Uiso   1.00
C735   C     0.92385   0.18452   0.96767   0.00000  Uiso   1.00
C736   C     0.87454   0.31287   0.71602   0.00000  Uiso   1.00
C737   C     0.79250   0.02036   0.78335   0.00000  Uiso   1.00
C738   C     0.87390   0.02241   0.71939   0.00000  Uiso   1.00
H739   H     0.71548   0.11129   0.54726   0.00000  Uiso   1.00
H740   H     0.76241   0.29314   0.80412   0.00000  Uiso   1.00
H741   H     0.98097   0.12336   0.69436   0.00000  Uiso   1.00
H742   H     0.68568   0.20991   0.80570   0.00000  Uiso   1.00
H743   H     0.73176   0.12326   0.69442   0.00000  Uiso   1.00
H744   H     0.93488   0.21003   0.80562   0.00000  Uiso   1.00
H745   H     0.90539   0.26597   0.67503   0.00000  Uiso   1.00
H746   H     0.76248   0.06679   0.82502   0.00000  Uiso   1.00
H747   H     0.95987   0.19658   0.94617   0.00000  Uiso   1.00
H748   H     0.81636   0.14503   0.61254   0.00000  Uiso   1.00
H749   H     0.84535   0.19157   0.89071   0.00000  Uiso   1.00
H750   H     0.69123   0.11733   0.98178   0.00000  Uiso   1.00
H751   H     0.98161   0.19686   0.51324   0.00000  Uiso   1.00
H752   H     0.77342   0.12026   0.58155   0.00000  Uiso   1.00
H753   H     0.90297   0.18480   0.91109   0.00000  Uiso   1.00
H754   H     0.90454   0.04018   0.69524   0.00000  Uiso   1.00
N755   N     0.71426   0.16668   0.75001   0.00000  Uiso   1.00
N756   N     0.95241   0.16666   0.74999   0.00000  Uiso   1.00
O757   O     0.79512   0.22775   0.75000   0.00000  Uiso   1.00
O758   O     0.75277   0.03885   0.81810   0.00000  Uiso   1.00
O759   O     0.87154   0.10558   0.74999   0.00000  Uiso   1.00
O760   O     0.87157   0.22774   0.75000   0.00000  Uiso   1.00
O761   O     0.79510   0.10559   0.75000   0.00000  Uiso   1.00
O762   O     0.77328   0.16667   0.81612   0.00000  Uiso   1.00
O763   O     0.89339   0.16666   0.68387   0.00000  Uiso   1.00
O764   O     0.84972   0.16666   0.81612   0.00000  Uiso   1.00
O765   O     0.81695   0.16667   0.68388   0.00000  Uiso   1.00
O766   O     0.91446   0.29434   0.68143   0.00000  Uiso   1.00
Zn767  Zn    0.78229   0.16667   0.75000   0.00000  Uiso   1.00
Zn768  Zn    0.88438   0.16666   0.75000   0.00000  Uiso   1.00
Br769  Br    0.31385   0.53025   0.60651   0.00000  Uiso   1.00
Br770  Br    0.02373   0.45913   0.88943   0.00000  Uiso   1.00
C771   C     0.16715   0.57990   0.74861   0.00000  Uiso   1.00
C772   C     0.12639   0.64420   0.77993   0.00000  Uiso   1.00
C773   C     0.16642   0.37591   0.75208   0.00000  Uiso   1.00
C774   C     0.16721   0.62402   0.74731   0.00000  Uiso   1.00
C775   C     0.32218   0.47593   0.71909   0.00000  Uiso   1.00
C776   C     0.01114   0.52404   0.78094   0.00000  Uiso   1.00
C777   C     0.03676   0.47591   0.71912   0.00000  Uiso   1.00
C778   C     0.29657   0.52407   0.78090   0.00000  Uiso   1.00
C779   C     0.13561   0.49944   0.83813   0.00000  Uiso   1.00
C780   C     0.19771   0.50018   0.66181   0.00000  Uiso   1.00
C781   C     0.11560   0.49525   0.88893   0.00000  Uiso   1.00
C782   C     0.16634   0.42007   0.75105   0.00000  Uiso   1.00
C783   C     0.21784   0.50043   0.61069   0.00000  Uiso   1.00
C784   C     0.05920   0.46583   0.96172   0.00000  Uiso   1.00
C785   C     0.27872   0.51846   0.53465   0.00000  Uiso   1.00
C786   C     0.07040   0.47568   0.91507   0.00000  Uiso   1.00
C787   C     0.26565   0.51415   0.58253   0.00000  Uiso   1.00
C788   C     0.14701   0.50640   0.91060   0.00000  Uiso   1.00
C789   C     0.18558   0.48891   0.58994   0.00000  Uiso   1.00
C790   C     0.13891   0.49262   0.95554   0.00000  Uiso   1.00
C791   C     0.19770   0.49372   0.54221   0.00000  Uiso   1.00
C792   C     0.09349   0.47310   0.98169   0.00000  Uiso   1.00
C793   C     0.11728   0.46601   0.54688   0.00000  Uiso   1.00
C794   C     0.24478   0.50973   0.51467   0.00000  Uiso   1.00
C795   C     0.17504   0.49719   0.97471   0.00000  Uiso   1.00
C796   C     0.16318   0.48550   0.52183   0.00000  Uiso   1.00
C797   C     0.22312   0.51182   0.94790   0.00000  Uiso   1.00
C798   C     0.08326   0.46000   0.52703   0.00000  Uiso   1.00
C799   C     0.25718   0.51786   0.96767   0.00000  Uiso   1.00
C800   C     0.20787   0.64621   0.71602   0.00000  Uiso   1.00
C801   C     0.12583   0.35369   0.78335   0.00000  Uiso   1.00
C802   C     0.20723   0.35575   0.71939   0.00000  Uiso   1.00
H803   H     0.04881   0.44463   0.54726   0.00000  Uiso   1.00
H804   H     0.09575   0.62647   0.80412   0.00000  Uiso   1.00
H805   H     0.31430   0.45669   0.69436   0.00000  Uiso   1.00
H806   H     0.01901   0.54325   0.80570   0.00000  Uiso   1.00
H807   H     0.06509   0.45659   0.69442   0.00000  Uiso   1.00
H808   H     0.26822   0.54336   0.80562   0.00000  Uiso   1.00
H809   H     0.23872   0.59930   0.67503   0.00000  Uiso   1.00
H810   H     0.09582   0.40013   0.82502   0.00000  Uiso   1.00
H811   H     0.29320   0.52991   0.94617   0.00000  Uiso   1.00
H812   H     0.14969   0.47837   0.61254   0.00000  Uiso   1.00
H813   H     0.17868   0.52490   0.89071   0.00000  Uiso   1.00
H814   H     0.02456   0.45066   0.98178   0.00000  Uiso   1.00
H815   H     0.31495   0.53019   0.51324   0.00000  Uiso   1.00
H816   H     0.10675   0.45360   0.58155   0.00000  Uiso   1.00
H817   H     0.23630   0.51813   0.91109   0.00000  Uiso   1.00
H818   H     0.23787   0.37351   0.69524   0.00000  Uiso   1.00
N819   N     0.04759   0.50001   0.75001   0.00000  Uiso   1.00
N820   N     0.28574   0.49999   0.74999   0.00000  Uiso   1.00
O821   O     0.12846   0.56108   0.75000   0.00000  Uiso   1.00
O822   O     0.08610   0.37219   0.81810   0.00000  Uiso   1.00
O823   O     0.20488   0.43892   0.74999   0.00000  Uiso   1.00
O824   O     0.20490   0.56107   0.75000   0.00000  Uiso   1.00
O825   O     0.12843   0.43893   0.75000   0.00000  Uiso   1.00
O826   O     0.10661   0.50001   0.81612   0.00000  Uiso   1.00
O827   O     0.22672   0.49999   0.68387   0.00000  Uiso   1.00
O828   O     0.18305   0.50000   0.81612   0.00000  Uiso   1.00
O829   O     0.15028   0.50000   0.68388   0.00000  Uiso   1.00
O830   O     0.24779   0.62768   0.68143   0.00000  Uiso   1.00
Zn831  Zn    0.11562   0.50001   0.75000   0.00000  Uiso   1.00
Zn832  Zn    0.21771   0.49999   0.75000   0.00000  Uiso   1.00
Br833  Br    0.64718   0.53025   0.60651   0.00000  Uiso   1.00
Br834  Br    0.35706   0.45913   0.88943   0.00000  Uiso   1.00
C835   C     0.50048   0.57990   0.74861   0.00000  Uiso   1.00
C836   C     0.45973   0.64420   0.77993   0.00000  Uiso   1.00
C837   C     0.49975   0.37591   0.75208   0.00000  Uiso   1.00
C838   C     0.50055   0.62402   0.74731   0.00000  Uiso   1.00
C839   C     0.65551   0.47593   0.71909   0.00000  Uiso   1.00
C840   C     0.34447   0.52404   0.78094   0.00000  Uiso   1.00
C841   C     0.37009   0.47591   0.71912   0.00000  Uiso   1.00
C842   C     0.62990   0.52407   0.78090   0.00000  Uiso   1.00
C843   C     0.46895   0.49944   0.83813   0.00000  Uiso   1.00
C844   C     0.53104   0.50018   0.66181   0.00000  Uiso   1.00
C845   C     0.44894   0.49525   0.88893   0.00000  Uiso   1.00
C846   C     0.49968   0.42007   0.75105   0.00000  Uiso   1.00
C847   C     0.55117   0.50043   0.61069   0.00000  Uiso   1.00
C848   C     0.39253   0.46583   0.96172   0.00000  Uiso   1.00
C849   C     0.61206   0.51846   0.53465   0.00000  Uiso   1.00
C850   C     0.40373   0.47568   0.91507   0.00000  Uiso   1.00
C851   C     0.59898   0.51415   0.58253   0.00000  Uiso   1.00
C852   C     0.48034   0.50640   0.91060   0.00000  Uiso   1.00
C853   C     0.51891   0.48891   0.58994   0.00000  Uiso   1.00
C854   C     0.47224   0.49262   0.95554   0.00000  Uiso   1.00
C855   C     0.53104   0.49372   0.54221   0.00000  Uiso   1.00
C856   C     0.42683   0.47310   0.98169   0.00000  Uiso   1.00
C857   C     0.45061   0.46601   0.54688   0.00000  Uiso   1.00
C858   C     0.57811   0.50973   0.51467   0.00000  Uiso   1.00
C859   C     0.50838   0.49719   0.97471   0.00000  Uiso   1.00
C860   C     0.49652   0.48550   0.52183   0.00000  Uiso   1.00
C861   C     0.55645   0.51182   0.94790   0.00000  Uiso   1.00
C862   C     0.41659   0.46000   0.52703   0.00000  Uiso   1.00
C863   C     0.59052   0.51786   0.96767   0.00000  Uiso   1.00
C864   C     0.54120   0.64621   0.71602   0.00000  Uiso   1.00
C865   C     0.45916   0.35369   0.78335   0.00000  Uiso   1.00
C866   C     0.54057   0.35575   0.71939   0.00000  Uiso   1.00
H867   H     0.38214   0.44463   0.54726   0.00000  Uiso   1.00
H868   H     0.42908   0.62647   0.80412   0.00000  Uiso   1.00
H869   H     0.64763   0.45669   0.69436   0.00000  Uiso   1.00
H870   H     0.35234   0.54325   0.80570   0.00000  Uiso   1.00
H871   H     0.39843   0.45659   0.69442   0.00000  Uiso   1.00
H872   H     0.60155   0.54336   0.80562   0.00000  Uiso   1.00
H873   H     0.57206   0.59930   0.67503   0.00000  Uiso   1.00
H874   H     0.42915   0.40013   0.82502   0.00000  Uiso   1.00
H875   H     0.62654   0.52991   0.94617   0.00000  Uiso   1.00
H876   H     0.48303   0.47837   0.61254   0.00000  Uiso   1.00
H877   H     0.51201   0.52490   0.89071   0.00000  Uiso   1.00
H878   H     0.35789   0.45066   0.98178   0.00000  Uiso   1.00
H879   H     0.64828   0.53019   0.51324   0.00000  Uiso   1.00
H880   H     0.44009   0.45360   0.58155   0.00000  Uiso   1.00
H881   H     0.56963   0.51813   0.91109   0.00000  Uiso   1.00
H882   H     0.57120   0.37351   0.69524   0.00000  Uiso   1.00
N883   N     0.38093   0.50001   0.75001   0.00000  Uiso   1.00
N884   N     0.61907   0.49999   0.74999   0.00000  Uiso   1.00
O885   O     0.46179   0.56108   0.75000   0.00000  Uiso   1.00
O886   O     0.41943   0.37219   0.81810   0.00000  Uiso   1.00
O887   O     0.53821   0.43892   0.74999   0.00000  Uiso   1.00
O888   O     0.53823   0.56107   0.75000   0.00000  Uiso   1.00
O889   O     0.46177   0.43893   0.75000   0.00000  Uiso   1.00
O890   O     0.43994   0.50001   0.81612   0.00000  Uiso   1.00
O891   O     0.56006   0.49999   0.68387   0.00000  Uiso   1.00
O892   O     0.51639   0.50000   0.81612   0.00000  Uiso   1.00
O893   O     0.48361   0.50000   0.68388   0.00000  Uiso   1.00
O894   O     0.58113   0.62768   0.68143   0.00000  Uiso   1.00
Zn895  Zn    0.44896   0.50001   0.75000   0.00000  Uiso   1.00
Zn896  Zn    0.55104   0.49999   0.75000   0.00000  Uiso   1.00
Br897  Br    0.98051   0.53025   0.60651   0.00000  Uiso   1.00
Br898  Br    0.69040   0.45913   0.88943   0.00000  Uiso   1.00
C899   C     0.83381   0.57990   0.74861   0.00000  Uiso   1.00
C900   C     0.79306   0.64420   0.77993   0.00000  Uiso   1.00
C901   C     0.83308   0.37591   0.75208   0.00000  Uiso   1.00
C902   C     0.83388   0.62402   0.74731   0.00000  Uiso   1.00
C903   C     0.98885   0.47593   0.71909   0.00000  Uiso   1.00
C904   C     0.67781   0.52404   0.78094   0.00000  Uiso   1.00
C905   C     0.70342   0.47591   0.71912   0.00000  Uiso   1.00
C906   C     0.96323   0.52407   0.78090   0.00000  Uiso   1.00
C907   C     0.80228   0.49944   0.83813   0.00000  Uiso   1.00
C908   C     0.86438   0.50018   0.66181   0.00000  Uiso   1.00
C909   C     0.78227   0.49525   0.88893   0.00000  Uiso   1.00
C910   C     0.83301   0.42007   0.75105   0.00000  Uiso   1.00
C911   C     0.88450   0.50043   0.61069   0.00000  Uiso   1.00
C912   C     0.72586   0.46583   0.96172   0.00000  Uiso   1.00
C913   C     0.94539   0.51846   0.53465   0.00000  Uiso   1.00
C914   C     0.73706   0.47568   0.91507   0.00000  Uiso   1.00
C915   C     0.93232   0.51415   0.58253   0.00000  Uiso   1.00
C916   C     0.81368   0.50640   0.91060   0.00000  Uiso   1.00
C917   C     0.85225   0.48891   0.58994   0.00000  Uiso   1.00
C918   C     0.80558   0.49262   0.95554   0.00000  Uiso   1.00
C919   C     0.86437   0.49372   0.54221   0.00000  Uiso   1.00
C920   C     0.76016   0.47310   0.98169   0.00000  Uiso   1.00
C921   C     0.78395   0.46601   0.54688   0.00000  Uiso   1.00
C922   C     0.91144   0.50973   0.51467   0.00000  Uiso   1.00
C923   C     0.84171   0.49719   0.97471   0.00000  Uiso   1.00
C924   C     0.82985   0.48550   0.52183   0.00000  Uiso   1.00
C925   C     0.88979   0.51182   0.94790   0.00000  Uiso   1.00
C926   C     0.74992   0.46000   0.52703   0.00000  Uiso   1.00
C927   C     0.92385   0.51786   0.96767   0.00000  Uiso   1.00
C928   C     0.87454   0.64621   0.71602   0.00000  Uiso   1.00
C929   C     0.79250   0.35369   0.78335   0.00000  Uiso   1.00
C930   C     0.87390   0.35575   0.71939   0.00000  Uiso   1.00
H931   H     0.71548   0.44463   0.54726   0.00000  Uiso   1.00
H932   H     0.76241   0.62647   0.80412   0.00000  Uiso   1.00
H933   H     0.98097   0.45669   0.69436   0.00000  Uiso   1.00
H934   H     0.68568   0.54325   0.80570   0.00000  Uiso   1.00
H935   H     0.73176   0.45659   0.69442   0.00000  Uiso   1.00
H936   H     0.93488   0.54336   0.80562   0.00000  Uiso   1.00
H937   H     0.90539   0.59930   0.67503   0.00000  Uiso   1.00
H938   H     0.76248   0.40013   0.82502   0.00000  Uiso   1.00
H939   H     0.95987   0.52991   0.94617   0.00000  Uiso   1.00
H940   H     0.81636   0.47837   0.61254   0.00000  Uiso   1.00
H941   H     0.84535   0.52490   0.89071   0.00000  Uiso   1.00
H942   H     0.69123   0.45066   0.98178   0.00000  Uiso   1.00
H943   H     0.98161   0.53019   0.51324   0.00000  Uiso   1.00
H944   H     0.77342   0.45360   0.58155   0.00000  Uiso   1.00
H945   H     0.90297   0.51813   0.91109   0.00000  Uiso   1.00
H946   H     0.90454   0.37351   0.69524   0.00000  Uiso   1.00
N947   N     0.71426   0.50001   0.75001   0.00000  Uiso   1.00
N948   N     0.95241   0.49999   0.74999   0.00000  Uiso   1.00
O949   O     0.79512   0.56108   0.75000   0.00000  Uiso   1.00
O950   O     0.75277   0.37219   0.81810   0.00000  Uiso   1.00
O951   O     0.87154   0.43892   0.74999   0.00000  Uiso   1.00
O952   O     0.87157   0.56107   0.75000   0.00000  Uiso   1.00
O953   O     0.79510   0.43893   0.75000   0.00000  Uiso   1.00
O954   O     0.77328   0.50001   0.81612   0.00000  Uiso   1.00
O955   O     0.89339   0.49999   0.68387   0.00000  Uiso   1.00
O956   O     0.84972   0.50000   0.81612   0.00000  Uiso   1.00
O957   O     0.81695   0.50000   0.68388   0.00000  Uiso   1.00
O958   O     0.91446   0.62768   0.68143   0.00000  Uiso   1.00
Zn959  Zn    0.78229   0.50001   0.75000   0.00000  Uiso   1.00
Zn960  Zn    0.88438   0.49999   0.75000   0.00000  Uiso   1.00
Br961  Br    0.31385   0.86358   0.60651   0.00000  Uiso   1.00
Br962  Br    0.02373   0.79247   0.88943   0.00000  Uiso   1.00
C963   C     0.16715   0.91323   0.74861   0.00000  Uiso   1.00
C964   C     0.12639   0.97753   0.77993   0.00000  Uiso   1.00
C965   C     0.16642   0.70925   0.75208   0.00000  Uiso   1.00
C966   C     0.16721   0.95735   0.74731   0.00000  Uiso   1.00
C967   C     0.32218   0.80926   0.71909   0.00000  Uiso   1.00
C968   C     0.01114   0.85738   0.78094   0.00000  Uiso   1.00
C969   C     0.03676   0.80924   0.71912   0.00000  Uiso   1.00
C970   C     0.29657   0.85740   0.78090   0.00000  Uiso   1.00
C971   C     0.13561   0.83278   0.83813   0.00000  Uiso   1.00
C972   C     0.19771   0.83352   0.66181   0.00000  Uiso   1.00
C973   C     0.11560   0.82858   0.88893   0.00000  Uiso   1.00
C974   C     0.16634   0.75340   0.75105   0.00000  Uiso   1.00
C975   C     0.21784   0.83376   0.61069   0.00000  Uiso   1.00
C976   C     0.05920   0.79916   0.96172   0.00000  Uiso   1.00
C977   C     0.27872   0.85180   0.53465   0.00000  Uiso   1.00
C978   C     0.07040   0.80902   0.91507   0.00000  Uiso   1.00
C979   C     0.26565   0.84748   0.58253   0.00000  Uiso   1.00
C980   C     0.14701   0.83973   0.91060   0.00000  Uiso   1.00
C981   C     0.18558   0.82224   0.58994   0.00000  Uiso   1.00
C982   C     0.13891   0.82596   0.95554   0.00000  Uiso   1.00
C983   C     0.19770   0.82706   0.54221   0.00000  Uiso   1.00
C984   C     0.09349   0.80643   0.98169   0.00000  Uiso   1.00
C985   C     0.11728   0.79934   0.54688   0.00000  Uiso   1.00
C986   C     0.24478   0.84307   0.51467   0.00000  Uiso   1.00
C987   C     0.17504   0.83052   0.97471   0.00000  Uiso   1.00
C988   C     0.16318   0.81883   0.52183   0.00000  Uiso   1.00
C989   C     0.22312   0.84515   0.94790   0.00000  Uiso   1.00
C990   C     0.08326   0.79333   0.52703   0.00000  Uiso   1.00
C991   C     0.25718   0.85119   0.96767   0.00000  Uiso   1.00
C992   C     0.20787   0.97954   0.71602   0.00000  Uiso   1.00
C993   C     0.12583   0.68702   0.78335   0.00000  Uiso   1.00
C994   C     0.20723   0.68908   0.71939   0.00000  Uiso   1.00
H995   H     0.04881   0.77796   0.54726   0.00000  Uiso   1.00
H996   H     0.09575   0.95981   0.80412   0.00000  Uiso   1.00
H997   H     0.31430   0.79002   0.69436   0.00000  Uiso   1.00
H998   H     0.01901   0.87658   0.80570   0.00000  Uiso   1.00
H999   H     0.06509   0.78992   0.69442   0.00000  Uiso   1.00
H1000  H     0.26822   0.87669   0.80562   0.00000  Uiso   1.00
H1001  H     0.23872   0.93263   0.67503   0.00000  Uiso   1.00
H1002  H     0.09582   0.73346   0.82502   0.00000  Uiso   1.00
H1003  H     0.29320   0.86325   0.94617   0.00000  Uiso   1.00
H1004  H     0.14969   0.81170   0.61254   0.00000  Uiso   1.00
H1005  H     0.17868   0.85824   0.89071   0.00000  Uiso   1.00
H1006  H     0.02456   0.78400   0.98178   0.00000  Uiso   1.00
H1007  H     0.31495   0.86353   0.51324   0.00000  Uiso   1.00
H1008  H     0.10675   0.78693   0.58155   0.00000  Uiso   1.00
H1009  H     0.23630   0.85146   0.91109   0.00000  Uiso   1.00
H1010  H     0.23787   0.70684   0.69524   0.00000  Uiso   1.00
N1011  N     0.04759   0.83334   0.75001   0.00000  Uiso   1.00
N1012  N     0.28574   0.83332   0.74999   0.00000  Uiso   1.00
O1013  O     0.12846   0.89442   0.75000   0.00000  Uiso   1.00
O1014  O     0.08610   0.70552   0.81810   0.00000  Uiso   1.00
O1015  O     0.20488   0.77225   0.74999   0.00000  Uiso   1.00
O1016  O     0.20490   0.89441   0.75000   0.00000  Uiso   1.00
O1017  O     0.12843   0.77226   0.75000   0.00000  Uiso   1.00
O1018  O     0.10661   0.83334   0.81612   0.00000  Uiso   1.00
O1019  O     0.22672   0.83333   0.68387   0.00000  Uiso   1.00
O1020  O     0.18305   0.83333   0.81612   0.00000  Uiso   1.00
O1021  O     0.15028   0.83334   0.68388   0.00000  Uiso   1.00
O1022  O     0.24779   0.96101   0.68143   0.00000  Uiso   1.00
Zn1023 Zn    0.11562   0.83334   0.75000   0.00000  Uiso   1.00
Zn1024 Zn    0.21771   0.83333   0.75000   0.00000  Uiso   1.00
Br1025 Br    0.64718   0.86358   0.60651   0.00000  Uiso   1.00
Br1026 Br    0.35706   0.79247   0.88943   0.00000  Uiso   1.00
C1027  C     0.50048   0.91323   0.74861   0.00000  Uiso   1.00
C1028  C     0.45973   0.97753   0.77993   0.00000  Uiso   1.00
C1029  C     0.49975   0.70925   0.75208   0.00000  Uiso   1.00
C1030  C     0.50055   0.95735   0.74731   0.00000  Uiso   1.00
C1031  C     0.65551   0.80926   0.71909   0.00000  Uiso   1.00
C1032  C     0.34447   0.85738   0.78094   0.00000  Uiso   1.00
C1033  C     0.37009   0.80924   0.71912   0.00000  Uiso   1.00
C1034  C     0.62990   0.85740   0.78090   0.00000  Uiso   1.00
C1035  C     0.46895   0.83278   0.83813   0.00000  Uiso   1.00
C1036  C     0.53104   0.83352   0.66181   0.00000  Uiso   1.00
C1037  C     0.44894   0.82858   0.88893   0.00000  Uiso   1.00
C1038  C     0.49968   0.75340   0.75105   0.00000  Uiso   1.00
C1039  C     0.55117   0.83376   0.61069   0.00000  Uiso   1.00
C1040  C     0.39253   0.79916   0.96172   0.00000  Uiso   1.00
C1041  C     0.61206   0.85180   0.53465   0.00000  Uiso   1.00
C1042  C     0.40373   0.80902   0.91507   0.00000  Uiso   1.00
C1043  C     0.59898   0.84748   0.58253   0.00000  Uiso   1.00
C1044  C     0.48034   0.83973   0.91060   0.00000  Uiso   1.00
C1045  C     0.51891   0.82224   0.58994   0.00000  Uiso   1.00
C1046  C     0.47224   0.82596   0.95554   0.00000  Uiso   1.00
C1047  C     0.53104   0.82706   0.54221   0.00000  Uiso   1.00
C1048  C     0.42683   0.80643   0.98169   0.00000  Uiso   1.00
C1049  C     0.45061   0.79934   0.54688   0.00000  Uiso   1.00
C1050  C     0.57811   0.84307   0.51467   0.00000  Uiso   1.00
C1051  C     0.50838   0.83052   0.97471   0.00000  Uiso   1.00
C1052  C     0.49652   0.81883   0.52183   0.00000  Uiso   1.00
C1053  C     0.55645   0.84515   0.94790   0.00000  Uiso   1.00
C1054  C     0.41659   0.79333   0.52703   0.00000  Uiso   1.00
C1055  C     0.59052   0.85119   0.96767   0.00000  Uiso   1.00
C1056  C     0.54120   0.97954   0.71602   0.00000  Uiso   1.00
C1057  C     0.45916   0.68702   0.78335   0.00000  Uiso   1.00
C1058  C     0.54057   0.68908   0.71939   0.00000  Uiso   1.00
H1059  H     0.38214   0.77796   0.54726   0.00000  Uiso   1.00
H1060  H     0.42908   0.95981   0.80412   0.00000  Uiso   1.00
H1061  H     0.64763   0.79002   0.69436   0.00000  Uiso   1.00
H1062  H     0.35234   0.87658   0.80570   0.00000  Uiso   1.00
H1063  H     0.39843   0.78992   0.69442   0.00000  Uiso   1.00
H1064  H     0.60155   0.87669   0.80562   0.00000  Uiso   1.00
H1065  H     0.57206   0.93263   0.67503   0.00000  Uiso   1.00
H1066  H     0.42915   0.73346   0.82502   0.00000  Uiso   1.00
H1067  H     0.62654   0.86325   0.94617   0.00000  Uiso   1.00
H1068  H     0.48303   0.81170   0.61254   0.00000  Uiso   1.00
H1069  H     0.51201   0.85824   0.89071   0.00000  Uiso   1.00
H1070  H     0.35789   0.78400   0.98178   0.00000  Uiso   1.00
H1071  H     0.64828   0.86353   0.51324   0.00000  Uiso   1.00
H1072  H     0.44009   0.78693   0.58155   0.00000  Uiso   1.00
H1073  H     0.56963   0.85146   0.91109   0.00000  Uiso   1.00
H1074  H     0.57120   0.70684   0.69524   0.00000  Uiso   1.00
N1075  N     0.38093   0.83334   0.75001   0.00000  Uiso   1.00
N1076  N     0.61907   0.83332   0.74999   0.00000  Uiso   1.00
O1077  O     0.46179   0.89442   0.75000   0.00000  Uiso   1.00
O1078  O     0.41943   0.70552   0.81810   0.00000  Uiso   1.00
O1079  O     0.53821   0.77225   0.74999   0.00000  Uiso   1.00
O1080  O     0.53823   0.89441   0.75000   0.00000  Uiso   1.00
O1081  O     0.46177   0.77226   0.75000   0.00000  Uiso   1.00
O1082  O     0.43994   0.83334   0.81612   0.00000  Uiso   1.00
O1083  O     0.56006   0.83333   0.68387   0.00000  Uiso   1.00
O1084  O     0.51639   0.83333   0.81612   0.00000  Uiso   1.00
O1085  O     0.48361   0.83334   0.68388   0.00000  Uiso   1.00
O1086  O     0.58113   0.96101   0.68143   0.00000  Uiso   1.00
Zn1087 Zn    0.44896   0.83334   0.75000   0.00000  Uiso   1.00
Zn1088 Zn    0.55104   0.83333   0.75000   0.00000  Uiso   1.00
Br1089 Br    0.98051   0.86358   0.60651   0.00000  Uiso   1.00
Br1090 Br    0.69040   0.79247   0.88943   0.00000  Uiso   1.00
C1091  C     0.83381   0.91323   0.74861   0.00000  Uiso   1.00
C1092  C     0.79306   0.97753   0.77993   0.00000  Uiso   1.00
C1093  C     0.83308   0.70925   0.75208   0.00000  Uiso   1.00
C1094  C     0.83388   0.95735   0.74731   0.00000  Uiso   1.00
C1095  C     0.98885   0.80926   0.71909   0.00000  Uiso   1.00
C1096  C     0.67781   0.85738   0.78094   0.00000  Uiso   1.00
C1097  C     0.70342   0.80924   0.71912   0.00000  Uiso   1.00
C1098  C     0.96323   0.85740   0.78090   0.00000  Uiso   1.00
C1099  C     0.80228   0.83278   0.83813   0.00000  Uiso   1.00
C1100  C     0.86438   0.83352   0.66181   0.00000  Uiso   1.00
C1101  C     0.78227   0.82858   0.88893   0.00000  Uiso   1.00
C1102  C     0.83301   0.75340   0.75105   0.00000  Uiso   1.00
C1103  C     0.88450   0.83376   0.61069   0.00000  Uiso   1.00
C1104  C     0.72586   0.79916   0.96172   0.00000  Uiso   1.00
C1105  C     0.94539   0.85180   0.53465   0.00000  Uiso   1.00
C1106  C     0.73706   0.80902   0.91507   0.00000  Uiso   1.00
C1107  C     0.93232   0.84748   0.58253   0.00000  Uiso   1.00
C1108  C     0.81368   0.83973   0.91060   0.00000  Uiso   1.00
C1109  C     0.85225   0.82224   0.58994   0.00000  Uiso   1.00
C1110  C     0.80558   0.82596   0.95554   0.00000  Uiso   1.00
C1111  C     0.86437   0.82706   0.54221   0.00000  Uiso   1.00
C1112  C     0.76016   0.80643   0.98169   0.00000  Uiso   1.00
C1113  C     0.78395   0.79934   0.54688   0.00000  Uiso   1.00
C1114  C     0.91144   0.84307   0.51467   0.00000  Uiso   1.00
C1115  C     0.84171   0.83052   0.97471   0.00000  Uiso   1.00
C1116  C     0.82985   0.81883   0.52183   0.00000  Uiso   1.00
C1117  C     0.88979   0.84515   0.94790   0.00000  Uiso   1.00
C1118  C     0.74992   0.79333   0.52703   0.00000  Uiso   1.00
C1119  C     0.92385   0.85119   0.96767   0.00000  Uiso   1.00
C1120  C     0.87454   0.97954   0.71602   0.00000  Uiso   1.00
C1121  C     0.79250   0.68702   0.78335   0.00000  Uiso   1.00
C1122  C     0.87390   0.68908   0.71939   0.00000  Uiso   1.00
H1123  H     0.71548   0.77796   0.54726   0.00000  Uiso   1.00
H1124  H     0.76241   0.95981   0.80412   0.00000  Uiso   1.00
H1125  H     0.98097   0.79002   0.69436   0.00000  Uiso   1.00
H1126  H     0.68568   0.87658   0.80570   0.00000  Uiso   1.00
H1127  H     0.73176   0.78992   0.69442   0.00000  Uiso   1.00
H1128  H     0.93488   0.87669   0.80562   0.00000  Uiso   1.00
H1129  H     0.90539   0.93263   0.67503   0.00000  Uiso   1.00
H1130  H     0.76248   0.73346   0.82502   0.00000  Uiso   1.00
H1131  H     0.95987   0.86325   0.94617   0.00000  Uiso   1.00
H1132  H     0.81636   0.81170   0.61254   0.00000  Uiso   1.00
H1133  H     0.84535   0.85824   0.89071   0.00000  Uiso   1.00
H1134  H     0.69123   0.78400   0.98178   0.00000  Uiso   1.00
H1135  H     0.98161   0.86353   0.51324   0.00000  Uiso   1.00
H1136  H     0.77342   0.78693   0.58155   0.00000  Uiso   1.00
H1137  H     0.90297   0.85146   0.91109   0.00000  Uiso   1.00
H1138  H     0.90454   0.70684   0.69524   0.00000  Uiso   1.00
N1139  N     0.71426   0.83334   0.75001   0.00000  Uiso   1.00
N1140  N     0.95241   0.83332   0.74999   0.00000  Uiso   1.00
O1141  O     0.79512   0.89442   0.75000   0.00000  Uiso   1.00
O1142  O     0.75277   0.70552   0.81810   0.00000  Uiso   1.00
O1143  O     0.87154   0.77225   0.74999   0.00000  Uiso   1.00
O1144  O     0.87157   0.89441   0.75000   0.00000  Uiso   1.00
O1145  O     0.79510   0.77226   0.75000   0.00000  Uiso   1.00
O1146  O     0.77328   0.83334   0.81612   0.00000  Uiso   1.00
O1147  O     0.89339   0.83333   0.68387   0.00000  Uiso   1.00
O1148  O     0.84972   0.83333   0.81612   0.00000  Uiso   1.00
O1149  O     0.81695   0.83334   0.68388   0.00000  Uiso   1.00
O1150  O     0.91446   0.96101   0.68143   0.00000  Uiso   1.00
Zn1151 Zn    0.78229   0.83334   0.75000   0.00000  Uiso   1.00
Zn1152 Zn    0.88438   0.83333   0.75000   0.00000  Uiso   1.00
loop_
_geom_bond_atom_site_label_1
_geom_bond_atom_site_label_2
_geom_bond_distance
_geom_bond_site_symmetry_2
_ccdc_geom_bond_type
Br1    C19     1.922   .     S
Br2    C18     1.921   .     S
C3     O56     1.282   .     A
C3     C6      1.410   .     S
C3     O53     1.280   .     A
C4     H36     1.085   .     S
C4     C6      1.394   .     A
C4     C225    1.373   .     S
C5     C34     1.395   .     A
C5     C14     1.411   .     S
C5     C33     1.408   .     A
C6     C32     1.409   .     A
C7     H37     1.082   .     S
C7     N52     1.366   .     A
C7     C73     1.417   .     S
C8     H38     1.082   .     S
C8     N51     1.366   .     A
C8     C138    1.417   1_455 S
C9     N51     1.367   .     A
C9     H39     1.082   .     S
C9     C135    1.417   1_455 S
C10    N52     1.367   .     A
C10    H40     1.082   .     S
C10    C72     1.417   .     S
C11    C13     1.464   .     S
C11    O60     1.298   .     A
C11    O58     1.291   .     A
C12    C15     1.467   .     S
C12    O61     1.298   .     A
C12    O59     1.292   .     A
C13    C20     1.393   .     A
C13    C18     1.412   .     A
C14    O55     1.280   .     A
C14    O57     1.282   .     A
C15    C19     1.412   .     A
C15    C21     1.396   .     A
C16    C24     1.402   .     A
C16    C18     1.395   .     A
C16    H46     1.084   .     S
C17    C26     1.402   .     A
C17    C19     1.394   .     A
C17    H47     1.084   .     S
C20    H45     1.077   .     S
C20    C22     1.396   .     A
C21    H44     1.073   .     S
C21    C23     1.396   .     A
C22    C27     1.421   .     A
C22    C24     1.416   .     A
C23    C28     1.423   .     A
C23    C26     1.416   .     A
C24    C606    1.388   .     S
C25    C28     1.419   .     A
C25    H48     1.076   .     S
C25    C30     1.386   .     A
C26    C607    1.388   1_554 S
C27    C29     1.418   .     A
C27    C604    1.419   .     S
C28    C603    1.419   1_554 S
C29    H49     1.077   .     S
C29    C31     1.385   .     A
C30    H35     1.084   .     S
C30    C600    1.388   1_554 S
C31    H43     1.084   .     S
C31    C602    1.388   .     S
C32    O62     1.382   .     S
C32    C226    1.374   .     S
C33    O54     1.381   .     S
C33    C388    1.373   1_545 S
C34    H50     1.085   .     S
C34    C416    1.374   1_545 S
H41    O62     0.989   .     S
H42    O54     0.989   .     S
N51    Zn63    2.011   .     S
N52    Zn64    2.011   .     S
O53    Zn63    1.990   .     S
O55    Zn64    1.990   .     S
O56    Zn64    1.987   .     S
O57    Zn63    1.987   .     S
O58    Zn63    1.972   .     S
O59    Zn64    1.972   .     S
O60    Zn64    1.909   .     S
O61    Zn63    1.909   .     S
Br65   C83     1.922   .     S
Br66   C82     1.921   .     S
C67    O120    1.282   .     A
C67    C70     1.410   .     S
C67    O117    1.280   .     A
C68    H100    1.085   .     S
C68    C70     1.394   .     A
C68    C289    1.373   .     S
C69    C98     1.395   .     A
C69    C78     1.411   .     S
C69    C97     1.408   .     A
C70    C96     1.409   .     A
C71    H101    1.082   .     S
C71    N116    1.366   .     A
C71    C137    1.417   .     S
C72    H102    1.082   .     S
C72    N115    1.366   .     A
C73    N115    1.367   .     A
C73    H103    1.082   .     S
C74    N116    1.367   .     A
C74    H104    1.082   .     S
C74    C136    1.417   .     S
C75    C77     1.464   .     S
C75    O124    1.298   .     A
C75    O122    1.291   .     A
C76    C79     1.467   .     S
C76    O125    1.298   .     A
C76    O123    1.292   .     A
C77    C84     1.393   .     A
C77    C82     1.412   .     A
C78    O119    1.280   .     A
C78    O121    1.282   .     A
C79    C83     1.412   .     A
C79    C85     1.396   .     A
C80    C88     1.402   .     A
C80    C82     1.395   .     A
C80    H110    1.084   .     S
C81    C90     1.402   .     A
C81    C83     1.394   .     A
C81    H111    1.084   .     S
C84    H109    1.077   .     S
C84    C86     1.396   .     A
C85    H108    1.073   .     S
C85    C87     1.396   .     A
C86    C91     1.421   .     A
C86    C88     1.416   .     A
C87    C92     1.423   .     A
C87    C90     1.416   .     A
C88    C670    1.388   .     S
C89    C92     1.419   .     A
C89    H112    1.076   .     S
C89    C94     1.386   .     A
C90    C671    1.388   1_554 S
C91    C93     1.418   .     A
C91    C668    1.419   .     S
C92    C667    1.419   1_554 S
C93    H113    1.077   .     S
C93    C95     1.385   .     A
C94    H99     1.084   .     S
C94    C664    1.388   1_554 S
C95    H107    1.084   .     S
C95    C666    1.388   .     S
C96    O126    1.382   .     S
C96    C290    1.374   .     S
C97    O118    1.381   .     S
C97    C452    1.373   1_545 S
C98    H114    1.085   .     S
C98    C480    1.374   1_545 S
H105   O126    0.989   .     S
H106   O118    0.989   .     S
N115   Zn127   2.011   .     S
N116   Zn128   2.011   .     S
O117   Zn127   1.990   .     S
O119   Zn128   1.990   .     S
O120   Zn128   1.987   .     S
O121   Zn127   1.987   .     S
O122   Zn127   1.972   .     S
O123   Zn128   1.972   .     S
O124   Zn128   1.909   .     S
O125   Zn127   1.909   .     S
Br129  C147    1.922   .     S
Br130  C146    1.921   .     S
C131   O184    1.282   .     A
C131   C134    1.410   .     S
C131   O181    1.280   .     A
C132   H164    1.085   .     S
C132   C134    1.394   .     A
C132   C353    1.373   .     S
C133   C162    1.395   .     A
C133   C142    1.411   .     S
C133   C161    1.408   .     A
C134   C160    1.409   .     A
C135   H165    1.082   .     S
C135   N180    1.366   .     A
C135   C9      1.417   1_655 S
C136   H166    1.082   .     S
C136   N179    1.366   .     A
C137   N179    1.367   .     A
C137   H167    1.082   .     S
C138   N180    1.367   .     A
C138   H168    1.082   .     S
C138   C8      1.417   1_655 S
C139   C141    1.464   .     S
C139   O188    1.298   .     A
C139   O186    1.291   .     A
C140   C143    1.467   .     S
C140   O189    1.298   .     A
C140   O187    1.292   .     A
C141   C148    1.393   .     A
C141   C146    1.412   .     A
C142   O183    1.280   .     A
C142   O185    1.282   .     A
C143   C147    1.412   .     A
C143   C149    1.396   .     A
C144   C152    1.402   .     A
C144   C146    1.395   .     A
C144   H174    1.084   .     S
C145   C154    1.402   .     A
C145   C147    1.394   .     A
C145   H175    1.084   .     S
C148   H173    1.077   .     S
C148   C150    1.396   .     A
C149   H172    1.073   .     S
C149   C151    1.396   .     A
C150   C155    1.421   .     A
C150   C152    1.416   .     A
C151   C156    1.423   .     A
C151   C154    1.416   .     A
C152   C734    1.388   .     S
C153   C156    1.419   .     A
C153   H176    1.076   .     S
C153   C158    1.386   .     A
C154   C735    1.388   1_554 S
C155   C157    1.418   .     A
C155   C732    1.419   .     S
C156   C731    1.419   1_554 S
C157   H177    1.077   .     S
C157   C159    1.385   .     A
C158   H163    1.084   .     S
C158   C728    1.388   1_554 S
C159   H171    1.084   .     S
C159   C730    1.388   .     S
C160   O190    1.382   .     S
C160   C354    1.374   .     S
C161   O182    1.381   .     S
C161   C516    1.373   1_545 S
C162   H178    1.085   .     S
C162   C544    1.374   1_545 S
H169   O190    0.989   .     S
H170   O182    0.989   .     S
N179   Zn191   2.011   .     S
N180   Zn192   2.011   .     S
O181   Zn191   1.990   .     S
O183   Zn192   1.990   .     S
O184   Zn192   1.987   .     S
O185   Zn191   1.987   .     S
O186   Zn191   1.972   .     S
O187   Zn192   1.972   .     S
O188   Zn192   1.909   .     S
O189   Zn191   1.909   .     S
Br193  C211    1.922   .     S
Br194  C210    1.921   .     S
C195   O248    1.282   .     A
C195   C198    1.410   .     S
C195   O245    1.280   .     A
C196   H228    1.085   .     S
C196   C198    1.394   .     A
C196   C417    1.373   .     S
C197   C226    1.395   .     A
C197   C206    1.411   .     S
C197   C225    1.408   .     A
C198   C224    1.409   .     A
C199   H229    1.082   .     S
C199   N244    1.366   .     A
C199   C265    1.417   .     S
C200   H230    1.082   .     S
C200   N243    1.366   .     A
C200   C330    1.417   1_455 S
C201   N243    1.367   .     A
C201   H231    1.082   .     S
C201   C327    1.417   1_455 S
C202   N244    1.367   .     A
C202   H232    1.082   .     S
C202   C264    1.417   .     S
C203   C205    1.464   .     S
C203   O252    1.298   .     A
C203   O250    1.291   .     A
C204   C207    1.467   .     S
C204   O253    1.298   .     A
C204   O251    1.292   .     A
C205   C212    1.393   .     A
C205   C210    1.412   .     A
C206   O247    1.280   .     A
C206   O249    1.282   .     A
C207   C211    1.412   .     A
C207   C213    1.396   .     A
C208   C216    1.402   .     A
C208   C210    1.395   .     A
C208   H238    1.084   .     S
C209   C218    1.402   .     A
C209   C211    1.394   .     A
C209   H239    1.084   .     S
C212   H237    1.077   .     S
C212   C214    1.396   .     A
C213   H236    1.073   .     S
C213   C215    1.396   .     A
C214   C219    1.421   .     A
C214   C216    1.416   .     A
C215   C220    1.423   .     A
C215   C218    1.416   .     A
C216   C798    1.388   .     S
C217   C220    1.419   .     A
C217   H240    1.076   .     S
C217   C222    1.386   .     A
C218   C799    1.388   1_554 S
C219   C221    1.418   .     A
C219   C796    1.419   .     S
C220   C795    1.419   1_554 S
C221   H241    1.077   .     S
C221   C223    1.385   .     A
C222   H227    1.084   .     S
C222   C792    1.388   1_554 S
C223   H235    1.084   .     S
C223   C794    1.388   .     S
C224   O254    1.382   .     S
C224   C418    1.374   .     S
C225   O246    1.381   .     S
C226   H242    1.085   .     S
H233   O254    0.989   .     S
H234   O246    0.989   .     S
N243   Zn255   2.011   .     S
N244   Zn256   2.011   .     S
O245   Zn255   1.990   .     S
O247   Zn256   1.990   .     S
O248   Zn256   1.987   .     S
O249   Zn255   1.987   .     S
O250   Zn255   1.972   .     S
O251   Zn256   1.972   .     S
O252   Zn256   1.909   .     S
O253   Zn255   1.909   .     S
Br257  C275    1.922   .     S
Br258  C274    1.921   .     S
C259   O312    1.282   .     A
C259   C262    1.410   .     S
C259   O309    1.280   .     A
C260   H292    1.085   .     S
C260   C262    1.394   .     A
C260   C481    1.373   .     S
C261   C290    1.395   .     A
C261   C270    1.411   .     S
C261   C289    1.408   .     A
C262   C288    1.409   .     A
C263   H293    1.082   .     S
C263   N308    1.366   .     A
C263   C329    1.417   .     S
C264   H294    1.082   .     S
C264   N307    1.366   .     A
C265   N307    1.367   .     A
C265   H295    1.082   .     S
C266   N308    1.367   .     A
C266   H296    1.082   .     S
C266   C328    1.417   .     S
C267   C269    1.464   .     S
C267   O316    1.298   .     A
C267   O314    1.291   .     A
C268   C271    1.467   .     S
C268   O317    1.298   .     A
C268   O315    1.292   .     A
C269   C276    1.393   .     A
C269   C274    1.412   .     A
C270   O311    1.280   .     A
C270   O313    1.282   .     A
C271   C275    1.412   .     A
C271   C277    1.396   .     A
C272   C280    1.402   .     A
C272   C274    1.395   .     A
C272   H302    1.084   .     S
C273   C282    1.402   .     A
C273   C275    1.394   .     A
C273   H303    1.084   .     S
C276   H301    1.077   .     S
C276   C278    1.396   .     A
C277   H300    1.073   .     S
C277   C279    1.396   .     A
C278   C283    1.421   .     A
C278   C280    1.416   .     A
C279   C284    1.423   .     A
C279   C282    1.416   .     A
C280   C862    1.388   .     S
C281   C284    1.419   .     A
C281   H304    1.076   .     S
C281   C286    1.386   .     A
C282   C863    1.388   1_554 S
C283   C285    1.418   .     A
C283   C860    1.419   .     S
C284   C859    1.419   1_554 S
C285   H305    1.077   .     S
C285   C287    1.385   .     A
C286   H291    1.084   .     S
C286   C856    1.388   1_554 S
C287   H299    1.084   .     S
C287   C858    1.388   .     S
C288   O318    1.382   .     S
C288   C482    1.374   .     S
C289   O310    1.381   .     S
C290   H306    1.085   .     S
H297   O318    0.989   .     S
H298   O310    0.989   .     S
N307   Zn319   2.011   .     S
N308   Zn320   2.011   .     S
O309   Zn319   1.990   .     S
O311   Zn320   1.990   .     S
O312   Zn320   1.987   .     S
O313   Zn319   1.987   .     S
O314   Zn319   1.972   .     S
O315   Zn320   1.972   .     S
O316   Zn320   1.909   .     S
O317   Zn319   1.909   .     S
Br321  C339    1.922   .     S
Br322  C338    1.921   .     S
C323   O376    1.282   .     A
C323   C326    1.410   .     S
C323   O373    1.280   .     A
C324   H356    1.085   .     S
C324   C326    1.394   .     A
C324   C545    1.373   .     S
C325   C354    1.395   .     A
C325   C334    1.411   .     S
C325   C353    1.408   .     A
C326   C352    1.409   .     A
C327   H357    1.082   .     S
C327   N372    1.366   .     A
C327   C201    1.417   1_655 S
C328   H358    1.082   .     S
C328   N371    1.366   .     A
C329   N371    1.367   .     A
C329   H359    1.082   .     S
C330   N372    1.367   .     A
C330   H360    1.082   .     S
C330   C200    1.417   1_655 S
C331   C333    1.464   .     S
C331   O380    1.298   .     A
C331   O378    1.291   .     A
C332   C335    1.467   .     S
C332   O381    1.298   .     A
C332   O379    1.292   .     A
C333   C340    1.393   .     A
C333   C338    1.412   .     A
C334   O375    1.280   .     A
C334   O377    1.282   .     A
C335   C339    1.412   .     A
C335   C341    1.396   .     A
C336   C344    1.402   .     A
C336   C338    1.395   .     A
C336   H366    1.084   .     S
C337   C346    1.402   .     A
C337   C339    1.394   .     A
C337   H367    1.084   .     S
C340   H365    1.077   .     S
C340   C342    1.396   .     A
C341   H364    1.073   .     S
C341   C343    1.396   .     A
C342   C347    1.421   .     A
C342   C344    1.416   .     A
C343   C348    1.423   .     A
C343   C346    1.416   .     A
C344   C926    1.388   .     S
C345   C348    1.419   .     A
C345   H368    1.076   .     S
C345   C350    1.386   .     A
C346   C927    1.388   1_554 S
C347   C349    1.418   .     A
C347   C924    1.419   .     S
C348   C923    1.419   1_554 S
C349   H369    1.077   .     S
C349   C351    1.385   .     A
C350   H355    1.084   .     S
C350   C920    1.388   1_554 S
C351   H363    1.084   .     S
C351   C922    1.388   .     S
C352   O382    1.382   .     S
C352   C546    1.374   .     S
C353   O374    1.381   .     S
C354   H370    1.085   .     S
H361   O382    0.989   .     S
H362   O374    0.989   .     S
N371   Zn383   2.011   .     S
N372   Zn384   2.011   .     S
O373   Zn383   1.990   .     S
O375   Zn384   1.990   .     S
O376   Zn384   1.987   .     S
O377   Zn383   1.987   .     S
O378   Zn383   1.972   .     S
O379   Zn384   1.972   .     S
O380   Zn384   1.909   .     S
O381   Zn383   1.909   .     S
Br385  C403    1.922   .     S
Br386  C402    1.921   .     S
C387   O440    1.282   .     A
C387   C390    1.410   .     S
C387   O437    1.280   .     A
C388   H420    1.085   .     S
C388   C390    1.394   .     A
C388   C33     1.373   1_565 S
C389   C418    1.395   .     A
C389   C398    1.411   .     S
C389   C417    1.408   .     A
C390   C416    1.409   .     A
C391   H421    1.082   .     S
C391   N436    1.366   .     A
C391   C457    1.417   .     S
C392   H422    1.082   .     S
C392   N435    1.366   .     A
C392   C522    1.417   1_455 S
C393   N435    1.367   .     A
C393   H423    1.082   .     S
C393   C519    1.417   1_455 S
C394   N436    1.367   .     A
C394   H424    1.082   .     S
C394   C456    1.417   .     S
C395   C397    1.464   .     S
C395   O444    1.298   .     A
C395   O442    1.291   .     A
C396   C399    1.467   .     S
C396   O445    1.298   .     A
C396   O443    1.292   .     A
C397   C404    1.393   .     A
C397   C402    1.412   .     A
C398   O439    1.280   .     A
C398   O441    1.282   .     A
C399   C403    1.412   .     A
C399   C405    1.396   .     A
C400   C408    1.402   .     A
C400   C402    1.395   .     A
C400   H430    1.084   .     S
C401   C410    1.402   .     A
C401   C403    1.394   .     A
C401   H431    1.084   .     S
C404   H429    1.077   .     S
C404   C406    1.396   .     A
C405   H428    1.073   .     S
C405   C407    1.396   .     A
C406   C411    1.421   .     A
C406   C408    1.416   .     A
C407   C412    1.423   .     A
C407   C410    1.416   .     A
C408   C990    1.388   .     S
C409   C412    1.419   .     A
C409   H432    1.076   .     S
C409   C414    1.386   .     A
C410   C991    1.388   1_554 S
C411   C413    1.418   .     A
C411   C988    1.419   .     S
C412   C987    1.419   1_554 S
C413   H433    1.077   .     S
C413   C415    1.385   .     A
C414   H419    1.084   .     S
C414   C984    1.388   1_554 S
C415   H427    1.084   .     S
C415   C986    1.388   .     S
C416   O446    1.382   .     S
C416   C34     1.374   1_565 S
C417   O438    1.381   .     S
C418   H434    1.085   .     S
H425   O446    0.989   .     S
H426   O438    0.989   .     S
N435   Zn447   2.011   .     S
N436   Zn448   2.011   .     S
O437   Zn447   1.990   .     S
O439   Zn448   1.990   .     S
O440   Zn448   1.987   .     S
O441   Zn447   1.987   .     S
O442   Zn447   1.972   .     S
O443   Zn448   1.972   .     S
O444   Zn448   1.909   .     S
O445   Zn447   1.909   .     S
Br449  C467    1.922   .     S
Br450  C466    1.921   .     S
C451   O504    1.282   .     A
C451   C454    1.410   .     S
C451   O501    1.280   .     A
C452   H484    1.085   .     S
C452   C454    1.394   .     A
C452   C97     1.373   1_565 S
C453   C482    1.395   .     A
C453   C462    1.411   .     S
C453   C481    1.408   .     A
C454   C480    1.409   .     A
C455   H485    1.082   .     S
C455   N500    1.366   .     A
C455   C521    1.417   .     S
C456   H486    1.082   .     S
C456   N499    1.366   .     A
C457   N499    1.367   .     A
C457   H487    1.082   .     S
C458   N500    1.367   .     A
C458   H488    1.082   .     S
C458   C520    1.417   .     S
C459   C461    1.464   .     S
C459   O508    1.298   .     A
C459   O506    1.291   .     A
C460   C463    1.467   .     S
C460   O509    1.298   .     A
C460   O507    1.292   .     A
C461   C468    1.393   .     A
C461   C466    1.412   .     A
C462   O503    1.280   .     A
C462   O505    1.282   .     A
C463   C467    1.412   .     A
C463   C469    1.396   .     A
C464   C472    1.402   .     A
C464   C466    1.395   .     A
C464   H494    1.084   .     S
C465   C474    1.402   .     A
C465   C467    1.394   .     A
C465   H495    1.084   .     S
C468   H493    1.077   .     S
C468   C470    1.396   .     A
C469   H492    1.073   .     S
C469   C471    1.396   .     A
C470   C475    1.421   .     A
C470   C472    1.416   .     A
C471   C476    1.423   .     A
C471   C474    1.416   .     A
C472   C1054   1.388   .     S
C473   C476    1.419   .     A
C473   H496    1.076   .     S
C473   C478    1.386   .     A
C474   C1055   1.388   1_554 S
C475   C477    1.418   .     A
C475   C1052   1.419   .     S
C476   C1051   1.419   1_554 S
C477   H497    1.077   .     S
C477   C479    1.385   .     A
C478   H483    1.084   .     S
C478   C1048   1.388   1_554 S
C479   H491    1.084   .     S
C479   C1050   1.388   .     S
C480   O510    1.382   .     S
C480   C98     1.374   1_565 S
C481   O502    1.381   .     S
C482   H498    1.085   .     S
H489   O510    0.989   .     S
H490   O502    0.989   .     S
N499   Zn511   2.011   .     S
N500   Zn512   2.011   .     S
O501   Zn511   1.990   .     S
O503   Zn512   1.990   .     S
O504   Zn512   1.987   .     S
O505   Zn511   1.987   .     S
O506   Zn511   1.972   .     S
O507   Zn512   1.972   .     S
O508   Zn512   1.909   .     S
O509   Zn511   1.909   .     S
Br513  C531    1.922   .     S
Br514  C530    1.921   .     S
C515   O568    1.282   .     A
C515   C518    1.410   .     S
C515   O565    1.280   .     A
C516   H548    1.085   .     S
C516   C518    1.394   .     A
C516   C161    1.373   1_565 S
C517   C546    1.395   .     A
C517   C526    1.411   .     S
C517   C545    1.408   .     A
C518   C544    1.409   .     A
C519   H549    1.082   .     S
C519   N564    1.366   .     A
C519   C393    1.417   1_655 S
C520   H550    1.082   .     S
C520   N563    1.366   .     A
C521   N563    1.367   .     A
C521   H551    1.082   .     S
C522   N564    1.367   .     A
C522   H552    1.082   .     S
C522   C392    1.417   1_655 S
C523   C525    1.464   .     S
C523   O572    1.298   .     A
C523   O570    1.291   .     A
C524   C527    1.467   .     S
C524   O573    1.298   .     A
C524   O571    1.292   .     A
C525   C532    1.393   .     A
C525   C530    1.412   .     A
C526   O567    1.280   .     A
C526   O569    1.282   .     A
C527   C531    1.412   .     A
C527   C533    1.396   .     A
C528   C536    1.402   .     A
C528   C530    1.395   .     A
C528   H558    1.084   .     S
C529   C538    1.402   .     A
C529   C531    1.394   .     A
C529   H559    1.084   .     S
C532   H557    1.077   .     S
C532   C534    1.396   .     A
C533   H556    1.073   .     S
C533   C535    1.396   .     A
C534   C539    1.421   .     A
C534   C536    1.416   .     A
C535   C540    1.423   .     A
C535   C538    1.416   .     A
C536   C1118   1.388   .     S
C537   C540    1.419   .     A
C537   H560    1.076   .     S
C537   C542    1.386   .     A
C538   C1119   1.388   1_554 S
C539   C541    1.418   .     A
C539   C1116   1.419   .     S
C540   C1115   1.419   1_554 S
C541   H561    1.077   .     S
C541   C543    1.385   .     A
C542   H547    1.084   .     S
C542   C1112   1.388   1_554 S
C543   H555    1.084   .     S
C543   C1114   1.388   .     S
C544   O574    1.382   .     S
C544   C162    1.374   1_565 S
C545   O566    1.381   .     S
C546   H562    1.085   .     S
H553   O574    0.989   .     S
H554   O566    0.989   .     S
N563   Zn575   2.011   .     S
N564   Zn576   2.011   .     S
O565   Zn575   1.990   .     S
O567   Zn576   1.990   .     S
O568   Zn576   1.987   .     S
O569   Zn575   1.987   .     S
O570   Zn575   1.972   .     S
O571   Zn576   1.972   .     S
O572   Zn576   1.909   .     S
O573   Zn575   1.909   .     S
Br577  C595    1.922   .     S
Br578  C594    1.921   .     S
C579   O632    1.282   .     A
C579   C582    1.410   .     S
C579   O629    1.280   .     A
C580   H612    1.085   .     S
C580   C582    1.394   .     A
C580   C801    1.373   .     S
C581   C610    1.395   .     A
C581   C590    1.411   .     S
C581   C609    1.408   .     A
C582   C608    1.409   .     A
C583   H613    1.082   .     S
C583   N628    1.366   .     A
C583   C649    1.417   .     S
C584   H614    1.082   .     S
C584   N627    1.366   .     A
C584   C714    1.417   1_455 S
C585   N627    1.367   .     A
C585   H615    1.082   .     S
C585   C711    1.417   1_455 S
C586   N628    1.367   .     A
C586   H616    1.082   .     S
C586   C648    1.417   .     S
C587   C589    1.464   .     S
C587   O636    1.298   .     A
C587   O634    1.291   .     A
C588   C591    1.467   .     S
C588   O637    1.298   .     A
C588   O635    1.292   .     A
C589   C596    1.393   .     A
C589   C594    1.412   .     A
C590   O631    1.280   .     A
C590   O633    1.282   .     A
C591   C595    1.412   .     A
C591   C597    1.396   .     A
C592   C600    1.402   .     A
C592   C594    1.395   .     A
C592   H622    1.084   .     S
C593   C602    1.402   .     A
C593   C595    1.394   .     A
C593   H623    1.084   .     S
C596   H621    1.077   .     S
C596   C598    1.396   .     A
C597   H620    1.073   .     S
C597   C599    1.396   .     A
C598   C603    1.421   .     A
C598   C600    1.416   .     A
C599   C604    1.423   .     A
C599   C602    1.416   .     A
C600   C30     1.388   1_556 S
C601   C604    1.419   .     A
C601   H624    1.076   .     S
C601   C606    1.386   .     A
C603   C605    1.418   .     A
C603   C28     1.419   1_556 S
C605   H625    1.077   .     S
C605   C607    1.385   .     A
C606   H611    1.084   .     S
C607   H619    1.084   .     S
C607   C26     1.388   1_556 S
C608   O638    1.382   .     S
C608   C802    1.374   .     S
C609   O630    1.381   .     S
C609   C964    1.373   1_545 S
C610   H626    1.085   .     S
C610   C992    1.374   1_545 S
H617   O638    0.989   .     S
H618   O630    0.989   .     S
N627   Zn639   2.011   .     S
N628   Zn640   2.011   .     S
O629   Zn639   1.990   .     S
O631   Zn640   1.990   .     S
O632   Zn640   1.987   .     S
O633   Zn639   1.987   .     S
O634   Zn639   1.972   .     S
O635   Zn640   1.972   .     S
O636   Zn640   1.909   .     S
O637   Zn639   1.909   .     S
Br641  C659    1.922   .     S
Br642  C658    1.921   .     S
C643   O696    1.282   .     A
C643   C646    1.410   .     S
C643   O693    1.280   .     A
C644   H676    1.085   .     S
C644   C646    1.394   .     A
C644   C865    1.373   .     S
C645   C674    1.395   .     A
C645   C654    1.411   .     S
C645   C673    1.408   .     A
C646   C672    1.409   .     A
C647   H677    1.082   .     S
C647   N692    1.366   .     A
C647   C713    1.417   .     S
C648   H678    1.082   .     S
C648   N691    1.366   .     A
C649   N691    1.367   .     A
C649   H679    1.082   .     S
C650   N692    1.367   .     A
C650   H680    1.082   .     S
C650   C712    1.417   .     S
C651   C653    1.464   .     S
C651   O700    1.298   .     A
C651   O698    1.291   .     A
C652   C655    1.467   .     S
C652   O701    1.298   .     A
C652   O699    1.292   .     A
C653   C660    1.393   .     A
C653   C658    1.412   .     A
C654   O695    1.280   .     A
C654   O697    1.282   .     A
C655   C659    1.412   .     A
C655   C661    1.396   .     A
C656   C664    1.402   .     A
C656   C658    1.395   .     A
C656   H686    1.084   .     S
C657   C666    1.402   .     A
C657   C659    1.394   .     A
C657   H687    1.084   .     S
C660   H685    1.077   .     S
C660   C662    1.396   .     A
C661   H684    1.073   .     S
C661   C663    1.396   .     A
C662   C667    1.421   .     A
C662   C664    1.416   .     A
C663   C668    1.423   .     A
C663   C666    1.416   .     A
C664   C94     1.388   1_556 S
C665   C668    1.419   .     A
C665   H688    1.076   .     S
C665   C670    1.386   .     A
C667   C669    1.418   .     A
C667   C92     1.419   1_556 S
C669   H689    1.077   .     S
C669   C671    1.385   .     A
C670   H675    1.084   .     S
C671   H683    1.084   .     S
C671   C90     1.388   1_556 S
C672   O702    1.382   .     S
C672   C866    1.374   .     S
C673   O694    1.381   .     S
C673   C1028   1.373   1_545 S
C674   H690    1.085   .     S
C674   C1056   1.374   1_545 S
H681   O702    0.989   .     S
H682   O694    0.989   .     S
N691   Zn703   2.011   .     S
N692   Zn704   2.011   .     S
O693   Zn703   1.990   .     S
O695   Zn704   1.990   .     S
O696   Zn704   1.987   .     S
O697   Zn703   1.987   .     S
O698   Zn703   1.972   .     S
O699   Zn704   1.972   .     S
O700   Zn704   1.909   .     S
O701   Zn703   1.909   .     S
Br705  C723    1.922   .     S
Br706  C722    1.921   .     S
C707   O760    1.282   .     A
C707   C710    1.410   .     S
C707   O757    1.280   .     A
C708   H740    1.085   .     S
C708   C710    1.394   .     A
C708   C929    1.373   .     S
C709   C738    1.395   .     A
C709   C718    1.411   .     S
C709   C737    1.408   .     A
C710   C736    1.409   .     A
C711   H741    1.082   .     S
C711   N756    1.366   .     A
C711   C585    1.417   1_655 S
C712   H742    1.082   .     S
C712   N755    1.366   .     A
C713   N755    1.367   .     A
C713   H743    1.082   .     S
C714   N756    1.367   .     A
C714   H744    1.082   .     S
C714   C584    1.417   1_655 S
C715   C717    1.464   .     S
C715   O764    1.298   .     A
C715   O762    1.291   .     A
C716   C719    1.467   .     S
C716   O765    1.298   .     A
C716   O763    1.292   .     A
C717   C724    1.393   .     A
C717   C722    1.412   .     A
C718   O759    1.280   .     A
C718   O761    1.282   .     A
C719   C723    1.412   .     A
C719   C725    1.396   .     A
C720   C728    1.402   .     A
C720   C722    1.395   .     A
C720   H750    1.084   .     S
C721   C730    1.402   .     A
C721   C723    1.394   .     A
C721   H751    1.084   .     S
C724   H749    1.077   .     S
C724   C726    1.396   .     A
C725   H748    1.073   .     S
C725   C727    1.396   .     A
C726   C731    1.421   .     A
C726   C728    1.416   .     A
C727   C732    1.423   .     A
C727   C730    1.416   .     A
C728   C158    1.388   1_556 S
C729   C732    1.419   .     A
C729   H752    1.076   .     S
C729   C734    1.386   .     A
C731   C733    1.418   .     A
C731   C156    1.419   1_556 S
C733   H753    1.077   .     S
C733   C735    1.385   .     A
C734   H739    1.084   .     S
C735   H747    1.084   .     S
C735   C154    1.388   1_556 S
C736   O766    1.382   .     S
C736   C930    1.374   .     S
C737   O758    1.381   .     S
C737   C1092   1.373   1_545 S
C738   H754    1.085   .     S
C738   C1120   1.374   1_545 S
H745   O766    0.989   .     S
H746   O758    0.989   .     S
N755   Zn767   2.011   .     S
N756   Zn768   2.011   .     S
O757   Zn767   1.990   .     S
O759   Zn768   1.990   .     S
O760   Zn768   1.987   .     S
O761   Zn767   1.987   .     S
O762   Zn767   1.972   .     S
O763   Zn768   1.972   .     S
O764   Zn768   1.909   .     S
O765   Zn767   1.909   .     S
Br769  C787    1.922   .     S
Br770  C786    1.921   .     S
C771   O824    1.282   .     A
C771   C774    1.410   .     S
C771   O821    1.280   .     A
C772   H804    1.085   .     S
C772   C774    1.394   .     A
C772   C993    1.373   .     S
C773   C802    1.395   .     A
C773   C782    1.411   .     S
C773   C801    1.408   .     A
C774   C800    1.409   .     A
C775   H805    1.082   .     S
C775   N820    1.366   .     A
C775   C841    1.417   .     S
C776   H806    1.082   .     S
C776   N819    1.366   .     A
C776   C906    1.417   1_455 S
C777   N819    1.367   .     A
C777   H807    1.082   .     S
C777   C903    1.417   1_455 S
C778   N820    1.367   .     A
C778   H808    1.082   .     S
C778   C840    1.417   .     S
C779   C781    1.464   .     S
C779   O828    1.298   .     A
C779   O826    1.291   .     A
C780   C783    1.467   .     S
C780   O829    1.298   .     A
C780   O827    1.292   .     A
C781   C788    1.393   .     A
C781   C786    1.412   .     A
C782   O823    1.280   .     A
C782   O825    1.282   .     A
C783   C787    1.412   .     A
C783   C789    1.396   .     A
C784   C792    1.402   .     A
C784   C786    1.395   .     A
C784   H814    1.084   .     S
C785   C794    1.402   .     A
C785   C787    1.394   .     A
C785   H815    1.084   .     S
C788   H813    1.077   .     S
C788   C790    1.396   .     A
C789   H812    1.073   .     S
C789   C791    1.396   .     A
C790   C795    1.421   .     A
C790   C792    1.416   .     A
C791   C796    1.423   .     A
C791   C794    1.416   .     A
C792   C222    1.388   1_556 S
C793   C796    1.419   .     A
C793   H816    1.076   .     S
C793   C798    1.386   .     A
C795   C797    1.418   .     A
C795   C220    1.419   1_556 S
C797   H817    1.077   .     S
C797   C799    1.385   .     A
C798   H803    1.084   .     S
C799   H811    1.084   .     S
C799   C218    1.388   1_556 S
C800   O830    1.382   .     S
C800   C994    1.374   .     S
C801   O822    1.381   .     S
C802   H818    1.085   .     S
H809   O830    0.989   .     S
H810   O822    0.989   .     S
N819   Zn831   2.011   .     S
N820   Zn832   2.011   .     S
O821   Zn831   1.990   .     S
O823   Zn832   1.990   .     S
O824   Zn832   1.987   .     S
O825   Zn831   1.987   .     S
O826   Zn831   1.972   .     S
O827   Zn832   1.972   .     S
O828   Zn832   1.909   .     S
O829   Zn831   1.909   .     S
Br833  C851    1.922   .     S
Br834  C850    1.921   .     S
C835   O888    1.282   .     A
C835   C838    1.410   .     S
C835   O885    1.280   .     A
C836   H868    1.085   .     S
C836   C838    1.394   .     A
C836   C1057   1.373   .     S
C837   C866    1.395   .     A
C837   C846    1.411   .     S
C837   C865    1.408   .     A
C838   C864    1.409   .     A
C839   H869    1.082   .     S
C839   N884    1.366   .     A
C839   C905    1.417   .     S
C840   H870    1.082   .     S
C840   N883    1.366   .     A
C841   N883    1.367   .     A
C841   H871    1.082   .     S
C842   N884    1.367   .     A
C842   H872    1.082   .     S
C842   C904    1.417   .     S
C843   C845    1.464   .     S
C843   O892    1.298   .     A
C843   O890    1.291   .     A
C844   C847    1.467   .     S
C844   O893    1.298   .     A
C844   O891    1.292   .     A
C845   C852    1.393   .     A
C845   C850    1.412   .     A
C846   O887    1.280   .     A
C846   O889    1.282   .     A
C847   C851    1.412   .     A
C847   C853    1.396   .     A
C848   C856    1.402   .     A
C848   C850    1.395   .     A
C848   H878    1.084   .     S
C849   C858    1.402   .     A
C849   C851    1.394   .     A
C849   H879    1.084   .     S
C852   H877    1.077   .     S
C852   C854    1.396   .     A
C853   H876    1.073   .     S
C853   C855    1.396   .     A
C854   C859    1.421   .     A
C854   C856    1.416   .     A
C855   C860    1.423   .     A
C855   C858    1.416   .     A
C856   C286    1.388   1_556 S
C857   C860    1.419   .     A
C857   H880    1.076   .     S
C857   C862    1.386   .     A
C859   C861    1.418   .     A
C859   C284    1.419   1_556 S
C861   H881    1.077   .     S
C861   C863    1.385   .     A
C862   H867    1.084   .     S
C863   H875    1.084   .     S
C863   C282    1.388   1_556 S
C864   O894    1.382   .     S
C864   C1058   1.374   .     S
C865   O886    1.381   .     S
C866   H882    1.085   .     S
H873   O894    0.989   .     S
H874   O886    0.989   .     S
N883   Zn895   2.011   .     S
N884   Zn896   2.011   .     S
O885   Zn895   1.990   .     S
O887   Zn896   1.990   .     S
O888   Zn896   1.987   .     S
O889   Zn895   1.987   .     S
O890   Zn895   1.972   .     S
O891   Zn896   1.972   .     S
O892   Zn896   1.909   .     S
O893   Zn895   1.909   .     S
Br897  C915    1.922   .     S
Br898  C914    1.921   .     S
C899   O952    1.282   .     A
C899   C902    1.410   .     S
C899   O949    1.280   .     A
C900   H932    1.085   .     S
C900   C902    1.394   .     A
C900   C1121   1.373   .     S
C901   C930    1.395   .     A
C901   C910    1.411   .     S
C901   C929    1.408   .     A
C902   C928    1.409   .     A
C903   H933    1.082   .     S
C903   N948    1.366   .     A
C903   C777    1.417   1_655 S
C904   H934    1.082   .     S
C904   N947    1.366   .     A
C905   N947    1.367   .     A
C905   H935    1.082   .     S
C906   N948    1.367   .     A
C906   H936    1.082   .     S
C906   C776    1.417   1_655 S
C907   C909    1.464   .     S
C907   O956    1.298   .     A
C907   O954    1.291   .     A
C908   C911    1.467   .     S
C908   O957    1.298   .     A
C908   O955    1.292   .     A
C909   C916    1.393   .     A
C909   C914    1.412   .     A
C910   O951    1.280   .     A
C910   O953    1.282   .     A
C911   C915    1.412   .     A
C911   C917    1.396   .     A
C912   C920    1.402   .     A
C912   C914    1.395   .     A
C912   H942    1.084   .     S
C913   C922    1.402   .     A
C913   C915    1.394   .     A
C913   H943    1.084   .     S
C916   H941    1.077   .     S
C916   C918    1.396   .     A
C917   H940    1.073   .     S
C917   C919    1.396   .     A
C918   C923    1.421   .     A
C918   C920    1.416   .     A
C919   C924    1.423   .     A
C919   C922    1.416   .     A
C920   C350    1.388   1_556 S
C921   C924    1.419   .     A
C921   H944    1.076   .     S
C921   C926    1.386   .     A
C923   C925    1.418   .     A
C923   C348    1.419   1_556 S
C925   H945    1.077   .     S
C925   C927    1.385   .     A
C926   H931    1.084   .     S
C927   H939    1.084   .     S
C927   C346    1.388   1_556 S
C928   O958    1.382   .     S
C928   C1122   1.374   .     S
C929   O950    1.381   .     S
C930   H946    1.085   .     S
H937   O958    0.989   .     S
H938   O950    0.989   .     S
N947   Zn959   2.011   .     S
N948   Zn960   2.011   .     S
O949   Zn959   1.990   .     S
O951   Zn960   1.990   .     S
O952   Zn960   1.987   .     S
O953   Zn959   1.987   .     S
O954   Zn959   1.972   .     S
O955   Zn960   1.972   .     S
O956   Zn960   1.909   .     S
O957   Zn959   1.909   .     S
Br961  C979    1.922   .     S
Br962  C978    1.921   .     S
C963   O1016   1.282   .     A
C963   C966    1.410   .     S
C963   O1013   1.280   .     A
C964   H996    1.085   .     S
C964   C966    1.394   .     A
C964   C609    1.373   1_565 S
C965   C994    1.395   .     A
C965   C974    1.411   .     S
C965   C993    1.408   .     A
C966   C992    1.409   .     A
C967   H997    1.082   .     S
C967   N1012   1.366   .     A
C967   C1033   1.417   .     S
C968   H998    1.082   .     S
C968   N1011   1.366   .     A
C968   C1098   1.417   1_455 S
C969   N1011   1.367   .     A
C969   H999    1.082   .     S
C969   C1095   1.417   1_455 S
C970   N1012   1.367   .     A
C970   H1000   1.082   .     S
C970   C1032   1.417   .     S
C971   C973    1.464   .     S
C971   O1020   1.298   .     A
C971   O1018   1.291   .     A
C972   C975    1.467   .     S
C972   O1021   1.298   .     A
C972   O1019   1.292   .     A
C973   C980    1.393   .     A
C973   C978    1.412   .     A
C974   O1015   1.280   .     A
C974   O1017   1.282   .     A
C975   C979    1.412   .     A
C975   C981    1.396   .     A
C976   C984    1.402   .     A
C976   C978    1.395   .     A
C976   H1006   1.084   .     S
C977   C986    1.402   .     A
C977   C979    1.394   .     A
C977   H1007   1.084   .     S
C980   H1005   1.077   .     S
C980   C982    1.396   .     A
C981   H1004   1.073   .     S
C981   C983    1.396   .     A
C982   C987    1.421   .     A
C982   C984    1.416   .     A
C983   C988    1.423   .     A
C983   C986    1.416   .     A
C984   C414    1.388   1_556 S
C985   C988    1.419   .     A
C985   H1008   1.076   .     S
C985   C990    1.386   .     A
C987   C989    1.418   .     A
C987   C412    1.419   1_556 S
C989   H1009   1.077   .     S
C989   C991    1.385   .     A
C990   H995    1.084   .     S
C991   H1003   1.084   .     S
C991   C410    1.388   1_556 S
C992   O1022   1.382   .     S
C992   C610    1.374   1_565 S
C993   O1014   1.381   .     S
C994   H1010   1.085   .     S
H1001  O1022   0.989   .     S
H1002  O1014   0.989   .     S
N1011  Zn1023  2.011   .     S
N1012  Zn1024  2.011   .     S
O1013  Zn1023  1.990   .     S
O1015  Zn1024  1.990   .     S
O1016  Zn1024  1.987   .     S
O1017  Zn1023  1.987   .     S
O1018  Zn1023  1.972   .     S
O1019  Zn1024  1.972   .     S
O1020  Zn1024  1.909   .     S
O1021  Zn1023  1.909   .     S
Br1025 C1043   1.922   .     S
Br1026 C1042   1.921   .     S
C1027  O1080   1.282   .     A
C1027  C1030   1.410   .     S
C1027  O1077   1.280   .     A
C1028  H1060   1.085   .     S
C1028  C1030   1.394   .     A
C1028  C673    1.373   1_565 S
C1029  C1058   1.395   .     A
C1029  C1038   1.411   .     S
C1029  C1057   1.408   .     A
C1030  C1056   1.409   .     A
C1031  H1061   1.082   .     S
C1031  N1076   1.366   .     A
C1031  C1097   1.417   .     S
C1032  H1062   1.082   .     S
C1032  N1075   1.366   .     A
C1033  N1075   1.367   .     A
C1033  H1063   1.082   .     S
C1034  N1076   1.367   .     A
C1034  H1064   1.082   .     S
C1034  C1096   1.417   .     S
C1035  C1037   1.464   .     S
C1035  O1084   1.298   .     A
C1035  O1082   1.291   .     A
C1036  C1039   1.467   .     S
C1036  O1085   1.298   .     A
C1036  O1083   1.292   .     A
C1037  C1044   1.393   .     A
C1037  C1042   1.412   .     A
C1038  O1079   1.280   .     A
C1038  O1081   1.282   .     A
C1039  C1043   1.412   .     A
C1039  C1045   1.396   .     A
C1040  C1048   1.402   .     A
C1040  C1042   1.395   .     A
C1040  H1070   1.084   .     S
C1041  C1050   1.402   .     A
C1041  C1043   1.394   .     A
C1041  H1071   1.084   .     S
C1044  H1069   1.077   .     S
C1044  C1046   1.396   .     A
C1045  H1068   1.073   .     S
C1045  C1047   1.396   .     A
C1046  C1051   1.421   .     A
C1046  C1048   1.416   .     A
C1047  C1052   1.423   .     A
C1047  C1050   1.416   .     A
C1048  C478    1.388   1_556 S
C1049  C1052   1.419   .     A
C1049  H1072   1.076   .     S
C1049  C1054   1.386   .     A
C1051  C1053   1.418   .     A
C1051  C476    1.419   1_556 S
C1053  H1073   1.077   .     S
C1053  C1055   1.385   .     A
C1054  H1059   1.084   .     S
C1055  H1067   1.084   .     S
C1055  C474    1.388   1_556 S
C1056  O1086   1.382   .     S
C1056  C674    1.374   1_565 S
C1057  O1078   1.381   .     S
C1058  H1074   1.085   .     S
H1065  O1086   0.989   .     S
H1066  O1078   0.989   .     S
N1075  Zn1087  2.011   .     S
N1076  Zn1088  2.011   .     S
O1077  Zn1087  1.990   .     S
O1079  Zn1088  1.990   .     S
O1080  Zn1088  1.987   .     S
O1081  Zn1087  1.987   .     S
O1082  Zn1087  1.972   .     S
O1083  Zn1088  1.972   .     S
O1084  Zn1088  1.909   .     S
O1085  Zn1087  1.909   .     S
Br1089 C1107   1.922   .     S
Br1090 C1106   1.921   .     S
C1091  O1144   1.282   .     A
C1091  C1094   1.410   .     S
C1091  O1141   1.280   .     A
C1092  H1124   1.085   .     S
C1092  C1094   1.394   .     A
C1092  C737    1.373   1_565 S
C1093  C1122   1.395   .     A
C1093  C1102   1.411   .     S
C1093  C1121   1.408   .     A
C1094  C1120   1.409   .     A
C1095  H1125   1.082   .     S
C1095  N1140   1.366   .     A
C1095  C969    1.417   1_655 S
C1096  H1126   1.082   .     S
C1096  N1139   1.366   .     A
C1097  N1139   1.367   .     A
C1097  H1127   1.082   .     S
C1098  N1140   1.367   .     A
C1098  H1128   1.082   .     S
C1098  C968    1.417   1_655 S
C1099  C1101   1.464   .     S
C1099  O1148   1.298   .     A
C1099  O1146   1.291   .     A
C1100  C1103   1.467   .     S
C1100  O1149   1.298   .     A
C1100  O1147   1.292   .     A
C1101  C1108   1.393   .     A
C1101  C1106   1.412   .     A
C1102  O1143   1.280   .     A
C1102  O1145   1.282   .     A
C1103  C1107   1.412   .     A
C1103  C1109   1.396   .     A
C1104  C1112   1.402   .     A
C1104  C1106   1.395   .     A
C1104  H1134   1.084   .     S
C1105  C1114   1.402   .     A
C1105  C1107   1.394   .     A
C1105  H1135   1.084   .     S
C1108  H1133   1.077   .     S
C1108  C1110   1.396   .     A
C1109  H1132   1.073   .     S
C1109  C1111   1.396   .     A
C1110  C1115   1.421   .     A
C1110  C1112   1.416   .     A
C1111  C1116   1.423   .     A
C1111  C1114   1.416   .     A
C1112  C542    1.388   1_556 S
C1113  C1116   1.419   .     A
C1113  H1136   1.076   .     S
C1113  C1118   1.386   .     A
C1115  C1117   1.418   .     A
C1115  C540    1.419   1_556 S
C1117  H1137   1.077   .     S
C1117  C1119   1.385   .     A
C1118  H1123   1.084   .     S
C1119  H1131   1.084   .     S
C1119  C538    1.388   1_556 S
C1120  O1150   1.382   .     S
C1120  C738    1.374   1_565 S
C1121  O1142   1.381   .     S
C1122  H1138   1.085   .     S
H1129  O1150   0.989   .     S
H1130  O1142   0.989   .     S
N1139  Zn1151  2.011   .     S
N1140  Zn1152  2.011   .     S
O1141  Zn1151  1.990   .     S
O1143  Zn1152  1.990   .     S
O1144  Zn1152  1.987   .     S
O1145  Zn1151  1.987   .     S
O1146  Zn1151  1.972   .     S
O1147  Zn1152  1.972   .     S
O1148  Zn1152  1.909   .     S
O1149  Zn1151  1.909   .     S
