data_str_m3_o2_o5_pcu_sym.21
_audit_creation_date              2020-01-03
_audit_creation_method            'Materials Studio'
_symmetry_space_group_name_H-M    'P1'
_symmetry_Int_Tables_number       1
_symmetry_cell_setting            triclinic
loop_
_symmetry_equiv_pos_as_xyz
  x,y,z
_cell_length_a                    29.9868
_cell_length_b                    28.8547
_cell_length_c                    26.5843
_cell_angle_alpha                 90.0000
_cell_angle_beta                  93.0534
_cell_angle_gamma                 90.0000
loop_
_atom_site_label
_atom_site_type_symbol
_atom_site_fract_x
_atom_site_fract_y
_atom_site_fract_z
_atom_site_U_iso_or_equiv
_atom_site_adp_type
_atom_site_occupancy
C1     C     0.16409   0.24999   0.16652   0.00000  Uiso   1.00
C2     C     0.22051   0.44758   0.13491   0.00000  Uiso   1.00
C3     C     0.24984   0.25004   0.07307   0.00000  Uiso   1.00
C4     C     0.25016   0.25004   0.26027   0.00000  Uiso   1.00
C5     C     0.25000   0.02559   0.16667   0.00000  Uiso   1.00
C6     C     0.25000   0.47301   0.16667   0.00000  Uiso   1.00
C7     C     0.24995   0.25022   0.02187   0.00000  Uiso   1.00
C8     C     0.25005   0.25022   0.31147   0.00000  Uiso   1.00
C9     C     0.04617   0.28860   0.14863   0.00000  Uiso   1.00
C10    C     0.45201   0.21095   0.14894   0.00000  Uiso   1.00
C11    C     0.45383   0.28860   0.18471   0.00000  Uiso   1.00
C12    C     0.33591   0.24999   0.16681   0.00000  Uiso   1.00
C13    C     0.04799   0.21095   0.18441   0.00000  Uiso   1.00
C14    C     0.09221   0.28878   0.14882   0.00000  Uiso   1.00
C15    C     0.40598   0.21092   0.14921   0.00000  Uiso   1.00
C16    C     0.40779   0.28878   0.18451   0.00000  Uiso   1.00
C17    C     0.09402   0.21093   0.18413   0.00000  Uiso   1.00
C18    C     0.11613   0.24991   0.16648   0.00000  Uiso   1.00
C19    C     0.38387   0.24991   0.16685   0.00000  Uiso   1.00
C20    C     0.02407   0.24975   0.16658   0.00000  Uiso   1.00
C21    C     0.47593   0.24975   0.16676   0.00000  Uiso   1.00
C22    C     0.22743   0.12005   0.07084   0.00000  Uiso   1.00
C23    C     0.23944   0.10020   0.12285   0.00000  Uiso   1.00
C24    C     0.17961   0.13925   0.06612   0.00000  Uiso   1.00
C25    C     0.16534   0.15076   0.01154   0.00000  Uiso   1.00
C26    C     0.31093   0.37562   0.23715   0.00000  Uiso   1.00
C27    C     0.29739   0.38395   0.29111   0.00000  Uiso   1.00
C28    C     0.32889   0.35912   0.32928   0.00000  Uiso   1.00
C29    C     0.27257   0.12005   0.26249   0.00000  Uiso   1.00
C30    C     0.32039   0.13925   0.26722   0.00000  Uiso   1.00
C31    C     0.33466   0.15076   0.32180   0.00000  Uiso   1.00
C32    C     0.18907   0.37562   0.09618   0.00000  Uiso   1.00
C33    C     0.20261   0.38396   0.04222   0.00000  Uiso   1.00
C34    C     0.27871   0.39854   0.19926   0.00000  Uiso   1.00
C35    C     0.17111   0.35912   0.00406   0.00000  Uiso   1.00
C36    C     0.26056   0.10020   0.21049   0.00000  Uiso   1.00
C37    C     0.22129   0.39854   0.13408   0.00000  Uiso   1.00
C38    C     0.23964   0.05094   0.12336   0.00000  Uiso   1.00
C39    C     0.27949   0.44758   0.19842   0.00000  Uiso   1.00
C40    C     0.26036   0.05094   0.20997   0.00000  Uiso   1.00
H41    H     0.02780   0.31850   0.13411   0.00000  Uiso   1.00
H42    H     0.30375   0.46575   0.22276   0.00000  Uiso   1.00
H43    H     0.26784   0.03180   0.24442   0.00000  Uiso   1.00
H44    H     0.19625   0.46575   0.11058   0.00000  Uiso   1.00
H45    H     0.18793   0.17710   0.32971   0.00000  Uiso   1.00
H46    H     0.16589   0.11914   0.32108   0.00000  Uiso   1.00
H47    H     0.13085   0.16490   0.00968   0.00000  Uiso   1.00
H48    H     0.15611   0.11304   0.08019   0.00000  Uiso   1.00
H49    H     0.17655   0.17087   0.08875   0.00000  Uiso   1.00
H50    H     0.25371   0.14280   0.05750   0.00000  Uiso   1.00
H51    H     0.22846   0.09227   0.04190   0.00000  Uiso   1.00
H52    H     0.46890   0.18101   0.13437   0.00000  Uiso   1.00
H53    H     0.32783   0.32109   0.32278   0.00000  Uiso   1.00
H54    H     0.36365   0.37166   0.32611   0.00000  Uiso   1.00
H55    H     0.31863   0.36617   0.03472   0.00000  Uiso   1.00
H56    H     0.29760   0.42160   0.29991   0.00000  Uiso   1.00
H57    H     0.26307   0.37052   0.29441   0.00000  Uiso   1.00
H58    H     0.31281   0.33832   0.23183   0.00000  Uiso   1.00
H59    H     0.34507   0.38949   0.23251   0.00000  Uiso   1.00
H60    H     0.31207   0.17710   0.00363   0.00000  Uiso   1.00
H61    H     0.33411   0.11914   0.01225   0.00000  Uiso   1.00
H62    H     0.36915   0.16490   0.32365   0.00000  Uiso   1.00
H63    H     0.47220   0.31850   0.19922   0.00000  Uiso   1.00
H64    H     0.34389   0.11305   0.25314   0.00000  Uiso   1.00
H65    H     0.32345   0.17088   0.24459   0.00000  Uiso   1.00
H66    H     0.24629   0.14280   0.27583   0.00000  Uiso   1.00
H67    H     0.27154   0.09227   0.29143   0.00000  Uiso   1.00
H68    H     0.17217   0.32109   0.01055   0.00000  Uiso   1.00
H69    H     0.13635   0.37166   0.00722   0.00000  Uiso   1.00
H70    H     0.18137   0.36618   0.29861   0.00000  Uiso   1.00
H71    H     0.20240   0.42160   0.03342   0.00000  Uiso   1.00
H72    H     0.23693   0.37052   0.03892   0.00000  Uiso   1.00
H73    H     0.18719   0.33832   0.10151   0.00000  Uiso   1.00
H74    H     0.03110   0.18101   0.19898   0.00000  Uiso   1.00
H75    H     0.15493   0.38949   0.10082   0.00000  Uiso   1.00
H76    H     0.10897   0.31895   0.13465   0.00000  Uiso   1.00
H77    H     0.38774   0.18082   0.13503   0.00000  Uiso   1.00
H78    H     0.39103   0.31895   0.19868   0.00000  Uiso   1.00
H79    H     0.11226   0.18082   0.19831   0.00000  Uiso   1.00
H80    H     0.23216   0.03180   0.08892   0.00000  Uiso   1.00
N81    N     0.25000   0.12624   0.16667   0.00000  Uiso   1.00
N82    N     0.25000   0.37377   0.16667   0.00000  Uiso   1.00
O83    O     0.18453   0.28974   0.16667   0.00000  Uiso   1.00
O84    O     0.31547   0.21026   0.16666   0.00000  Uiso   1.00
O85    O     0.31547   0.28974   0.16666   0.00000  Uiso   1.00
O86    O     0.18453   0.21026   0.16667   0.00000  Uiso   1.00
O87    O     0.25000   0.28973   0.09511   0.00000  Uiso   1.00
O88    O     0.25000   0.21027   0.23822   0.00000  Uiso   1.00
O89    O     0.25000   0.28973   0.23822   0.00000  Uiso   1.00
O90    O     0.25000   0.21027   0.09511   0.00000  Uiso   1.00
Zn91   Zn    0.25000   0.30307   0.16667   0.00000  Uiso   1.00
Zn92   Zn    0.25000   0.19693   0.16667   0.00000  Uiso   1.00
C93    C     0.66409   0.24999   0.16652   0.00000  Uiso   1.00
C94    C     0.72051   0.44758   0.13491   0.00000  Uiso   1.00
C95    C     0.74984   0.25004   0.07307   0.00000  Uiso   1.00
C96    C     0.75016   0.25004   0.26027   0.00000  Uiso   1.00
C97    C     0.75000   0.02559   0.16667   0.00000  Uiso   1.00
C98    C     0.75000   0.47301   0.16667   0.00000  Uiso   1.00
C99    C     0.74995   0.25022   0.02187   0.00000  Uiso   1.00
C100   C     0.75005   0.25022   0.31147   0.00000  Uiso   1.00
C101   C     0.54617   0.28860   0.14863   0.00000  Uiso   1.00
C102   C     0.95201   0.21095   0.14894   0.00000  Uiso   1.00
C103   C     0.95383   0.28860   0.18471   0.00000  Uiso   1.00
C104   C     0.83591   0.24999   0.16681   0.00000  Uiso   1.00
C105   C     0.54799   0.21095   0.18441   0.00000  Uiso   1.00
C106   C     0.59221   0.28878   0.14882   0.00000  Uiso   1.00
C107   C     0.90598   0.21092   0.14921   0.00000  Uiso   1.00
C108   C     0.90779   0.28878   0.18451   0.00000  Uiso   1.00
C109   C     0.59402   0.21093   0.18413   0.00000  Uiso   1.00
C110   C     0.61613   0.24991   0.16648   0.00000  Uiso   1.00
C111   C     0.88387   0.24991   0.16685   0.00000  Uiso   1.00
C112   C     0.52407   0.24975   0.16658   0.00000  Uiso   1.00
C113   C     0.97593   0.24975   0.16676   0.00000  Uiso   1.00
C114   C     0.72743   0.12005   0.07084   0.00000  Uiso   1.00
C115   C     0.73944   0.10020   0.12285   0.00000  Uiso   1.00
C116   C     0.67961   0.13925   0.06612   0.00000  Uiso   1.00
C117   C     0.66534   0.15076   0.01154   0.00000  Uiso   1.00
C118   C     0.81093   0.37562   0.23715   0.00000  Uiso   1.00
C119   C     0.79739   0.38395   0.29111   0.00000  Uiso   1.00
C120   C     0.82889   0.35912   0.32928   0.00000  Uiso   1.00
C121   C     0.77257   0.12005   0.26249   0.00000  Uiso   1.00
C122   C     0.82039   0.13925   0.26722   0.00000  Uiso   1.00
C123   C     0.83466   0.15076   0.32180   0.00000  Uiso   1.00
C124   C     0.68907   0.37562   0.09618   0.00000  Uiso   1.00
C125   C     0.70261   0.38396   0.04222   0.00000  Uiso   1.00
C126   C     0.77871   0.39854   0.19926   0.00000  Uiso   1.00
C127   C     0.67111   0.35912   0.00406   0.00000  Uiso   1.00
C128   C     0.76056   0.10020   0.21049   0.00000  Uiso   1.00
C129   C     0.72129   0.39854   0.13408   0.00000  Uiso   1.00
C130   C     0.73964   0.05094   0.12336   0.00000  Uiso   1.00
C131   C     0.77949   0.44758   0.19842   0.00000  Uiso   1.00
C132   C     0.76036   0.05094   0.20997   0.00000  Uiso   1.00
H133   H     0.52780   0.31850   0.13411   0.00000  Uiso   1.00
H134   H     0.80375   0.46575   0.22276   0.00000  Uiso   1.00
H135   H     0.76784   0.03180   0.24442   0.00000  Uiso   1.00
H136   H     0.69625   0.46575   0.11058   0.00000  Uiso   1.00
H137   H     0.68793   0.17710   0.32971   0.00000  Uiso   1.00
H138   H     0.66589   0.11914   0.32108   0.00000  Uiso   1.00
H139   H     0.63085   0.16490   0.00968   0.00000  Uiso   1.00
H140   H     0.65611   0.11304   0.08019   0.00000  Uiso   1.00
H141   H     0.67655   0.17087   0.08875   0.00000  Uiso   1.00
H142   H     0.75371   0.14280   0.05750   0.00000  Uiso   1.00
H143   H     0.72846   0.09227   0.04190   0.00000  Uiso   1.00
H144   H     0.96890   0.18101   0.13437   0.00000  Uiso   1.00
H145   H     0.82783   0.32109   0.32278   0.00000  Uiso   1.00
H146   H     0.86365   0.37166   0.32611   0.00000  Uiso   1.00
H147   H     0.81863   0.36617   0.03472   0.00000  Uiso   1.00
H148   H     0.79760   0.42160   0.29991   0.00000  Uiso   1.00
H149   H     0.76307   0.37052   0.29441   0.00000  Uiso   1.00
H150   H     0.81281   0.33832   0.23183   0.00000  Uiso   1.00
H151   H     0.84507   0.38949   0.23251   0.00000  Uiso   1.00
H152   H     0.81207   0.17710   0.00363   0.00000  Uiso   1.00
H153   H     0.83411   0.11914   0.01225   0.00000  Uiso   1.00
H154   H     0.86915   0.16490   0.32365   0.00000  Uiso   1.00
H155   H     0.97220   0.31850   0.19922   0.00000  Uiso   1.00
H156   H     0.84389   0.11305   0.25314   0.00000  Uiso   1.00
H157   H     0.82345   0.17088   0.24459   0.00000  Uiso   1.00
H158   H     0.74629   0.14280   0.27583   0.00000  Uiso   1.00
H159   H     0.77154   0.09227   0.29143   0.00000  Uiso   1.00
H160   H     0.67217   0.32109   0.01055   0.00000  Uiso   1.00
H161   H     0.63635   0.37166   0.00722   0.00000  Uiso   1.00
H162   H     0.68137   0.36618   0.29861   0.00000  Uiso   1.00
H163   H     0.70240   0.42160   0.03342   0.00000  Uiso   1.00
H164   H     0.73693   0.37052   0.03892   0.00000  Uiso   1.00
H165   H     0.68719   0.33832   0.10151   0.00000  Uiso   1.00
H166   H     0.53110   0.18101   0.19898   0.00000  Uiso   1.00
H167   H     0.65493   0.38949   0.10082   0.00000  Uiso   1.00
H168   H     0.60897   0.31895   0.13465   0.00000  Uiso   1.00
H169   H     0.88774   0.18082   0.13503   0.00000  Uiso   1.00
H170   H     0.89103   0.31895   0.19868   0.00000  Uiso   1.00
H171   H     0.61226   0.18082   0.19831   0.00000  Uiso   1.00
H172   H     0.73216   0.03180   0.08892   0.00000  Uiso   1.00
N173   N     0.75000   0.12624   0.16667   0.00000  Uiso   1.00
N174   N     0.75000   0.37377   0.16667   0.00000  Uiso   1.00
O175   O     0.68453   0.28974   0.16667   0.00000  Uiso   1.00
O176   O     0.81547   0.21026   0.16666   0.00000  Uiso   1.00
O177   O     0.81547   0.28974   0.16666   0.00000  Uiso   1.00
O178   O     0.68453   0.21026   0.16667   0.00000  Uiso   1.00
O179   O     0.75000   0.28973   0.09511   0.00000  Uiso   1.00
O180   O     0.75000   0.21027   0.23822   0.00000  Uiso   1.00
O181   O     0.75000   0.28973   0.23822   0.00000  Uiso   1.00
O182   O     0.75000   0.21027   0.09511   0.00000  Uiso   1.00
Zn183  Zn    0.75000   0.30307   0.16667   0.00000  Uiso   1.00
Zn184  Zn    0.75000   0.19693   0.16667   0.00000  Uiso   1.00
C185   C     0.16409   0.74999   0.16652   0.00000  Uiso   1.00
C186   C     0.22051   0.94758   0.13491   0.00000  Uiso   1.00
C187   C     0.24984   0.75004   0.07307   0.00000  Uiso   1.00
C188   C     0.25016   0.75004   0.26027   0.00000  Uiso   1.00
C189   C     0.25000   0.52559   0.16667   0.00000  Uiso   1.00
C190   C     0.25000   0.97301   0.16667   0.00000  Uiso   1.00
C191   C     0.24995   0.75022   0.02187   0.00000  Uiso   1.00
C192   C     0.25005   0.75022   0.31147   0.00000  Uiso   1.00
C193   C     0.04617   0.78860   0.14863   0.00000  Uiso   1.00
C194   C     0.45201   0.71095   0.14894   0.00000  Uiso   1.00
C195   C     0.45383   0.78860   0.18471   0.00000  Uiso   1.00
C196   C     0.33591   0.74999   0.16681   0.00000  Uiso   1.00
C197   C     0.04799   0.71095   0.18441   0.00000  Uiso   1.00
C198   C     0.09221   0.78878   0.14882   0.00000  Uiso   1.00
C199   C     0.40598   0.71092   0.14921   0.00000  Uiso   1.00
C200   C     0.40779   0.78878   0.18451   0.00000  Uiso   1.00
C201   C     0.09402   0.71093   0.18413   0.00000  Uiso   1.00
C202   C     0.11613   0.74991   0.16648   0.00000  Uiso   1.00
C203   C     0.38387   0.74991   0.16685   0.00000  Uiso   1.00
C204   C     0.02407   0.74975   0.16658   0.00000  Uiso   1.00
C205   C     0.47593   0.74975   0.16676   0.00000  Uiso   1.00
C206   C     0.22743   0.62005   0.07084   0.00000  Uiso   1.00
C207   C     0.23944   0.60020   0.12285   0.00000  Uiso   1.00
C208   C     0.17961   0.63925   0.06612   0.00000  Uiso   1.00
C209   C     0.16534   0.65076   0.01154   0.00000  Uiso   1.00
C210   C     0.31093   0.87562   0.23715   0.00000  Uiso   1.00
C211   C     0.29739   0.88395   0.29111   0.00000  Uiso   1.00
C212   C     0.32889   0.85912   0.32928   0.00000  Uiso   1.00
C213   C     0.27257   0.62005   0.26249   0.00000  Uiso   1.00
C214   C     0.32039   0.63925   0.26722   0.00000  Uiso   1.00
C215   C     0.33466   0.65076   0.32180   0.00000  Uiso   1.00
C216   C     0.18907   0.87562   0.09618   0.00000  Uiso   1.00
C217   C     0.20261   0.88396   0.04222   0.00000  Uiso   1.00
C218   C     0.27871   0.89854   0.19926   0.00000  Uiso   1.00
C219   C     0.17111   0.85912   0.00406   0.00000  Uiso   1.00
C220   C     0.26056   0.60020   0.21049   0.00000  Uiso   1.00
C221   C     0.22129   0.89854   0.13408   0.00000  Uiso   1.00
C222   C     0.23964   0.55094   0.12336   0.00000  Uiso   1.00
C223   C     0.27949   0.94758   0.19842   0.00000  Uiso   1.00
C224   C     0.26036   0.55094   0.20997   0.00000  Uiso   1.00
H225   H     0.02780   0.81850   0.13411   0.00000  Uiso   1.00
H226   H     0.30375   0.96575   0.22276   0.00000  Uiso   1.00
H227   H     0.26784   0.53180   0.24442   0.00000  Uiso   1.00
H228   H     0.19625   0.96575   0.11058   0.00000  Uiso   1.00
H229   H     0.18793   0.67710   0.32971   0.00000  Uiso   1.00
H230   H     0.16589   0.61914   0.32108   0.00000  Uiso   1.00
H231   H     0.13085   0.66490   0.00968   0.00000  Uiso   1.00
H232   H     0.15611   0.61304   0.08019   0.00000  Uiso   1.00
H233   H     0.17655   0.67087   0.08875   0.00000  Uiso   1.00
H234   H     0.25371   0.64280   0.05750   0.00000  Uiso   1.00
H235   H     0.22846   0.59227   0.04190   0.00000  Uiso   1.00
H236   H     0.46890   0.68101   0.13437   0.00000  Uiso   1.00
H237   H     0.32783   0.82109   0.32278   0.00000  Uiso   1.00
H238   H     0.36365   0.87166   0.32611   0.00000  Uiso   1.00
H239   H     0.31863   0.86617   0.03472   0.00000  Uiso   1.00
H240   H     0.29760   0.92160   0.29991   0.00000  Uiso   1.00
H241   H     0.26307   0.87052   0.29441   0.00000  Uiso   1.00
H242   H     0.31281   0.83832   0.23183   0.00000  Uiso   1.00
H243   H     0.34507   0.88949   0.23251   0.00000  Uiso   1.00
H244   H     0.31207   0.67710   0.00363   0.00000  Uiso   1.00
H245   H     0.33411   0.61914   0.01225   0.00000  Uiso   1.00
H246   H     0.36915   0.66490   0.32365   0.00000  Uiso   1.00
H247   H     0.47220   0.81850   0.19922   0.00000  Uiso   1.00
H248   H     0.34389   0.61305   0.25314   0.00000  Uiso   1.00
H249   H     0.32345   0.67088   0.24459   0.00000  Uiso   1.00
H250   H     0.24629   0.64280   0.27583   0.00000  Uiso   1.00
H251   H     0.27154   0.59227   0.29143   0.00000  Uiso   1.00
H252   H     0.17217   0.82109   0.01055   0.00000  Uiso   1.00
H253   H     0.13635   0.87166   0.00722   0.00000  Uiso   1.00
H254   H     0.18137   0.86618   0.29861   0.00000  Uiso   1.00
H255   H     0.20240   0.92160   0.03342   0.00000  Uiso   1.00
H256   H     0.23693   0.87052   0.03892   0.00000  Uiso   1.00
H257   H     0.18719   0.83832   0.10151   0.00000  Uiso   1.00
H258   H     0.03110   0.68101   0.19898   0.00000  Uiso   1.00
H259   H     0.15493   0.88949   0.10082   0.00000  Uiso   1.00
H260   H     0.10897   0.81895   0.13465   0.00000  Uiso   1.00
H261   H     0.38774   0.68082   0.13503   0.00000  Uiso   1.00
H262   H     0.39103   0.81895   0.19868   0.00000  Uiso   1.00
H263   H     0.11226   0.68082   0.19831   0.00000  Uiso   1.00
H264   H     0.23216   0.53180   0.08892   0.00000  Uiso   1.00
N265   N     0.25000   0.62624   0.16667   0.00000  Uiso   1.00
N266   N     0.25000   0.87377   0.16667   0.00000  Uiso   1.00
O267   O     0.18453   0.78974   0.16667   0.00000  Uiso   1.00
O268   O     0.31547   0.71026   0.16666   0.00000  Uiso   1.00
O269   O     0.31547   0.78974   0.16666   0.00000  Uiso   1.00
O270   O     0.18453   0.71026   0.16667   0.00000  Uiso   1.00
O271   O     0.25000   0.78973   0.09511   0.00000  Uiso   1.00
O272   O     0.25000   0.71027   0.23822   0.00000  Uiso   1.00
O273   O     0.25000   0.78973   0.23822   0.00000  Uiso   1.00
O274   O     0.25000   0.71027   0.09511   0.00000  Uiso   1.00
Zn275  Zn    0.25000   0.80307   0.16667   0.00000  Uiso   1.00
Zn276  Zn    0.25000   0.69693   0.16667   0.00000  Uiso   1.00
C277   C     0.66409   0.74999   0.16652   0.00000  Uiso   1.00
C278   C     0.72051   0.94758   0.13491   0.00000  Uiso   1.00
C279   C     0.74984   0.75004   0.07307   0.00000  Uiso   1.00
C280   C     0.75016   0.75004   0.26027   0.00000  Uiso   1.00
C281   C     0.75000   0.52559   0.16667   0.00000  Uiso   1.00
C282   C     0.75000   0.97301   0.16667   0.00000  Uiso   1.00
C283   C     0.74995   0.75022   0.02187   0.00000  Uiso   1.00
C284   C     0.75005   0.75022   0.31147   0.00000  Uiso   1.00
C285   C     0.54617   0.78860   0.14863   0.00000  Uiso   1.00
C286   C     0.95201   0.71095   0.14894   0.00000  Uiso   1.00
C287   C     0.95383   0.78860   0.18471   0.00000  Uiso   1.00
C288   C     0.83591   0.74999   0.16681   0.00000  Uiso   1.00
C289   C     0.54799   0.71095   0.18441   0.00000  Uiso   1.00
C290   C     0.59221   0.78878   0.14882   0.00000  Uiso   1.00
C291   C     0.90598   0.71092   0.14921   0.00000  Uiso   1.00
C292   C     0.90779   0.78878   0.18451   0.00000  Uiso   1.00
C293   C     0.59402   0.71093   0.18413   0.00000  Uiso   1.00
C294   C     0.61613   0.74991   0.16648   0.00000  Uiso   1.00
C295   C     0.88387   0.74991   0.16685   0.00000  Uiso   1.00
C296   C     0.52407   0.74975   0.16658   0.00000  Uiso   1.00
C297   C     0.97593   0.74975   0.16676   0.00000  Uiso   1.00
C298   C     0.72743   0.62005   0.07084   0.00000  Uiso   1.00
C299   C     0.73944   0.60020   0.12285   0.00000  Uiso   1.00
C300   C     0.67961   0.63925   0.06612   0.00000  Uiso   1.00
C301   C     0.66534   0.65076   0.01154   0.00000  Uiso   1.00
C302   C     0.81093   0.87562   0.23715   0.00000  Uiso   1.00
C303   C     0.79739   0.88395   0.29111   0.00000  Uiso   1.00
C304   C     0.82889   0.85912   0.32928   0.00000  Uiso   1.00
C305   C     0.77257   0.62005   0.26249   0.00000  Uiso   1.00
C306   C     0.82039   0.63925   0.26722   0.00000  Uiso   1.00
C307   C     0.83466   0.65076   0.32180   0.00000  Uiso   1.00
C308   C     0.68907   0.87562   0.09618   0.00000  Uiso   1.00
C309   C     0.70261   0.88396   0.04222   0.00000  Uiso   1.00
C310   C     0.77871   0.89854   0.19926   0.00000  Uiso   1.00
C311   C     0.67111   0.85912   0.00406   0.00000  Uiso   1.00
C312   C     0.76056   0.60020   0.21049   0.00000  Uiso   1.00
C313   C     0.72129   0.89854   0.13408   0.00000  Uiso   1.00
C314   C     0.73964   0.55094   0.12336   0.00000  Uiso   1.00
C315   C     0.77949   0.94758   0.19842   0.00000  Uiso   1.00
C316   C     0.76036   0.55094   0.20997   0.00000  Uiso   1.00
H317   H     0.52780   0.81850   0.13411   0.00000  Uiso   1.00
H318   H     0.80375   0.96575   0.22276   0.00000  Uiso   1.00
H319   H     0.76784   0.53180   0.24442   0.00000  Uiso   1.00
H320   H     0.69625   0.96575   0.11058   0.00000  Uiso   1.00
H321   H     0.68793   0.67710   0.32971   0.00000  Uiso   1.00
H322   H     0.66589   0.61914   0.32108   0.00000  Uiso   1.00
H323   H     0.63085   0.66490   0.00968   0.00000  Uiso   1.00
H324   H     0.65611   0.61304   0.08019   0.00000  Uiso   1.00
H325   H     0.67655   0.67087   0.08875   0.00000  Uiso   1.00
H326   H     0.75371   0.64280   0.05750   0.00000  Uiso   1.00
H327   H     0.72846   0.59227   0.04190   0.00000  Uiso   1.00
H328   H     0.96890   0.68101   0.13437   0.00000  Uiso   1.00
H329   H     0.82783   0.82109   0.32278   0.00000  Uiso   1.00
H330   H     0.86365   0.87166   0.32611   0.00000  Uiso   1.00
H331   H     0.81863   0.86617   0.03472   0.00000  Uiso   1.00
H332   H     0.79760   0.92160   0.29991   0.00000  Uiso   1.00
H333   H     0.76307   0.87052   0.29441   0.00000  Uiso   1.00
H334   H     0.81281   0.83832   0.23183   0.00000  Uiso   1.00
H335   H     0.84507   0.88949   0.23251   0.00000  Uiso   1.00
H336   H     0.81207   0.67710   0.00363   0.00000  Uiso   1.00
H337   H     0.83411   0.61914   0.01225   0.00000  Uiso   1.00
H338   H     0.86915   0.66490   0.32365   0.00000  Uiso   1.00
H339   H     0.97220   0.81850   0.19922   0.00000  Uiso   1.00
H340   H     0.84389   0.61305   0.25314   0.00000  Uiso   1.00
H341   H     0.82345   0.67088   0.24459   0.00000  Uiso   1.00
H342   H     0.74629   0.64280   0.27583   0.00000  Uiso   1.00
H343   H     0.77154   0.59227   0.29143   0.00000  Uiso   1.00
H344   H     0.67217   0.82109   0.01055   0.00000  Uiso   1.00
H345   H     0.63635   0.87166   0.00722   0.00000  Uiso   1.00
H346   H     0.68137   0.86618   0.29861   0.00000  Uiso   1.00
H347   H     0.70240   0.92160   0.03342   0.00000  Uiso   1.00
H348   H     0.73693   0.87052   0.03892   0.00000  Uiso   1.00
H349   H     0.68719   0.83832   0.10151   0.00000  Uiso   1.00
H350   H     0.53110   0.68101   0.19898   0.00000  Uiso   1.00
H351   H     0.65493   0.88949   0.10082   0.00000  Uiso   1.00
H352   H     0.60897   0.81895   0.13465   0.00000  Uiso   1.00
H353   H     0.88774   0.68082   0.13503   0.00000  Uiso   1.00
H354   H     0.89103   0.81895   0.19868   0.00000  Uiso   1.00
H355   H     0.61226   0.68082   0.19831   0.00000  Uiso   1.00
H356   H     0.73216   0.53180   0.08892   0.00000  Uiso   1.00
N357   N     0.75000   0.62624   0.16667   0.00000  Uiso   1.00
N358   N     0.75000   0.87377   0.16667   0.00000  Uiso   1.00
O359   O     0.68453   0.78974   0.16667   0.00000  Uiso   1.00
O360   O     0.81547   0.71026   0.16666   0.00000  Uiso   1.00
O361   O     0.81547   0.78974   0.16666   0.00000  Uiso   1.00
O362   O     0.68453   0.71026   0.16667   0.00000  Uiso   1.00
O363   O     0.75000   0.78973   0.09511   0.00000  Uiso   1.00
O364   O     0.75000   0.71027   0.23822   0.00000  Uiso   1.00
O365   O     0.75000   0.78973   0.23822   0.00000  Uiso   1.00
O366   O     0.75000   0.71027   0.09511   0.00000  Uiso   1.00
Zn367  Zn    0.75000   0.80307   0.16667   0.00000  Uiso   1.00
Zn368  Zn    0.75000   0.69693   0.16667   0.00000  Uiso   1.00
C369   C     0.16409   0.24999   0.49986   0.00000  Uiso   1.00
C370   C     0.22051   0.44758   0.46824   0.00000  Uiso   1.00
C371   C     0.24984   0.25004   0.40640   0.00000  Uiso   1.00
C372   C     0.25016   0.25004   0.59360   0.00000  Uiso   1.00
C373   C     0.25000   0.02559   0.50000   0.00000  Uiso   1.00
C374   C     0.25000   0.47301   0.50000   0.00000  Uiso   1.00
C375   C     0.24995   0.25022   0.35520   0.00000  Uiso   1.00
C376   C     0.25005   0.25022   0.64480   0.00000  Uiso   1.00
C377   C     0.04617   0.28860   0.48196   0.00000  Uiso   1.00
C378   C     0.45201   0.21095   0.48227   0.00000  Uiso   1.00
C379   C     0.45383   0.28860   0.51804   0.00000  Uiso   1.00
C380   C     0.33591   0.24999   0.50014   0.00000  Uiso   1.00
C381   C     0.04799   0.21095   0.51774   0.00000  Uiso   1.00
C382   C     0.09221   0.28878   0.48215   0.00000  Uiso   1.00
C383   C     0.40598   0.21092   0.48255   0.00000  Uiso   1.00
C384   C     0.40779   0.28878   0.51784   0.00000  Uiso   1.00
C385   C     0.09402   0.21093   0.51746   0.00000  Uiso   1.00
C386   C     0.11613   0.24991   0.49982   0.00000  Uiso   1.00
C387   C     0.38387   0.24991   0.50019   0.00000  Uiso   1.00
C388   C     0.02407   0.24975   0.49991   0.00000  Uiso   1.00
C389   C     0.47593   0.24975   0.50010   0.00000  Uiso   1.00
C390   C     0.22743   0.12005   0.40418   0.00000  Uiso   1.00
C391   C     0.23944   0.10020   0.45618   0.00000  Uiso   1.00
C392   C     0.17961   0.13925   0.39945   0.00000  Uiso   1.00
C393   C     0.16534   0.15076   0.34487   0.00000  Uiso   1.00
C394   C     0.31093   0.37562   0.57049   0.00000  Uiso   1.00
C395   C     0.29739   0.38395   0.62444   0.00000  Uiso   1.00
C396   C     0.32889   0.35912   0.66261   0.00000  Uiso   1.00
C397   C     0.27257   0.12005   0.59583   0.00000  Uiso   1.00
C398   C     0.32039   0.13925   0.60055   0.00000  Uiso   1.00
C399   C     0.33466   0.15076   0.65513   0.00000  Uiso   1.00
C400   C     0.18907   0.37562   0.42951   0.00000  Uiso   1.00
C401   C     0.20261   0.38396   0.37556   0.00000  Uiso   1.00
C402   C     0.27871   0.39854   0.53259   0.00000  Uiso   1.00
C403   C     0.17111   0.35912   0.33739   0.00000  Uiso   1.00
C404   C     0.26056   0.10020   0.54382   0.00000  Uiso   1.00
C405   C     0.22129   0.39854   0.46741   0.00000  Uiso   1.00
C406   C     0.23964   0.05094   0.45669   0.00000  Uiso   1.00
C407   C     0.27949   0.44758   0.53176   0.00000  Uiso   1.00
C408   C     0.26036   0.05094   0.54331   0.00000  Uiso   1.00
H409   H     0.02780   0.31850   0.46744   0.00000  Uiso   1.00
H410   H     0.30375   0.46575   0.55609   0.00000  Uiso   1.00
H411   H     0.26784   0.03180   0.57775   0.00000  Uiso   1.00
H412   H     0.19625   0.46575   0.44391   0.00000  Uiso   1.00
H413   H     0.18793   0.17710   0.66304   0.00000  Uiso   1.00
H414   H     0.16589   0.11914   0.65441   0.00000  Uiso   1.00
H415   H     0.13085   0.16490   0.34302   0.00000  Uiso   1.00
H416   H     0.15611   0.11304   0.41352   0.00000  Uiso   1.00
H417   H     0.17655   0.17087   0.42208   0.00000  Uiso   1.00
H418   H     0.25371   0.14280   0.39083   0.00000  Uiso   1.00
H419   H     0.22846   0.09227   0.37523   0.00000  Uiso   1.00
H420   H     0.46890   0.18101   0.46770   0.00000  Uiso   1.00
H421   H     0.32783   0.32109   0.65612   0.00000  Uiso   1.00
H422   H     0.36365   0.37166   0.65945   0.00000  Uiso   1.00
H423   H     0.31863   0.36617   0.36805   0.00000  Uiso   1.00
H424   H     0.29760   0.42160   0.63325   0.00000  Uiso   1.00
H425   H     0.26307   0.37052   0.62774   0.00000  Uiso   1.00
H426   H     0.31281   0.33832   0.56516   0.00000  Uiso   1.00
H427   H     0.34507   0.38949   0.56585   0.00000  Uiso   1.00
H428   H     0.31207   0.17710   0.33696   0.00000  Uiso   1.00
H429   H     0.33411   0.11914   0.34559   0.00000  Uiso   1.00
H430   H     0.36915   0.16490   0.65698   0.00000  Uiso   1.00
H431   H     0.47220   0.31850   0.53255   0.00000  Uiso   1.00
H432   H     0.34389   0.11305   0.58648   0.00000  Uiso   1.00
H433   H     0.32345   0.17088   0.57792   0.00000  Uiso   1.00
H434   H     0.24629   0.14280   0.60917   0.00000  Uiso   1.00
H435   H     0.27154   0.09227   0.62477   0.00000  Uiso   1.00
H436   H     0.17217   0.32109   0.34388   0.00000  Uiso   1.00
H437   H     0.13635   0.37166   0.34056   0.00000  Uiso   1.00
H438   H     0.18137   0.36618   0.63195   0.00000  Uiso   1.00
H439   H     0.20240   0.42160   0.36675   0.00000  Uiso   1.00
H440   H     0.23693   0.37052   0.37226   0.00000  Uiso   1.00
H441   H     0.18719   0.33832   0.43484   0.00000  Uiso   1.00
H442   H     0.03110   0.18101   0.53232   0.00000  Uiso   1.00
H443   H     0.15493   0.38949   0.43415   0.00000  Uiso   1.00
H444   H     0.10897   0.31895   0.46798   0.00000  Uiso   1.00
H445   H     0.38774   0.18082   0.46837   0.00000  Uiso   1.00
H446   H     0.39103   0.31895   0.53201   0.00000  Uiso   1.00
H447   H     0.11226   0.18082   0.53165   0.00000  Uiso   1.00
H448   H     0.23216   0.03180   0.42225   0.00000  Uiso   1.00
N449   N     0.25000   0.12624   0.50000   0.00000  Uiso   1.00
N450   N     0.25000   0.37377   0.50000   0.00000  Uiso   1.00
O451   O     0.18453   0.28974   0.50000   0.00000  Uiso   1.00
O452   O     0.31547   0.21026   0.50000   0.00000  Uiso   1.00
O453   O     0.31547   0.28974   0.50000   0.00000  Uiso   1.00
O454   O     0.18453   0.21026   0.50000   0.00000  Uiso   1.00
O455   O     0.25000   0.28973   0.42845   0.00000  Uiso   1.00
O456   O     0.25000   0.21027   0.57155   0.00000  Uiso   1.00
O457   O     0.25000   0.28973   0.57155   0.00000  Uiso   1.00
O458   O     0.25000   0.21027   0.42845   0.00000  Uiso   1.00
Zn459  Zn    0.25000   0.30307   0.50000   0.00000  Uiso   1.00
Zn460  Zn    0.25000   0.19693   0.50000   0.00000  Uiso   1.00
C461   C     0.66409   0.24999   0.49986   0.00000  Uiso   1.00
C462   C     0.72051   0.44758   0.46824   0.00000  Uiso   1.00
C463   C     0.74984   0.25004   0.40640   0.00000  Uiso   1.00
C464   C     0.75016   0.25004   0.59360   0.00000  Uiso   1.00
C465   C     0.75000   0.02559   0.50000   0.00000  Uiso   1.00
C466   C     0.75000   0.47301   0.50000   0.00000  Uiso   1.00
C467   C     0.74995   0.25022   0.35520   0.00000  Uiso   1.00
C468   C     0.75005   0.25022   0.64480   0.00000  Uiso   1.00
C469   C     0.54617   0.28860   0.48196   0.00000  Uiso   1.00
C470   C     0.95201   0.21095   0.48227   0.00000  Uiso   1.00
C471   C     0.95383   0.28860   0.51804   0.00000  Uiso   1.00
C472   C     0.83591   0.24999   0.50014   0.00000  Uiso   1.00
C473   C     0.54799   0.21095   0.51774   0.00000  Uiso   1.00
C474   C     0.59221   0.28878   0.48215   0.00000  Uiso   1.00
C475   C     0.90598   0.21092   0.48255   0.00000  Uiso   1.00
C476   C     0.90779   0.28878   0.51784   0.00000  Uiso   1.00
C477   C     0.59402   0.21093   0.51746   0.00000  Uiso   1.00
C478   C     0.61613   0.24991   0.49982   0.00000  Uiso   1.00
C479   C     0.88387   0.24991   0.50019   0.00000  Uiso   1.00
C480   C     0.52407   0.24975   0.49991   0.00000  Uiso   1.00
C481   C     0.97593   0.24975   0.50010   0.00000  Uiso   1.00
C482   C     0.72743   0.12005   0.40418   0.00000  Uiso   1.00
C483   C     0.73944   0.10020   0.45618   0.00000  Uiso   1.00
C484   C     0.67961   0.13925   0.39945   0.00000  Uiso   1.00
C485   C     0.66534   0.15076   0.34487   0.00000  Uiso   1.00
C486   C     0.81093   0.37562   0.57049   0.00000  Uiso   1.00
C487   C     0.79739   0.38395   0.62444   0.00000  Uiso   1.00
C488   C     0.82889   0.35912   0.66261   0.00000  Uiso   1.00
C489   C     0.77257   0.12005   0.59583   0.00000  Uiso   1.00
C490   C     0.82039   0.13925   0.60055   0.00000  Uiso   1.00
C491   C     0.83466   0.15076   0.65513   0.00000  Uiso   1.00
C492   C     0.68907   0.37562   0.42951   0.00000  Uiso   1.00
C493   C     0.70261   0.38396   0.37556   0.00000  Uiso   1.00
C494   C     0.77871   0.39854   0.53259   0.00000  Uiso   1.00
C495   C     0.67111   0.35912   0.33739   0.00000  Uiso   1.00
C496   C     0.76056   0.10020   0.54382   0.00000  Uiso   1.00
C497   C     0.72129   0.39854   0.46741   0.00000  Uiso   1.00
C498   C     0.73964   0.05094   0.45669   0.00000  Uiso   1.00
C499   C     0.77949   0.44758   0.53176   0.00000  Uiso   1.00
C500   C     0.76036   0.05094   0.54331   0.00000  Uiso   1.00
H501   H     0.52780   0.31850   0.46744   0.00000  Uiso   1.00
H502   H     0.80375   0.46575   0.55609   0.00000  Uiso   1.00
H503   H     0.76784   0.03180   0.57775   0.00000  Uiso   1.00
H504   H     0.69625   0.46575   0.44391   0.00000  Uiso   1.00
H505   H     0.68793   0.17710   0.66304   0.00000  Uiso   1.00
H506   H     0.66589   0.11914   0.65441   0.00000  Uiso   1.00
H507   H     0.63085   0.16490   0.34302   0.00000  Uiso   1.00
H508   H     0.65611   0.11304   0.41352   0.00000  Uiso   1.00
H509   H     0.67655   0.17087   0.42208   0.00000  Uiso   1.00
H510   H     0.75371   0.14280   0.39083   0.00000  Uiso   1.00
H511   H     0.72846   0.09227   0.37523   0.00000  Uiso   1.00
H512   H     0.96890   0.18101   0.46770   0.00000  Uiso   1.00
H513   H     0.82783   0.32109   0.65612   0.00000  Uiso   1.00
H514   H     0.86365   0.37166   0.65945   0.00000  Uiso   1.00
H515   H     0.81863   0.36617   0.36805   0.00000  Uiso   1.00
H516   H     0.79760   0.42160   0.63325   0.00000  Uiso   1.00
H517   H     0.76307   0.37052   0.62774   0.00000  Uiso   1.00
H518   H     0.81281   0.33832   0.56516   0.00000  Uiso   1.00
H519   H     0.84507   0.38949   0.56585   0.00000  Uiso   1.00
H520   H     0.81207   0.17710   0.33696   0.00000  Uiso   1.00
H521   H     0.83411   0.11914   0.34559   0.00000  Uiso   1.00
H522   H     0.86915   0.16490   0.65698   0.00000  Uiso   1.00
H523   H     0.97220   0.31850   0.53255   0.00000  Uiso   1.00
H524   H     0.84389   0.11305   0.58648   0.00000  Uiso   1.00
H525   H     0.82345   0.17088   0.57792   0.00000  Uiso   1.00
H526   H     0.74629   0.14280   0.60917   0.00000  Uiso   1.00
H527   H     0.77154   0.09227   0.62477   0.00000  Uiso   1.00
H528   H     0.67217   0.32109   0.34388   0.00000  Uiso   1.00
H529   H     0.63635   0.37166   0.34056   0.00000  Uiso   1.00
H530   H     0.68137   0.36618   0.63195   0.00000  Uiso   1.00
H531   H     0.70240   0.42160   0.36675   0.00000  Uiso   1.00
H532   H     0.73693   0.37052   0.37226   0.00000  Uiso   1.00
H533   H     0.68719   0.33832   0.43484   0.00000  Uiso   1.00
H534   H     0.53110   0.18101   0.53232   0.00000  Uiso   1.00
H535   H     0.65493   0.38949   0.43415   0.00000  Uiso   1.00
H536   H     0.60897   0.31895   0.46798   0.00000  Uiso   1.00
H537   H     0.88774   0.18082   0.46837   0.00000  Uiso   1.00
H538   H     0.89103   0.31895   0.53201   0.00000  Uiso   1.00
H539   H     0.61226   0.18082   0.53165   0.00000  Uiso   1.00
H540   H     0.73216   0.03180   0.42225   0.00000  Uiso   1.00
N541   N     0.75000   0.12624   0.50000   0.00000  Uiso   1.00
N542   N     0.75000   0.37377   0.50000   0.00000  Uiso   1.00
O543   O     0.68453   0.28974   0.50000   0.00000  Uiso   1.00
O544   O     0.81547   0.21026   0.50000   0.00000  Uiso   1.00
O545   O     0.81547   0.28974   0.50000   0.00000  Uiso   1.00
O546   O     0.68453   0.21026   0.50000   0.00000  Uiso   1.00
O547   O     0.75000   0.28973   0.42845   0.00000  Uiso   1.00
O548   O     0.75000   0.21027   0.57155   0.00000  Uiso   1.00
O549   O     0.75000   0.28973   0.57155   0.00000  Uiso   1.00
O550   O     0.75000   0.21027   0.42845   0.00000  Uiso   1.00
Zn551  Zn    0.75000   0.30307   0.50000   0.00000  Uiso   1.00
Zn552  Zn    0.75000   0.19693   0.50000   0.00000  Uiso   1.00
C553   C     0.16409   0.74999   0.49986   0.00000  Uiso   1.00
C554   C     0.22051   0.94758   0.46824   0.00000  Uiso   1.00
C555   C     0.24984   0.75004   0.40640   0.00000  Uiso   1.00
C556   C     0.25016   0.75004   0.59360   0.00000  Uiso   1.00
C557   C     0.25000   0.52559   0.50000   0.00000  Uiso   1.00
C558   C     0.25000   0.97301   0.50000   0.00000  Uiso   1.00
C559   C     0.24995   0.75022   0.35520   0.00000  Uiso   1.00
C560   C     0.25005   0.75022   0.64480   0.00000  Uiso   1.00
C561   C     0.04617   0.78860   0.48196   0.00000  Uiso   1.00
C562   C     0.45201   0.71095   0.48227   0.00000  Uiso   1.00
C563   C     0.45383   0.78860   0.51804   0.00000  Uiso   1.00
C564   C     0.33591   0.74999   0.50014   0.00000  Uiso   1.00
C565   C     0.04799   0.71095   0.51774   0.00000  Uiso   1.00
C566   C     0.09221   0.78878   0.48215   0.00000  Uiso   1.00
C567   C     0.40598   0.71092   0.48255   0.00000  Uiso   1.00
C568   C     0.40779   0.78878   0.51784   0.00000  Uiso   1.00
C569   C     0.09402   0.71093   0.51746   0.00000  Uiso   1.00
C570   C     0.11613   0.74991   0.49982   0.00000  Uiso   1.00
C571   C     0.38387   0.74991   0.50019   0.00000  Uiso   1.00
C572   C     0.02407   0.74975   0.49991   0.00000  Uiso   1.00
C573   C     0.47593   0.74975   0.50010   0.00000  Uiso   1.00
C574   C     0.22743   0.62005   0.40418   0.00000  Uiso   1.00
C575   C     0.23944   0.60020   0.45618   0.00000  Uiso   1.00
C576   C     0.17961   0.63925   0.39945   0.00000  Uiso   1.00
C577   C     0.16534   0.65076   0.34487   0.00000  Uiso   1.00
C578   C     0.31093   0.87562   0.57049   0.00000  Uiso   1.00
C579   C     0.29739   0.88395   0.62444   0.00000  Uiso   1.00
C580   C     0.32889   0.85912   0.66261   0.00000  Uiso   1.00
C581   C     0.27257   0.62005   0.59583   0.00000  Uiso   1.00
C582   C     0.32039   0.63925   0.60055   0.00000  Uiso   1.00
C583   C     0.33466   0.65076   0.65513   0.00000  Uiso   1.00
C584   C     0.18907   0.87562   0.42951   0.00000  Uiso   1.00
C585   C     0.20261   0.88396   0.37556   0.00000  Uiso   1.00
C586   C     0.27871   0.89854   0.53259   0.00000  Uiso   1.00
C587   C     0.17111   0.85912   0.33739   0.00000  Uiso   1.00
C588   C     0.26056   0.60020   0.54382   0.00000  Uiso   1.00
C589   C     0.22129   0.89854   0.46741   0.00000  Uiso   1.00
C590   C     0.23964   0.55094   0.45669   0.00000  Uiso   1.00
C591   C     0.27949   0.94758   0.53176   0.00000  Uiso   1.00
C592   C     0.26036   0.55094   0.54331   0.00000  Uiso   1.00
H593   H     0.02780   0.81850   0.46744   0.00000  Uiso   1.00
H594   H     0.30375   0.96575   0.55609   0.00000  Uiso   1.00
H595   H     0.26784   0.53180   0.57775   0.00000  Uiso   1.00
H596   H     0.19625   0.96575   0.44391   0.00000  Uiso   1.00
H597   H     0.18793   0.67710   0.66304   0.00000  Uiso   1.00
H598   H     0.16589   0.61914   0.65441   0.00000  Uiso   1.00
H599   H     0.13085   0.66490   0.34302   0.00000  Uiso   1.00
H600   H     0.15611   0.61304   0.41352   0.00000  Uiso   1.00
H601   H     0.17655   0.67087   0.42208   0.00000  Uiso   1.00
H602   H     0.25371   0.64280   0.39083   0.00000  Uiso   1.00
H603   H     0.22846   0.59227   0.37523   0.00000  Uiso   1.00
H604   H     0.46890   0.68101   0.46770   0.00000  Uiso   1.00
H605   H     0.32783   0.82109   0.65612   0.00000  Uiso   1.00
H606   H     0.36365   0.87166   0.65945   0.00000  Uiso   1.00
H607   H     0.31863   0.86617   0.36805   0.00000  Uiso   1.00
H608   H     0.29760   0.92160   0.63325   0.00000  Uiso   1.00
H609   H     0.26307   0.87052   0.62774   0.00000  Uiso   1.00
H610   H     0.31281   0.83832   0.56516   0.00000  Uiso   1.00
H611   H     0.34507   0.88949   0.56585   0.00000  Uiso   1.00
H612   H     0.31207   0.67710   0.33696   0.00000  Uiso   1.00
H613   H     0.33411   0.61914   0.34559   0.00000  Uiso   1.00
H614   H     0.36915   0.66490   0.65698   0.00000  Uiso   1.00
H615   H     0.47220   0.81850   0.53255   0.00000  Uiso   1.00
H616   H     0.34389   0.61305   0.58648   0.00000  Uiso   1.00
H617   H     0.32345   0.67088   0.57792   0.00000  Uiso   1.00
H618   H     0.24629   0.64280   0.60917   0.00000  Uiso   1.00
H619   H     0.27154   0.59227   0.62477   0.00000  Uiso   1.00
H620   H     0.17217   0.82109   0.34388   0.00000  Uiso   1.00
H621   H     0.13635   0.87166   0.34056   0.00000  Uiso   1.00
H622   H     0.18137   0.86618   0.63195   0.00000  Uiso   1.00
H623   H     0.20240   0.92160   0.36675   0.00000  Uiso   1.00
H624   H     0.23693   0.87052   0.37226   0.00000  Uiso   1.00
H625   H     0.18719   0.83832   0.43484   0.00000  Uiso   1.00
H626   H     0.03110   0.68101   0.53232   0.00000  Uiso   1.00
H627   H     0.15493   0.88949   0.43415   0.00000  Uiso   1.00
H628   H     0.10897   0.81895   0.46798   0.00000  Uiso   1.00
H629   H     0.38774   0.68082   0.46837   0.00000  Uiso   1.00
H630   H     0.39103   0.81895   0.53201   0.00000  Uiso   1.00
H631   H     0.11226   0.68082   0.53165   0.00000  Uiso   1.00
H632   H     0.23216   0.53180   0.42225   0.00000  Uiso   1.00
N633   N     0.25000   0.62624   0.50000   0.00000  Uiso   1.00
N634   N     0.25000   0.87377   0.50000   0.00000  Uiso   1.00
O635   O     0.18453   0.78974   0.50000   0.00000  Uiso   1.00
O636   O     0.31547   0.71026   0.50000   0.00000  Uiso   1.00
O637   O     0.31547   0.78974   0.50000   0.00000  Uiso   1.00
O638   O     0.18453   0.71026   0.50000   0.00000  Uiso   1.00
O639   O     0.25000   0.78973   0.42845   0.00000  Uiso   1.00
O640   O     0.25000   0.71027   0.57155   0.00000  Uiso   1.00
O641   O     0.25000   0.78973   0.57155   0.00000  Uiso   1.00
O642   O     0.25000   0.71027   0.42845   0.00000  Uiso   1.00
Zn643  Zn    0.25000   0.80307   0.50000   0.00000  Uiso   1.00
Zn644  Zn    0.25000   0.69693   0.50000   0.00000  Uiso   1.00
C645   C     0.66409   0.74999   0.49986   0.00000  Uiso   1.00
C646   C     0.72051   0.94758   0.46824   0.00000  Uiso   1.00
C647   C     0.74984   0.75004   0.40640   0.00000  Uiso   1.00
C648   C     0.75016   0.75004   0.59360   0.00000  Uiso   1.00
C649   C     0.75000   0.52559   0.50000   0.00000  Uiso   1.00
C650   C     0.75000   0.97301   0.50000   0.00000  Uiso   1.00
C651   C     0.74995   0.75022   0.35520   0.00000  Uiso   1.00
C652   C     0.75005   0.75022   0.64480   0.00000  Uiso   1.00
C653   C     0.54617   0.78860   0.48196   0.00000  Uiso   1.00
C654   C     0.95201   0.71095   0.48227   0.00000  Uiso   1.00
C655   C     0.95383   0.78860   0.51804   0.00000  Uiso   1.00
C656   C     0.83591   0.74999   0.50014   0.00000  Uiso   1.00
C657   C     0.54799   0.71095   0.51774   0.00000  Uiso   1.00
C658   C     0.59221   0.78878   0.48215   0.00000  Uiso   1.00
C659   C     0.90598   0.71092   0.48255   0.00000  Uiso   1.00
C660   C     0.90779   0.78878   0.51784   0.00000  Uiso   1.00
C661   C     0.59402   0.71093   0.51746   0.00000  Uiso   1.00
C662   C     0.61613   0.74991   0.49982   0.00000  Uiso   1.00
C663   C     0.88387   0.74991   0.50019   0.00000  Uiso   1.00
C664   C     0.52407   0.74975   0.49991   0.00000  Uiso   1.00
C665   C     0.97593   0.74975   0.50010   0.00000  Uiso   1.00
C666   C     0.72743   0.62005   0.40418   0.00000  Uiso   1.00
C667   C     0.73944   0.60020   0.45618   0.00000  Uiso   1.00
C668   C     0.67961   0.63925   0.39945   0.00000  Uiso   1.00
C669   C     0.66534   0.65076   0.34487   0.00000  Uiso   1.00
C670   C     0.81093   0.87562   0.57049   0.00000  Uiso   1.00
C671   C     0.79739   0.88395   0.62444   0.00000  Uiso   1.00
C672   C     0.82889   0.85912   0.66261   0.00000  Uiso   1.00
C673   C     0.77257   0.62005   0.59583   0.00000  Uiso   1.00
C674   C     0.82039   0.63925   0.60055   0.00000  Uiso   1.00
C675   C     0.83466   0.65076   0.65513   0.00000  Uiso   1.00
C676   C     0.68907   0.87562   0.42951   0.00000  Uiso   1.00
C677   C     0.70261   0.88396   0.37556   0.00000  Uiso   1.00
C678   C     0.77871   0.89854   0.53259   0.00000  Uiso   1.00
C679   C     0.67111   0.85912   0.33739   0.00000  Uiso   1.00
C680   C     0.76056   0.60020   0.54382   0.00000  Uiso   1.00
C681   C     0.72129   0.89854   0.46741   0.00000  Uiso   1.00
C682   C     0.73964   0.55094   0.45669   0.00000  Uiso   1.00
C683   C     0.77949   0.94758   0.53176   0.00000  Uiso   1.00
C684   C     0.76036   0.55094   0.54331   0.00000  Uiso   1.00
H685   H     0.52780   0.81850   0.46744   0.00000  Uiso   1.00
H686   H     0.80375   0.96575   0.55609   0.00000  Uiso   1.00
H687   H     0.76784   0.53180   0.57775   0.00000  Uiso   1.00
H688   H     0.69625   0.96575   0.44391   0.00000  Uiso   1.00
H689   H     0.68793   0.67710   0.66304   0.00000  Uiso   1.00
H690   H     0.66589   0.61914   0.65441   0.00000  Uiso   1.00
H691   H     0.63085   0.66490   0.34302   0.00000  Uiso   1.00
H692   H     0.65611   0.61304   0.41352   0.00000  Uiso   1.00
H693   H     0.67655   0.67087   0.42208   0.00000  Uiso   1.00
H694   H     0.75371   0.64280   0.39083   0.00000  Uiso   1.00
H695   H     0.72846   0.59227   0.37523   0.00000  Uiso   1.00
H696   H     0.96890   0.68101   0.46770   0.00000  Uiso   1.00
H697   H     0.82783   0.82109   0.65612   0.00000  Uiso   1.00
H698   H     0.86365   0.87166   0.65945   0.00000  Uiso   1.00
H699   H     0.81863   0.86617   0.36805   0.00000  Uiso   1.00
H700   H     0.79760   0.92160   0.63325   0.00000  Uiso   1.00
H701   H     0.76307   0.87052   0.62774   0.00000  Uiso   1.00
H702   H     0.81281   0.83832   0.56516   0.00000  Uiso   1.00
H703   H     0.84507   0.88949   0.56585   0.00000  Uiso   1.00
H704   H     0.81207   0.67710   0.33696   0.00000  Uiso   1.00
H705   H     0.83411   0.61914   0.34559   0.00000  Uiso   1.00
H706   H     0.86915   0.66490   0.65698   0.00000  Uiso   1.00
H707   H     0.97220   0.81850   0.53255   0.00000  Uiso   1.00
H708   H     0.84389   0.61305   0.58648   0.00000  Uiso   1.00
H709   H     0.82345   0.67088   0.57792   0.00000  Uiso   1.00
H710   H     0.74629   0.64280   0.60917   0.00000  Uiso   1.00
H711   H     0.77154   0.59227   0.62477   0.00000  Uiso   1.00
H712   H     0.67217   0.82109   0.34388   0.00000  Uiso   1.00
H713   H     0.63635   0.87166   0.34056   0.00000  Uiso   1.00
H714   H     0.68137   0.86618   0.63195   0.00000  Uiso   1.00
H715   H     0.70240   0.92160   0.36675   0.00000  Uiso   1.00
H716   H     0.73693   0.87052   0.37226   0.00000  Uiso   1.00
H717   H     0.68719   0.83832   0.43484   0.00000  Uiso   1.00
H718   H     0.53110   0.68101   0.53232   0.00000  Uiso   1.00
H719   H     0.65493   0.88949   0.43415   0.00000  Uiso   1.00
H720   H     0.60897   0.81895   0.46798   0.00000  Uiso   1.00
H721   H     0.88774   0.68082   0.46837   0.00000  Uiso   1.00
H722   H     0.89103   0.81895   0.53201   0.00000  Uiso   1.00
H723   H     0.61226   0.68082   0.53165   0.00000  Uiso   1.00
H724   H     0.73216   0.53180   0.42225   0.00000  Uiso   1.00
N725   N     0.75000   0.62624   0.50000   0.00000  Uiso   1.00
N726   N     0.75000   0.87377   0.50000   0.00000  Uiso   1.00
O727   O     0.68453   0.78974   0.50000   0.00000  Uiso   1.00
O728   O     0.81547   0.71026   0.50000   0.00000  Uiso   1.00
O729   O     0.81547   0.78974   0.50000   0.00000  Uiso   1.00
O730   O     0.68453   0.71026   0.50000   0.00000  Uiso   1.00
O731   O     0.75000   0.78973   0.42845   0.00000  Uiso   1.00
O732   O     0.75000   0.71027   0.57155   0.00000  Uiso   1.00
O733   O     0.75000   0.78973   0.57155   0.00000  Uiso   1.00
O734   O     0.75000   0.71027   0.42845   0.00000  Uiso   1.00
Zn735  Zn    0.75000   0.80307   0.50000   0.00000  Uiso   1.00
Zn736  Zn    0.75000   0.69693   0.50000   0.00000  Uiso   1.00
C737   C     0.16409   0.24999   0.83319   0.00000  Uiso   1.00
C738   C     0.22051   0.44758   0.80158   0.00000  Uiso   1.00
C739   C     0.24984   0.25004   0.73973   0.00000  Uiso   1.00
C740   C     0.25016   0.25004   0.92693   0.00000  Uiso   1.00
C741   C     0.25000   0.02559   0.83333   0.00000  Uiso   1.00
C742   C     0.25000   0.47301   0.83333   0.00000  Uiso   1.00
C743   C     0.24995   0.25022   0.68853   0.00000  Uiso   1.00
C744   C     0.25005   0.25022   0.97813   0.00000  Uiso   1.00
C745   C     0.04617   0.28860   0.81529   0.00000  Uiso   1.00
C746   C     0.45201   0.21095   0.81560   0.00000  Uiso   1.00
C747   C     0.45383   0.28860   0.85138   0.00000  Uiso   1.00
C748   C     0.33591   0.24999   0.83348   0.00000  Uiso   1.00
C749   C     0.04799   0.21095   0.85108   0.00000  Uiso   1.00
C750   C     0.09221   0.28878   0.81549   0.00000  Uiso   1.00
C751   C     0.40598   0.21092   0.81588   0.00000  Uiso   1.00
C752   C     0.40779   0.28878   0.85118   0.00000  Uiso   1.00
C753   C     0.09402   0.21093   0.85080   0.00000  Uiso   1.00
C754   C     0.11613   0.24991   0.83315   0.00000  Uiso   1.00
C755   C     0.38387   0.24991   0.83352   0.00000  Uiso   1.00
C756   C     0.02407   0.24975   0.83324   0.00000  Uiso   1.00
C757   C     0.47593   0.24975   0.83343   0.00000  Uiso   1.00
C758   C     0.22743   0.12005   0.73751   0.00000  Uiso   1.00
C759   C     0.23944   0.10020   0.78951   0.00000  Uiso   1.00
C760   C     0.17961   0.13925   0.73278   0.00000  Uiso   1.00
C761   C     0.16534   0.15076   0.67820   0.00000  Uiso   1.00
C762   C     0.31093   0.37562   0.90382   0.00000  Uiso   1.00
C763   C     0.29739   0.38395   0.95778   0.00000  Uiso   1.00
C764   C     0.32889   0.35912   0.99595   0.00000  Uiso   1.00
C765   C     0.27257   0.12005   0.92916   0.00000  Uiso   1.00
C766   C     0.32039   0.13925   0.93388   0.00000  Uiso   1.00
C767   C     0.33466   0.15076   0.98846   0.00000  Uiso   1.00
C768   C     0.18907   0.37562   0.76285   0.00000  Uiso   1.00
C769   C     0.20261   0.38396   0.70889   0.00000  Uiso   1.00
C770   C     0.27871   0.39854   0.86592   0.00000  Uiso   1.00
C771   C     0.17111   0.35912   0.67072   0.00000  Uiso   1.00
C772   C     0.26056   0.10020   0.87715   0.00000  Uiso   1.00
C773   C     0.22129   0.39854   0.80075   0.00000  Uiso   1.00
C774   C     0.23964   0.05094   0.79003   0.00000  Uiso   1.00
C775   C     0.27949   0.44758   0.86509   0.00000  Uiso   1.00
C776   C     0.26036   0.05094   0.87664   0.00000  Uiso   1.00
H777   H     0.02780   0.31850   0.80078   0.00000  Uiso   1.00
H778   H     0.30375   0.46575   0.88942   0.00000  Uiso   1.00
H779   H     0.26784   0.03180   0.91108   0.00000  Uiso   1.00
H780   H     0.19625   0.46575   0.77724   0.00000  Uiso   1.00
H781   H     0.18793   0.17710   0.99638   0.00000  Uiso   1.00
H782   H     0.16589   0.11914   0.98774   0.00000  Uiso   1.00
H783   H     0.13085   0.16490   0.67635   0.00000  Uiso   1.00
H784   H     0.15611   0.11304   0.74686   0.00000  Uiso   1.00
H785   H     0.17655   0.17087   0.75542   0.00000  Uiso   1.00
H786   H     0.25371   0.14280   0.72417   0.00000  Uiso   1.00
H787   H     0.22846   0.09227   0.70857   0.00000  Uiso   1.00
H788   H     0.46890   0.18101   0.80103   0.00000  Uiso   1.00
H789   H     0.32783   0.32109   0.98945   0.00000  Uiso   1.00
H790   H     0.36365   0.37166   0.99278   0.00000  Uiso   1.00
H791   H     0.31863   0.36617   0.70139   0.00000  Uiso   1.00
H792   H     0.29760   0.42160   0.96658   0.00000  Uiso   1.00
H793   H     0.26307   0.37052   0.96108   0.00000  Uiso   1.00
H794   H     0.31281   0.33832   0.89849   0.00000  Uiso   1.00
H795   H     0.34507   0.38949   0.89918   0.00000  Uiso   1.00
H796   H     0.31207   0.17710   0.67029   0.00000  Uiso   1.00
H797   H     0.33411   0.11914   0.67892   0.00000  Uiso   1.00
H798   H     0.36915   0.16490   0.99032   0.00000  Uiso   1.00
H799   H     0.47220   0.31850   0.86589   0.00000  Uiso   1.00
H800   H     0.34389   0.11305   0.91981   0.00000  Uiso   1.00
H801   H     0.32345   0.17088   0.91125   0.00000  Uiso   1.00
H802   H     0.24629   0.14280   0.94250   0.00000  Uiso   1.00
H803   H     0.27154   0.09227   0.95810   0.00000  Uiso   1.00
H804   H     0.17217   0.32109   0.67722   0.00000  Uiso   1.00
H805   H     0.13635   0.37166   0.67389   0.00000  Uiso   1.00
H806   H     0.18137   0.36618   0.96528   0.00000  Uiso   1.00
H807   H     0.20240   0.42160   0.70009   0.00000  Uiso   1.00
H808   H     0.23693   0.37052   0.70559   0.00000  Uiso   1.00
H809   H     0.18719   0.33832   0.76817   0.00000  Uiso   1.00
H810   H     0.03110   0.18101   0.86565   0.00000  Uiso   1.00
H811   H     0.15493   0.38949   0.76749   0.00000  Uiso   1.00
H812   H     0.10897   0.31895   0.80131   0.00000  Uiso   1.00
H813   H     0.38774   0.18082   0.80170   0.00000  Uiso   1.00
H814   H     0.39103   0.31895   0.86535   0.00000  Uiso   1.00
H815   H     0.11226   0.18082   0.86498   0.00000  Uiso   1.00
H816   H     0.23216   0.03180   0.75558   0.00000  Uiso   1.00
N817   N     0.25000   0.12624   0.83333   0.00000  Uiso   1.00
N818   N     0.25000   0.37377   0.83333   0.00000  Uiso   1.00
O819   O     0.18453   0.28974   0.83334   0.00000  Uiso   1.00
O820   O     0.31547   0.21026   0.83333   0.00000  Uiso   1.00
O821   O     0.31547   0.28974   0.83333   0.00000  Uiso   1.00
O822   O     0.18453   0.21026   0.83334   0.00000  Uiso   1.00
O823   O     0.25000   0.28973   0.76178   0.00000  Uiso   1.00
O824   O     0.25000   0.21027   0.90489   0.00000  Uiso   1.00
O825   O     0.25000   0.28973   0.90489   0.00000  Uiso   1.00
O826   O     0.25000   0.21027   0.76178   0.00000  Uiso   1.00
Zn827  Zn    0.25000   0.30307   0.83333   0.00000  Uiso   1.00
Zn828  Zn    0.25000   0.19693   0.83333   0.00000  Uiso   1.00
C829   C     0.66409   0.24999   0.83319   0.00000  Uiso   1.00
C830   C     0.72051   0.44758   0.80158   0.00000  Uiso   1.00
C831   C     0.74984   0.25004   0.73973   0.00000  Uiso   1.00
C832   C     0.75016   0.25004   0.92693   0.00000  Uiso   1.00
C833   C     0.75000   0.02559   0.83333   0.00000  Uiso   1.00
C834   C     0.75000   0.47301   0.83333   0.00000  Uiso   1.00
C835   C     0.74995   0.25022   0.68853   0.00000  Uiso   1.00
C836   C     0.75005   0.25022   0.97813   0.00000  Uiso   1.00
C837   C     0.54617   0.28860   0.81529   0.00000  Uiso   1.00
C838   C     0.95201   0.21095   0.81560   0.00000  Uiso   1.00
C839   C     0.95383   0.28860   0.85138   0.00000  Uiso   1.00
C840   C     0.83591   0.24999   0.83348   0.00000  Uiso   1.00
C841   C     0.54799   0.21095   0.85108   0.00000  Uiso   1.00
C842   C     0.59221   0.28878   0.81549   0.00000  Uiso   1.00
C843   C     0.90598   0.21092   0.81588   0.00000  Uiso   1.00
C844   C     0.90779   0.28878   0.85118   0.00000  Uiso   1.00
C845   C     0.59402   0.21093   0.85080   0.00000  Uiso   1.00
C846   C     0.61613   0.24991   0.83315   0.00000  Uiso   1.00
C847   C     0.88387   0.24991   0.83352   0.00000  Uiso   1.00
C848   C     0.52407   0.24975   0.83324   0.00000  Uiso   1.00
C849   C     0.97593   0.24975   0.83343   0.00000  Uiso   1.00
C850   C     0.72743   0.12005   0.73751   0.00000  Uiso   1.00
C851   C     0.73944   0.10020   0.78951   0.00000  Uiso   1.00
C852   C     0.67961   0.13925   0.73278   0.00000  Uiso   1.00
C853   C     0.66534   0.15076   0.67820   0.00000  Uiso   1.00
C854   C     0.81093   0.37562   0.90382   0.00000  Uiso   1.00
C855   C     0.79739   0.38395   0.95778   0.00000  Uiso   1.00
C856   C     0.82889   0.35912   0.99595   0.00000  Uiso   1.00
C857   C     0.77257   0.12005   0.92916   0.00000  Uiso   1.00
C858   C     0.82039   0.13925   0.93388   0.00000  Uiso   1.00
C859   C     0.83466   0.15076   0.98846   0.00000  Uiso   1.00
C860   C     0.68907   0.37562   0.76285   0.00000  Uiso   1.00
C861   C     0.70261   0.38396   0.70889   0.00000  Uiso   1.00
C862   C     0.77871   0.39854   0.86592   0.00000  Uiso   1.00
C863   C     0.67111   0.35912   0.67072   0.00000  Uiso   1.00
C864   C     0.76056   0.10020   0.87715   0.00000  Uiso   1.00
C865   C     0.72129   0.39854   0.80075   0.00000  Uiso   1.00
C866   C     0.73964   0.05094   0.79003   0.00000  Uiso   1.00
C867   C     0.77949   0.44758   0.86509   0.00000  Uiso   1.00
C868   C     0.76036   0.05094   0.87664   0.00000  Uiso   1.00
H869   H     0.52780   0.31850   0.80078   0.00000  Uiso   1.00
H870   H     0.80375   0.46575   0.88942   0.00000  Uiso   1.00
H871   H     0.76784   0.03180   0.91108   0.00000  Uiso   1.00
H872   H     0.69625   0.46575   0.77724   0.00000  Uiso   1.00
H873   H     0.68793   0.17710   0.99638   0.00000  Uiso   1.00
H874   H     0.66589   0.11914   0.98774   0.00000  Uiso   1.00
H875   H     0.63085   0.16490   0.67635   0.00000  Uiso   1.00
H876   H     0.65611   0.11304   0.74686   0.00000  Uiso   1.00
H877   H     0.67655   0.17087   0.75542   0.00000  Uiso   1.00
H878   H     0.75371   0.14280   0.72417   0.00000  Uiso   1.00
H879   H     0.72846   0.09227   0.70857   0.00000  Uiso   1.00
H880   H     0.96890   0.18101   0.80103   0.00000  Uiso   1.00
H881   H     0.82783   0.32109   0.98945   0.00000  Uiso   1.00
H882   H     0.86365   0.37166   0.99278   0.00000  Uiso   1.00
H883   H     0.81863   0.36617   0.70139   0.00000  Uiso   1.00
H884   H     0.79760   0.42160   0.96658   0.00000  Uiso   1.00
H885   H     0.76307   0.37052   0.96108   0.00000  Uiso   1.00
H886   H     0.81281   0.33832   0.89849   0.00000  Uiso   1.00
H887   H     0.84507   0.38949   0.89918   0.00000  Uiso   1.00
H888   H     0.81207   0.17710   0.67029   0.00000  Uiso   1.00
H889   H     0.83411   0.11914   0.67892   0.00000  Uiso   1.00
H890   H     0.86915   0.16490   0.99032   0.00000  Uiso   1.00
H891   H     0.97220   0.31850   0.86589   0.00000  Uiso   1.00
H892   H     0.84389   0.11305   0.91981   0.00000  Uiso   1.00
H893   H     0.82345   0.17088   0.91125   0.00000  Uiso   1.00
H894   H     0.74629   0.14280   0.94250   0.00000  Uiso   1.00
H895   H     0.77154   0.09227   0.95810   0.00000  Uiso   1.00
H896   H     0.67217   0.32109   0.67722   0.00000  Uiso   1.00
H897   H     0.63635   0.37166   0.67389   0.00000  Uiso   1.00
H898   H     0.68137   0.36618   0.96528   0.00000  Uiso   1.00
H899   H     0.70240   0.42160   0.70009   0.00000  Uiso   1.00
H900   H     0.73693   0.37052   0.70559   0.00000  Uiso   1.00
H901   H     0.68719   0.33832   0.76817   0.00000  Uiso   1.00
H902   H     0.53110   0.18101   0.86565   0.00000  Uiso   1.00
H903   H     0.65493   0.38949   0.76749   0.00000  Uiso   1.00
H904   H     0.60897   0.31895   0.80131   0.00000  Uiso   1.00
H905   H     0.88774   0.18082   0.80170   0.00000  Uiso   1.00
H906   H     0.89103   0.31895   0.86535   0.00000  Uiso   1.00
H907   H     0.61226   0.18082   0.86498   0.00000  Uiso   1.00
H908   H     0.73216   0.03180   0.75558   0.00000  Uiso   1.00
N909   N     0.75000   0.12624   0.83333   0.00000  Uiso   1.00
N910   N     0.75000   0.37377   0.83333   0.00000  Uiso   1.00
O911   O     0.68453   0.28974   0.83334   0.00000  Uiso   1.00
O912   O     0.81547   0.21026   0.83333   0.00000  Uiso   1.00
O913   O     0.81547   0.28974   0.83333   0.00000  Uiso   1.00
O914   O     0.68453   0.21026   0.83334   0.00000  Uiso   1.00
O915   O     0.75000   0.28973   0.76178   0.00000  Uiso   1.00
O916   O     0.75000   0.21027   0.90489   0.00000  Uiso   1.00
O917   O     0.75000   0.28973   0.90489   0.00000  Uiso   1.00
O918   O     0.75000   0.21027   0.76178   0.00000  Uiso   1.00
Zn919  Zn    0.75000   0.30307   0.83333   0.00000  Uiso   1.00
Zn920  Zn    0.75000   0.19693   0.83333   0.00000  Uiso   1.00
C921   C     0.16409   0.74999   0.83319   0.00000  Uiso   1.00
C922   C     0.22051   0.94758   0.80158   0.00000  Uiso   1.00
C923   C     0.24984   0.75004   0.73973   0.00000  Uiso   1.00
C924   C     0.25016   0.75004   0.92693   0.00000  Uiso   1.00
C925   C     0.25000   0.52559   0.83333   0.00000  Uiso   1.00
C926   C     0.25000   0.97301   0.83333   0.00000  Uiso   1.00
C927   C     0.24995   0.75022   0.68853   0.00000  Uiso   1.00
C928   C     0.25005   0.75022   0.97813   0.00000  Uiso   1.00
C929   C     0.04617   0.78860   0.81529   0.00000  Uiso   1.00
C930   C     0.45201   0.71095   0.81560   0.00000  Uiso   1.00
C931   C     0.45383   0.78860   0.85138   0.00000  Uiso   1.00
C932   C     0.33591   0.74999   0.83348   0.00000  Uiso   1.00
C933   C     0.04799   0.71095   0.85108   0.00000  Uiso   1.00
C934   C     0.09221   0.78878   0.81549   0.00000  Uiso   1.00
C935   C     0.40598   0.71092   0.81588   0.00000  Uiso   1.00
C936   C     0.40779   0.78878   0.85118   0.00000  Uiso   1.00
C937   C     0.09402   0.71093   0.85080   0.00000  Uiso   1.00
C938   C     0.11613   0.74991   0.83315   0.00000  Uiso   1.00
C939   C     0.38387   0.74991   0.83352   0.00000  Uiso   1.00
C940   C     0.02407   0.74975   0.83324   0.00000  Uiso   1.00
C941   C     0.47593   0.74975   0.83343   0.00000  Uiso   1.00
C942   C     0.22743   0.62005   0.73751   0.00000  Uiso   1.00
C943   C     0.23944   0.60020   0.78951   0.00000  Uiso   1.00
C944   C     0.17961   0.63925   0.73278   0.00000  Uiso   1.00
C945   C     0.16534   0.65076   0.67820   0.00000  Uiso   1.00
C946   C     0.31093   0.87562   0.90382   0.00000  Uiso   1.00
C947   C     0.29739   0.88395   0.95778   0.00000  Uiso   1.00
C948   C     0.32889   0.85912   0.99595   0.00000  Uiso   1.00
C949   C     0.27257   0.62005   0.92916   0.00000  Uiso   1.00
C950   C     0.32039   0.63925   0.93388   0.00000  Uiso   1.00
C951   C     0.33466   0.65076   0.98846   0.00000  Uiso   1.00
C952   C     0.18907   0.87562   0.76285   0.00000  Uiso   1.00
C953   C     0.20261   0.88396   0.70889   0.00000  Uiso   1.00
C954   C     0.27871   0.89854   0.86592   0.00000  Uiso   1.00
C955   C     0.17111   0.85912   0.67072   0.00000  Uiso   1.00
C956   C     0.26056   0.60020   0.87715   0.00000  Uiso   1.00
C957   C     0.22129   0.89854   0.80075   0.00000  Uiso   1.00
C958   C     0.23964   0.55094   0.79003   0.00000  Uiso   1.00
C959   C     0.27949   0.94758   0.86509   0.00000  Uiso   1.00
C960   C     0.26036   0.55094   0.87664   0.00000  Uiso   1.00
H961   H     0.02780   0.81850   0.80078   0.00000  Uiso   1.00
H962   H     0.30375   0.96575   0.88942   0.00000  Uiso   1.00
H963   H     0.26784   0.53180   0.91108   0.00000  Uiso   1.00
H964   H     0.19625   0.96575   0.77724   0.00000  Uiso   1.00
H965   H     0.18793   0.67710   0.99638   0.00000  Uiso   1.00
H966   H     0.16589   0.61914   0.98774   0.00000  Uiso   1.00
H967   H     0.13085   0.66490   0.67635   0.00000  Uiso   1.00
H968   H     0.15611   0.61304   0.74686   0.00000  Uiso   1.00
H969   H     0.17655   0.67087   0.75542   0.00000  Uiso   1.00
H970   H     0.25371   0.64280   0.72417   0.00000  Uiso   1.00
H971   H     0.22846   0.59227   0.70857   0.00000  Uiso   1.00
H972   H     0.46890   0.68101   0.80103   0.00000  Uiso   1.00
H973   H     0.32783   0.82109   0.98945   0.00000  Uiso   1.00
H974   H     0.36365   0.87166   0.99278   0.00000  Uiso   1.00
H975   H     0.31863   0.86617   0.70139   0.00000  Uiso   1.00
H976   H     0.29760   0.92160   0.96658   0.00000  Uiso   1.00
H977   H     0.26307   0.87052   0.96108   0.00000  Uiso   1.00
H978   H     0.31281   0.83832   0.89849   0.00000  Uiso   1.00
H979   H     0.34507   0.88949   0.89918   0.00000  Uiso   1.00
H980   H     0.31207   0.67710   0.67029   0.00000  Uiso   1.00
H981   H     0.33411   0.61914   0.67892   0.00000  Uiso   1.00
H982   H     0.36915   0.66490   0.99032   0.00000  Uiso   1.00
H983   H     0.47220   0.81850   0.86589   0.00000  Uiso   1.00
H984   H     0.34389   0.61305   0.91981   0.00000  Uiso   1.00
H985   H     0.32345   0.67088   0.91125   0.00000  Uiso   1.00
H986   H     0.24629   0.64280   0.94250   0.00000  Uiso   1.00
H987   H     0.27154   0.59227   0.95810   0.00000  Uiso   1.00
H988   H     0.17217   0.82109   0.67722   0.00000  Uiso   1.00
H989   H     0.13635   0.87166   0.67389   0.00000  Uiso   1.00
H990   H     0.18137   0.86618   0.96528   0.00000  Uiso   1.00
H991   H     0.20240   0.92160   0.70009   0.00000  Uiso   1.00
H992   H     0.23693   0.87052   0.70559   0.00000  Uiso   1.00
H993   H     0.18719   0.83832   0.76817   0.00000  Uiso   1.00
H994   H     0.03110   0.68101   0.86565   0.00000  Uiso   1.00
H995   H     0.15493   0.88949   0.76749   0.00000  Uiso   1.00
H996   H     0.10897   0.81895   0.80131   0.00000  Uiso   1.00
H997   H     0.38774   0.68082   0.80170   0.00000  Uiso   1.00
H998   H     0.39103   0.81895   0.86535   0.00000  Uiso   1.00
H999   H     0.11226   0.68082   0.86498   0.00000  Uiso   1.00
H1000  H     0.23216   0.53180   0.75558   0.00000  Uiso   1.00
N1001  N     0.25000   0.62624   0.83333   0.00000  Uiso   1.00
N1002  N     0.25000   0.87377   0.83333   0.00000  Uiso   1.00
O1003  O     0.18453   0.78974   0.83334   0.00000  Uiso   1.00
O1004  O     0.31547   0.71026   0.83333   0.00000  Uiso   1.00
O1005  O     0.31547   0.78974   0.83333   0.00000  Uiso   1.00
O1006  O     0.18453   0.71026   0.83334   0.00000  Uiso   1.00
O1007  O     0.25000   0.78973   0.76178   0.00000  Uiso   1.00
O1008  O     0.25000   0.71027   0.90489   0.00000  Uiso   1.00
O1009  O     0.25000   0.78973   0.90489   0.00000  Uiso   1.00
O1010  O     0.25000   0.71027   0.76178   0.00000  Uiso   1.00
Zn1011 Zn    0.25000   0.80307   0.83333   0.00000  Uiso   1.00
Zn1012 Zn    0.25000   0.69693   0.83333   0.00000  Uiso   1.00
C1013  C     0.66409   0.74999   0.83319   0.00000  Uiso   1.00
C1014  C     0.72051   0.94758   0.80158   0.00000  Uiso   1.00
C1015  C     0.74984   0.75004   0.73973   0.00000  Uiso   1.00
C1016  C     0.75016   0.75004   0.92693   0.00000  Uiso   1.00
C1017  C     0.75000   0.52559   0.83333   0.00000  Uiso   1.00
C1018  C     0.75000   0.97301   0.83333   0.00000  Uiso   1.00
C1019  C     0.74995   0.75022   0.68853   0.00000  Uiso   1.00
C1020  C     0.75005   0.75022   0.97813   0.00000  Uiso   1.00
C1021  C     0.54617   0.78860   0.81529   0.00000  Uiso   1.00
C1022  C     0.95201   0.71095   0.81560   0.00000  Uiso   1.00
C1023  C     0.95383   0.78860   0.85138   0.00000  Uiso   1.00
C1024  C     0.83591   0.74999   0.83348   0.00000  Uiso   1.00
C1025  C     0.54799   0.71095   0.85108   0.00000  Uiso   1.00
C1026  C     0.59221   0.78878   0.81549   0.00000  Uiso   1.00
C1027  C     0.90598   0.71092   0.81588   0.00000  Uiso   1.00
C1028  C     0.90779   0.78878   0.85118   0.00000  Uiso   1.00
C1029  C     0.59402   0.71093   0.85080   0.00000  Uiso   1.00
C1030  C     0.61613   0.74991   0.83315   0.00000  Uiso   1.00
C1031  C     0.88387   0.74991   0.83352   0.00000  Uiso   1.00
C1032  C     0.52407   0.74975   0.83324   0.00000  Uiso   1.00
C1033  C     0.97593   0.74975   0.83343   0.00000  Uiso   1.00
C1034  C     0.72743   0.62005   0.73751   0.00000  Uiso   1.00
C1035  C     0.73944   0.60020   0.78951   0.00000  Uiso   1.00
C1036  C     0.67961   0.63925   0.73278   0.00000  Uiso   1.00
C1037  C     0.66534   0.65076   0.67820   0.00000  Uiso   1.00
C1038  C     0.81093   0.87562   0.90382   0.00000  Uiso   1.00
C1039  C     0.79739   0.88395   0.95778   0.00000  Uiso   1.00
C1040  C     0.82889   0.85912   0.99595   0.00000  Uiso   1.00
C1041  C     0.77257   0.62005   0.92916   0.00000  Uiso   1.00
C1042  C     0.82039   0.63925   0.93388   0.00000  Uiso   1.00
C1043  C     0.83466   0.65076   0.98846   0.00000  Uiso   1.00
C1044  C     0.68907   0.87562   0.76285   0.00000  Uiso   1.00
C1045  C     0.70261   0.88396   0.70889   0.00000  Uiso   1.00
C1046  C     0.77871   0.89854   0.86592   0.00000  Uiso   1.00
C1047  C     0.67111   0.85912   0.67072   0.00000  Uiso   1.00
C1048  C     0.76056   0.60020   0.87715   0.00000  Uiso   1.00
C1049  C     0.72129   0.89854   0.80075   0.00000  Uiso   1.00
C1050  C     0.73964   0.55094   0.79003   0.00000  Uiso   1.00
C1051  C     0.77949   0.94758   0.86509   0.00000  Uiso   1.00
C1052  C     0.76036   0.55094   0.87664   0.00000  Uiso   1.00
H1053  H     0.52780   0.81850   0.80078   0.00000  Uiso   1.00
H1054  H     0.80375   0.96575   0.88942   0.00000  Uiso   1.00
H1055  H     0.76784   0.53180   0.91108   0.00000  Uiso   1.00
H1056  H     0.69625   0.96575   0.77724   0.00000  Uiso   1.00
H1057  H     0.68793   0.67710   0.99638   0.00000  Uiso   1.00
H1058  H     0.66589   0.61914   0.98774   0.00000  Uiso   1.00
H1059  H     0.63085   0.66490   0.67635   0.00000  Uiso   1.00
H1060  H     0.65611   0.61304   0.74686   0.00000  Uiso   1.00
H1061  H     0.67655   0.67087   0.75542   0.00000  Uiso   1.00
H1062  H     0.75371   0.64280   0.72417   0.00000  Uiso   1.00
H1063  H     0.72846   0.59227   0.70857   0.00000  Uiso   1.00
H1064  H     0.96890   0.68101   0.80103   0.00000  Uiso   1.00
H1065  H     0.82783   0.82109   0.98945   0.00000  Uiso   1.00
H1066  H     0.86365   0.87166   0.99278   0.00000  Uiso   1.00
H1067  H     0.81863   0.86617   0.70139   0.00000  Uiso   1.00
H1068  H     0.79760   0.92160   0.96658   0.00000  Uiso   1.00
H1069  H     0.76307   0.87052   0.96108   0.00000  Uiso   1.00
H1070  H     0.81281   0.83832   0.89849   0.00000  Uiso   1.00
H1071  H     0.84507   0.88949   0.89918   0.00000  Uiso   1.00
H1072  H     0.81207   0.67710   0.67029   0.00000  Uiso   1.00
H1073  H     0.83411   0.61914   0.67892   0.00000  Uiso   1.00
H1074  H     0.86915   0.66490   0.99032   0.00000  Uiso   1.00
H1075  H     0.97220   0.81850   0.86589   0.00000  Uiso   1.00
H1076  H     0.84389   0.61305   0.91981   0.00000  Uiso   1.00
H1077  H     0.82345   0.67088   0.91125   0.00000  Uiso   1.00
H1078  H     0.74629   0.64280   0.94250   0.00000  Uiso   1.00
H1079  H     0.77154   0.59227   0.95810   0.00000  Uiso   1.00
H1080  H     0.67217   0.82109   0.67722   0.00000  Uiso   1.00
H1081  H     0.63635   0.87166   0.67389   0.00000  Uiso   1.00
H1082  H     0.68137   0.86618   0.96528   0.00000  Uiso   1.00
H1083  H     0.70240   0.92160   0.70009   0.00000  Uiso   1.00
H1084  H     0.73693   0.87052   0.70559   0.00000  Uiso   1.00
H1085  H     0.68719   0.83832   0.76817   0.00000  Uiso   1.00
H1086  H     0.53110   0.68101   0.86565   0.00000  Uiso   1.00
H1087  H     0.65493   0.88949   0.76749   0.00000  Uiso   1.00
H1088  H     0.60897   0.81895   0.80131   0.00000  Uiso   1.00
H1089  H     0.88774   0.68082   0.80170   0.00000  Uiso   1.00
H1090  H     0.89103   0.81895   0.86535   0.00000  Uiso   1.00
H1091  H     0.61226   0.68082   0.86498   0.00000  Uiso   1.00
H1092  H     0.73216   0.53180   0.75558   0.00000  Uiso   1.00
N1093  N     0.75000   0.62624   0.83333   0.00000  Uiso   1.00
N1094  N     0.75000   0.87377   0.83333   0.00000  Uiso   1.00
O1095  O     0.68453   0.78974   0.83334   0.00000  Uiso   1.00
O1096  O     0.81547   0.71026   0.83333   0.00000  Uiso   1.00
O1097  O     0.81547   0.78974   0.83333   0.00000  Uiso   1.00
O1098  O     0.68453   0.71026   0.83334   0.00000  Uiso   1.00
O1099  O     0.75000   0.78973   0.76178   0.00000  Uiso   1.00
O1100  O     0.75000   0.71027   0.90489   0.00000  Uiso   1.00
O1101  O     0.75000   0.78973   0.90489   0.00000  Uiso   1.00
O1102  O     0.75000   0.71027   0.76178   0.00000  Uiso   1.00
Zn1103 Zn    0.75000   0.80307   0.83333   0.00000  Uiso   1.00
Zn1104 Zn    0.75000   0.69693   0.83333   0.00000  Uiso   1.00
loop_
_geom_bond_atom_site_label_1
_geom_bond_atom_site_label_2
_geom_bond_distance
_geom_bond_site_symmetry_2
_ccdc_geom_bond_type
C1     C18     1.438   .     S
C1     O83     1.300   .     A
C1     O86     1.300   .     A
C2     H44     1.083   .     S
C2     C6      1.398   .     A
C2     C37     1.415   .     A
C3     O90     1.289   .     A
C3     O87     1.286   .     A
C3     C7      1.361   .     S
C4     C8      1.361   .     S
C4     O89     1.286   .     A
C4     O88     1.289   .     A
C5     C38     1.385   .     A
C5     C40     1.385   .     A
C5     C190    1.517   1_545 S
C6     C39     1.398   .     A
C6     C189    1.517   .     S
C7     C744    1.163   1_554 S
C8     C375    1.163   .     S
C9     C14     1.380   .     A
C9     C20     1.399   .     A
C9     H41     1.083   .     S
C10    H52     1.083   .     S
C10    C15     1.381   .     A
C10    C21     1.399   .     A
C11    H63     1.083   .     S
C11    C21     1.399   .     A
C11    C16     1.380   .     A
C12    O85     1.300   .     A
C12    O84     1.300   .     A
C12    C19     1.438   .     S
C13    H74     1.083   .     S
C13    C20     1.399   .     A
C13    C17     1.381   .     A
C14    C18     1.399   .     A
C14    H76     1.083   .     S
C15    H77     1.084   .     S
C15    C19     1.399   .     A
C16    C19     1.399   .     A
C16    H78     1.083   .     S
C17    H79     1.084   .     S
C17    C18     1.399   .     A
C20    C113    1.444   1_455 S
C21    C112    1.444   .     S
C22    H50     1.099   .     S
C22    C24     1.536   .     S
C22    C23     1.522   .     S
C22    H51     1.113   .     S
C23    N81     1.408   .     A
C23    C38     1.421   .     A
C24    H48     1.112   .     S
C24    C25     1.527   .     S
C24    H49     1.100   .     S
C25    H47     1.110   .     S
C25    H781    1.108   1_554 S
C25    H782    1.111   1_554 S
C26    C34     1.511   .     S
C26    H59     1.112   .     S
C26    C27     1.530   .     S
C26    H58     1.087   .     S
C27    H57     1.107   .     S
C27    H56     1.111   .     S
C27    C28     1.528   .     S
C28    H54     1.111   .     S
C28    H53     1.111   .     S
C28    H423    1.110   .     S
C29    C36     1.522   .     S
C29    H67     1.113   .     S
C29    C30     1.536   .     S
C29    H66     1.099   .     S
C30    H64     1.112   .     S
C30    C31     1.527   .     S
C30    H65     1.100   .     S
C31    H62     1.110   .     S
C31    H428    1.108   .     S
C31    H429    1.111   .     S
C32    H75     1.112   .     S
C32    H73     1.087   .     S
C32    C37     1.511   .     S
C32    C33     1.530   .     S
C33    H72     1.107   .     S
C33    C35     1.528   .     S
C33    H71     1.111   .     S
C34    C39     1.415   .     A
C34    N82     1.387   .     A
C35    H68     1.111   .     S
C35    H69     1.111   .     S
C35    H806    1.110   1_554 S
C36    C40     1.421   .     A
C36    N81     1.408   .     A
C37    N82     1.387   .     A
C38    H80     1.083   .     S
C39    H42     1.083   .     S
C40    H43     1.083   .     S
H45    C393    1.108   .     S
H46    C393    1.111   .     S
H55    C764    1.110   1_554 S
H60    C767    1.108   1_554 S
H61    C767    1.111   1_554 S
H70    C403    1.110   .     S
N81    Zn92    2.040   .     S
N82    Zn91    2.040   .     S
O83    Zn91    2.001   .     S
O84    Zn92    2.001   .     S
O85    Zn91    2.001   .     S
O86    Zn92    2.001   .     S
O87    Zn91    1.941   .     S
O88    Zn92    1.941   .     S
O89    Zn91    1.941   .     S
O90    Zn92    1.941   .     S
C93    C110    1.438   .     S
C93    O175    1.300   .     A
C93    O178    1.300   .     A
C94    H136    1.083   .     S
C94    C98     1.398   .     A
C94    C129    1.415   .     A
C95    O182    1.289   .     A
C95    O179    1.286   .     A
C95    C99     1.361   .     S
C96    C100    1.361   .     S
C96    O181    1.286   .     A
C96    O180    1.289   .     A
C97    C130    1.385   .     A
C97    C132    1.385   .     A
C97    C282    1.517   1_545 S
C98    C131    1.398   .     A
C98    C281    1.517   .     S
C99    C836    1.163   1_554 S
C100   C467    1.163   .     S
C101   C106    1.380   .     A
C101   C112    1.399   .     A
C101   H133    1.083   .     S
C102   H144    1.083   .     S
C102   C107    1.381   .     A
C102   C113    1.399   .     A
C103   H155    1.083   .     S
C103   C113    1.399   .     A
C103   C108    1.380   .     A
C104   O177    1.300   .     A
C104   O176    1.300   .     A
C104   C111    1.438   .     S
C105   H166    1.083   .     S
C105   C112    1.399   .     A
C105   C109    1.381   .     A
C106   C110    1.399   .     A
C106   H168    1.083   .     S
C107   H169    1.084   .     S
C107   C111    1.399   .     A
C108   C111    1.399   .     A
C108   H170    1.083   .     S
C109   H171    1.084   .     S
C109   C110    1.399   .     A
C113   C20     1.444   1_655 S
C114   H142    1.099   .     S
C114   C116    1.536   .     S
C114   C115    1.522   .     S
C114   H143    1.113   .     S
C115   N173    1.408   .     A
C115   C130    1.421   .     A
C116   H140    1.112   .     S
C116   C117    1.527   .     S
C116   H141    1.100   .     S
C117   H139    1.110   .     S
C117   H873    1.108   1_554 S
C117   H874    1.111   1_554 S
C118   C126    1.511   .     S
C118   H151    1.112   .     S
C118   C119    1.530   .     S
C118   H150    1.087   .     S
C119   H149    1.107   .     S
C119   H148    1.111   .     S
C119   C120    1.528   .     S
C120   H146    1.111   .     S
C120   H145    1.111   .     S
C120   H515    1.110   .     S
C121   C128    1.522   .     S
C121   H159    1.113   .     S
C121   C122    1.536   .     S
C121   H158    1.099   .     S
C122   H156    1.112   .     S
C122   C123    1.527   .     S
C122   H157    1.100   .     S
C123   H154    1.110   .     S
C123   H520    1.108   .     S
C123   H521    1.111   .     S
C124   H167    1.112   .     S
C124   H165    1.087   .     S
C124   C129    1.511   .     S
C124   C125    1.530   .     S
C125   H164    1.107   .     S
C125   C127    1.528   .     S
C125   H163    1.111   .     S
C126   C131    1.415   .     A
C126   N174    1.387   .     A
C127   H160    1.111   .     S
C127   H161    1.111   .     S
C127   H898    1.110   1_554 S
C128   C132    1.421   .     A
C128   N173    1.408   .     A
C129   N174    1.387   .     A
C130   H172    1.083   .     S
C131   H134    1.083   .     S
C132   H135    1.083   .     S
H137   C485    1.108   .     S
H138   C485    1.111   .     S
H147   C856    1.110   1_554 S
H152   C859    1.108   1_554 S
H153   C859    1.111   1_554 S
H162   C495    1.110   .     S
N173   Zn184   2.040   .     S
N174   Zn183   2.040   .     S
O175   Zn183   2.001   .     S
O176   Zn184   2.001   .     S
O177   Zn183   2.001   .     S
O178   Zn184   2.001   .     S
O179   Zn183   1.941   .     S
O180   Zn184   1.941   .     S
O181   Zn183   1.941   .     S
O182   Zn184   1.941   .     S
C185   C202    1.438   .     S
C185   O267    1.300   .     A
C185   O270    1.300   .     A
C186   H228    1.083   .     S
C186   C190    1.398   .     A
C186   C221    1.415   .     A
C187   O274    1.289   .     A
C187   O271    1.286   .     A
C187   C191    1.361   .     S
C188   C192    1.361   .     S
C188   O273    1.286   .     A
C188   O272    1.289   .     A
C189   C222    1.385   .     A
C189   C224    1.385   .     A
C190   C223    1.398   .     A
C190   C5      1.517   1_565 S
C191   C928    1.163   1_554 S
C192   C559    1.163   .     S
C193   C198    1.380   .     A
C193   C204    1.399   .     A
C193   H225    1.083   .     S
C194   H236    1.083   .     S
C194   C199    1.381   .     A
C194   C205    1.399   .     A
C195   H247    1.083   .     S
C195   C205    1.399   .     A
C195   C200    1.380   .     A
C196   O269    1.300   .     A
C196   O268    1.300   .     A
C196   C203    1.438   .     S
C197   H258    1.083   .     S
C197   C204    1.399   .     A
C197   C201    1.381   .     A
C198   C202    1.399   .     A
C198   H260    1.083   .     S
C199   H261    1.084   .     S
C199   C203    1.399   .     A
C200   C203    1.399   .     A
C200   H262    1.083   .     S
C201   H263    1.084   .     S
C201   C202    1.399   .     A
C204   C297    1.444   1_455 S
C205   C296    1.444   .     S
C206   H234    1.099   .     S
C206   C208    1.536   .     S
C206   C207    1.522   .     S
C206   H235    1.113   .     S
C207   N265    1.408   .     A
C207   C222    1.421   .     A
C208   H232    1.112   .     S
C208   C209    1.527   .     S
C208   H233    1.100   .     S
C209   H231    1.110   .     S
C209   H965    1.108   1_554 S
C209   H966    1.111   1_554 S
C210   C218    1.511   .     S
C210   H243    1.112   .     S
C210   C211    1.530   .     S
C210   H242    1.087   .     S
C211   H241    1.107   .     S
C211   H240    1.111   .     S
C211   C212    1.528   .     S
C212   H238    1.111   .     S
C212   H237    1.111   .     S
C212   H607    1.110   .     S
C213   C220    1.522   .     S
C213   H251    1.113   .     S
C213   C214    1.536   .     S
C213   H250    1.099   .     S
C214   H248    1.112   .     S
C214   C215    1.527   .     S
C214   H249    1.100   .     S
C215   H246    1.110   .     S
C215   H612    1.108   .     S
C215   H613    1.111   .     S
C216   H259    1.112   .     S
C216   H257    1.087   .     S
C216   C221    1.511   .     S
C216   C217    1.530   .     S
C217   H256    1.107   .     S
C217   C219    1.528   .     S
C217   H255    1.111   .     S
C218   C223    1.415   .     A
C218   N266    1.387   .     A
C219   H252    1.111   .     S
C219   H253    1.111   .     S
C219   H990    1.110   1_554 S
C220   C224    1.421   .     A
C220   N265    1.408   .     A
C221   N266    1.387   .     A
C222   H264    1.083   .     S
C223   H226    1.083   .     S
C224   H227    1.083   .     S
H229   C577    1.108   .     S
H230   C577    1.111   .     S
H239   C948    1.110   1_554 S
H244   C951    1.108   1_554 S
H245   C951    1.111   1_554 S
H254   C587    1.110   .     S
N265   Zn276   2.040   .     S
N266   Zn275   2.040   .     S
O267   Zn275   2.001   .     S
O268   Zn276   2.001   .     S
O269   Zn275   2.001   .     S
O270   Zn276   2.001   .     S
O271   Zn275   1.941   .     S
O272   Zn276   1.941   .     S
O273   Zn275   1.941   .     S
O274   Zn276   1.941   .     S
C277   C294    1.438   .     S
C277   O359    1.300   .     A
C277   O362    1.300   .     A
C278   H320    1.083   .     S
C278   C282    1.398   .     A
C278   C313    1.415   .     A
C279   O366    1.289   .     A
C279   O363    1.286   .     A
C279   C283    1.361   .     S
C280   C284    1.361   .     S
C280   O365    1.286   .     A
C280   O364    1.289   .     A
C281   C314    1.385   .     A
C281   C316    1.385   .     A
C282   C315    1.398   .     A
C282   C97     1.517   1_565 S
C283   C1020   1.163   1_554 S
C284   C651    1.163   .     S
C285   C290    1.380   .     A
C285   C296    1.399   .     A
C285   H317    1.083   .     S
C286   H328    1.083   .     S
C286   C291    1.381   .     A
C286   C297    1.399   .     A
C287   H339    1.083   .     S
C287   C297    1.399   .     A
C287   C292    1.380   .     A
C288   O361    1.300   .     A
C288   O360    1.300   .     A
C288   C295    1.438   .     S
C289   H350    1.083   .     S
C289   C296    1.399   .     A
C289   C293    1.381   .     A
C290   C294    1.399   .     A
C290   H352    1.083   .     S
C291   H353    1.084   .     S
C291   C295    1.399   .     A
C292   C295    1.399   .     A
C292   H354    1.083   .     S
C293   H355    1.084   .     S
C293   C294    1.399   .     A
C297   C204    1.444   1_655 S
C298   H326    1.099   .     S
C298   C300    1.536   .     S
C298   C299    1.522   .     S
C298   H327    1.113   .     S
C299   N357    1.408   .     A
C299   C314    1.421   .     A
C300   H324    1.112   .     S
C300   C301    1.527   .     S
C300   H325    1.100   .     S
C301   H323    1.110   .     S
C301   H1057   1.108   1_554 S
C301   H1058   1.111   1_554 S
C302   C310    1.511   .     S
C302   H335    1.112   .     S
C302   C303    1.530   .     S
C302   H334    1.087   .     S
C303   H333    1.107   .     S
C303   H332    1.111   .     S
C303   C304    1.528   .     S
C304   H330    1.111   .     S
C304   H329    1.111   .     S
C304   H699    1.110   .     S
C305   C312    1.522   .     S
C305   H343    1.113   .     S
C305   C306    1.536   .     S
C305   H342    1.099   .     S
C306   H340    1.112   .     S
C306   C307    1.527   .     S
C306   H341    1.100   .     S
C307   H338    1.110   .     S
C307   H704    1.108   .     S
C307   H705    1.111   .     S
C308   H351    1.112   .     S
C308   H349    1.087   .     S
C308   C313    1.511   .     S
C308   C309    1.530   .     S
C309   H348    1.107   .     S
C309   C311    1.528   .     S
C309   H347    1.111   .     S
C310   C315    1.415   .     A
C310   N358    1.387   .     A
C311   H344    1.111   .     S
C311   H345    1.111   .     S
C311   H1082   1.110   1_554 S
C312   C316    1.421   .     A
C312   N357    1.408   .     A
C313   N358    1.387   .     A
C314   H356    1.083   .     S
C315   H318    1.083   .     S
C316   H319    1.083   .     S
H321   C669    1.108   .     S
H322   C669    1.111   .     S
H331   C1040   1.110   1_554 S
H336   C1043   1.108   1_554 S
H337   C1043   1.111   1_554 S
H346   C679    1.110   .     S
N357   Zn368   2.040   .     S
N358   Zn367   2.040   .     S
O359   Zn367   2.001   .     S
O360   Zn368   2.001   .     S
O361   Zn367   2.001   .     S
O362   Zn368   2.001   .     S
O363   Zn367   1.941   .     S
O364   Zn368   1.941   .     S
O365   Zn367   1.941   .     S
O366   Zn368   1.941   .     S
C369   C386    1.438   .     S
C369   O451    1.300   .     A
C369   O454    1.300   .     A
C370   H412    1.083   .     S
C370   C374    1.398   .     A
C370   C405    1.415   .     A
C371   O458    1.289   .     A
C371   O455    1.286   .     A
C371   C375    1.361   .     S
C372   C376    1.361   .     S
C372   O457    1.286   .     A
C372   O456    1.289   .     A
C373   C406    1.385   .     A
C373   C408    1.385   .     A
C373   C558    1.517   1_545 S
C374   C407    1.398   .     A
C374   C557    1.517   .     S
C376   C743    1.163   .     S
C377   C382    1.380   .     A
C377   C388    1.399   .     A
C377   H409    1.083   .     S
C378   H420    1.083   .     S
C378   C383    1.381   .     A
C378   C389    1.399   .     A
C379   H431    1.083   .     S
C379   C389    1.399   .     A
C379   C384    1.380   .     A
C380   O453    1.300   .     A
C380   O452    1.300   .     A
C380   C387    1.438   .     S
C381   H442    1.083   .     S
C381   C388    1.399   .     A
C381   C385    1.381   .     A
C382   C386    1.399   .     A
C382   H444    1.083   .     S
C383   H445    1.084   .     S
C383   C387    1.399   .     A
C384   C387    1.399   .     A
C384   H446    1.083   .     S
C385   H447    1.084   .     S
C385   C386    1.399   .     A
C388   C481    1.444   1_455 S
C389   C480    1.444   .     S
C390   H418    1.099   .     S
C390   C392    1.536   .     S
C390   C391    1.522   .     S
C390   H419    1.113   .     S
C391   N449    1.408   .     A
C391   C406    1.421   .     A
C392   H416    1.112   .     S
C392   C393    1.527   .     S
C392   H417    1.100   .     S
C393   H415    1.110   .     S
C394   C402    1.511   .     S
C394   H427    1.112   .     S
C394   C395    1.530   .     S
C394   H426    1.087   .     S
C395   H425    1.107   .     S
C395   H424    1.111   .     S
C395   C396    1.528   .     S
C396   H422    1.111   .     S
C396   H421    1.111   .     S
C396   H791    1.110   .     S
C397   C404    1.522   .     S
C397   H435    1.113   .     S
C397   C398    1.536   .     S
C397   H434    1.099   .     S
C398   H432    1.112   .     S
C398   C399    1.527   .     S
C398   H433    1.100   .     S
C399   H430    1.110   .     S
C399   H796    1.108   .     S
C399   H797    1.111   .     S
C400   H443    1.112   .     S
C400   H441    1.087   .     S
C400   C405    1.511   .     S
C400   C401    1.530   .     S
C401   H440    1.107   .     S
C401   C403    1.528   .     S
C401   H439    1.111   .     S
C402   C407    1.415   .     A
C402   N450    1.387   .     A
C403   H436    1.111   .     S
C403   H437    1.111   .     S
C404   C408    1.421   .     A
C404   N449    1.408   .     A
C405   N450    1.387   .     A
C406   H448    1.083   .     S
C407   H410    1.083   .     S
C408   H411    1.083   .     S
H413   C761    1.108   .     S
H414   C761    1.111   .     S
H438   C771    1.110   .     S
N449   Zn460   2.040   .     S
N450   Zn459   2.040   .     S
O451   Zn459   2.001   .     S
O452   Zn460   2.001   .     S
O453   Zn459   2.001   .     S
O454   Zn460   2.001   .     S
O455   Zn459   1.941   .     S
O456   Zn460   1.941   .     S
O457   Zn459   1.941   .     S
O458   Zn460   1.941   .     S
C461   C478    1.438   .     S
C461   O543    1.300   .     A
C461   O546    1.300   .     A
C462   H504    1.083   .     S
C462   C466    1.398   .     A
C462   C497    1.415   .     A
C463   O550    1.289   .     A
C463   O547    1.286   .     A
C463   C467    1.361   .     S
C464   C468    1.361   .     S
C464   O549    1.286   .     A
C464   O548    1.289   .     A
C465   C498    1.385   .     A
C465   C500    1.385   .     A
C465   C650    1.517   1_545 S
C466   C499    1.398   .     A
C466   C649    1.517   .     S
C468   C835    1.163   .     S
C469   C474    1.380   .     A
C469   C480    1.399   .     A
C469   H501    1.083   .     S
C470   H512    1.083   .     S
C470   C475    1.381   .     A
C470   C481    1.399   .     A
C471   H523    1.083   .     S
C471   C481    1.399   .     A
C471   C476    1.380   .     A
C472   O545    1.300   .     A
C472   O544    1.300   .     A
C472   C479    1.438   .     S
C473   H534    1.083   .     S
C473   C480    1.399   .     A
C473   C477    1.381   .     A
C474   C478    1.399   .     A
C474   H536    1.083   .     S
C475   H537    1.084   .     S
C475   C479    1.399   .     A
C476   C479    1.399   .     A
C476   H538    1.083   .     S
C477   H539    1.084   .     S
C477   C478    1.399   .     A
C481   C388    1.444   1_655 S
C482   H510    1.099   .     S
C482   C484    1.536   .     S
C482   C483    1.522   .     S
C482   H511    1.113   .     S
C483   N541    1.408   .     A
C483   C498    1.421   .     A
C484   H508    1.112   .     S
C484   C485    1.527   .     S
C484   H509    1.100   .     S
C485   H507    1.110   .     S
C486   C494    1.511   .     S
C486   H519    1.112   .     S
C486   C487    1.530   .     S
C486   H518    1.087   .     S
C487   H517    1.107   .     S
C487   H516    1.111   .     S
C487   C488    1.528   .     S
C488   H514    1.111   .     S
C488   H513    1.111   .     S
C488   H883    1.110   .     S
C489   C496    1.522   .     S
C489   H527    1.113   .     S
C489   C490    1.536   .     S
C489   H526    1.099   .     S
C490   H524    1.112   .     S
C490   C491    1.527   .     S
C490   H525    1.100   .     S
C491   H522    1.110   .     S
C491   H888    1.108   .     S
C491   H889    1.111   .     S
C492   H535    1.112   .     S
C492   H533    1.087   .     S
C492   C497    1.511   .     S
C492   C493    1.530   .     S
C493   H532    1.107   .     S
C493   C495    1.528   .     S
C493   H531    1.111   .     S
C494   C499    1.415   .     A
C494   N542    1.387   .     A
C495   H528    1.111   .     S
C495   H529    1.111   .     S
C496   C500    1.421   .     A
C496   N541    1.408   .     A
C497   N542    1.387   .     A
C498   H540    1.083   .     S
C499   H502    1.083   .     S
C500   H503    1.083   .     S
H505   C853    1.108   .     S
H506   C853    1.111   .     S
H530   C863    1.110   .     S
N541   Zn552   2.040   .     S
N542   Zn551   2.040   .     S
O543   Zn551   2.001   .     S
O544   Zn552   2.001   .     S
O545   Zn551   2.001   .     S
O546   Zn552   2.001   .     S
O547   Zn551   1.941   .     S
O548   Zn552   1.941   .     S
O549   Zn551   1.941   .     S
O550   Zn552   1.941   .     S
C553   C570    1.438   .     S
C553   O635    1.300   .     A
C553   O638    1.300   .     A
C554   H596    1.083   .     S
C554   C558    1.398   .     A
C554   C589    1.415   .     A
C555   O642    1.289   .     A
C555   O639    1.286   .     A
C555   C559    1.361   .     S
C556   C560    1.361   .     S
C556   O641    1.286   .     A
C556   O640    1.289   .     A
C557   C590    1.385   .     A
C557   C592    1.385   .     A
C558   C591    1.398   .     A
C558   C373    1.517   1_565 S
C560   C927    1.163   .     S
C561   C566    1.380   .     A
C561   C572    1.399   .     A
C561   H593    1.083   .     S
C562   H604    1.083   .     S
C562   C567    1.381   .     A
C562   C573    1.399   .     A
C563   H615    1.083   .     S
C563   C573    1.399   .     A
C563   C568    1.380   .     A
C564   O637    1.300   .     A
C564   O636    1.300   .     A
C564   C571    1.438   .     S
C565   H626    1.083   .     S
C565   C572    1.399   .     A
C565   C569    1.381   .     A
C566   C570    1.399   .     A
C566   H628    1.083   .     S
C567   H629    1.084   .     S
C567   C571    1.399   .     A
C568   C571    1.399   .     A
C568   H630    1.083   .     S
C569   H631    1.084   .     S
C569   C570    1.399   .     A
C572   C665    1.444   1_455 S
C573   C664    1.444   .     S
C574   H602    1.099   .     S
C574   C576    1.536   .     S
C574   C575    1.522   .     S
C574   H603    1.113   .     S
C575   N633    1.408   .     A
C575   C590    1.421   .     A
C576   H600    1.112   .     S
C576   C577    1.527   .     S
C576   H601    1.100   .     S
C577   H599    1.110   .     S
C578   C586    1.511   .     S
C578   H611    1.112   .     S
C578   C579    1.530   .     S
C578   H610    1.087   .     S
C579   H609    1.107   .     S
C579   H608    1.111   .     S
C579   C580    1.528   .     S
C580   H606    1.111   .     S
C580   H605    1.111   .     S
C580   H975    1.110   .     S
C581   C588    1.522   .     S
C581   H619    1.113   .     S
C581   C582    1.536   .     S
C581   H618    1.099   .     S
C582   H616    1.112   .     S
C582   C583    1.527   .     S
C582   H617    1.100   .     S
C583   H614    1.110   .     S
C583   H980    1.108   .     S
C583   H981    1.111   .     S
C584   H627    1.112   .     S
C584   H625    1.087   .     S
C584   C589    1.511   .     S
C584   C585    1.530   .     S
C585   H624    1.107   .     S
C585   C587    1.528   .     S
C585   H623    1.111   .     S
C586   C591    1.415   .     A
C586   N634    1.387   .     A
C587   H620    1.111   .     S
C587   H621    1.111   .     S
C588   C592    1.421   .     A
C588   N633    1.408   .     A
C589   N634    1.387   .     A
C590   H632    1.083   .     S
C591   H594    1.083   .     S
C592   H595    1.083   .     S
H597   C945    1.108   .     S
H598   C945    1.111   .     S
H622   C955    1.110   .     S
N633   Zn644   2.040   .     S
N634   Zn643   2.040   .     S
O635   Zn643   2.001   .     S
O636   Zn644   2.001   .     S
O637   Zn643   2.001   .     S
O638   Zn644   2.001   .     S
O639   Zn643   1.941   .     S
O640   Zn644   1.941   .     S
O641   Zn643   1.941   .     S
O642   Zn644   1.941   .     S
C645   C662    1.438   .     S
C645   O727    1.300   .     A
C645   O730    1.300   .     A
C646   H688    1.083   .     S
C646   C650    1.398   .     A
C646   C681    1.415   .     A
C647   O734    1.289   .     A
C647   O731    1.286   .     A
C647   C651    1.361   .     S
C648   C652    1.361   .     S
C648   O733    1.286   .     A
C648   O732    1.289   .     A
C649   C682    1.385   .     A
C649   C684    1.385   .     A
C650   C683    1.398   .     A
C650   C465    1.517   1_565 S
C652   C1019   1.163   .     S
C653   C658    1.380   .     A
C653   C664    1.399   .     A
C653   H685    1.083   .     S
C654   H696    1.083   .     S
C654   C659    1.381   .     A
C654   C665    1.399   .     A
C655   H707    1.083   .     S
C655   C665    1.399   .     A
C655   C660    1.380   .     A
C656   O729    1.300   .     A
C656   O728    1.300   .     A
C656   C663    1.438   .     S
C657   H718    1.083   .     S
C657   C664    1.399   .     A
C657   C661    1.381   .     A
C658   C662    1.399   .     A
C658   H720    1.083   .     S
C659   H721    1.084   .     S
C659   C663    1.399   .     A
C660   C663    1.399   .     A
C660   H722    1.083   .     S
C661   H723    1.084   .     S
C661   C662    1.399   .     A
C665   C572    1.444   1_655 S
C666   H694    1.099   .     S
C666   C668    1.536   .     S
C666   C667    1.522   .     S
C666   H695    1.113   .     S
C667   N725    1.408   .     A
C667   C682    1.421   .     A
C668   H692    1.112   .     S
C668   C669    1.527   .     S
C668   H693    1.100   .     S
C669   H691    1.110   .     S
C670   C678    1.511   .     S
C670   H703    1.112   .     S
C670   C671    1.530   .     S
C670   H702    1.087   .     S
C671   H701    1.107   .     S
C671   H700    1.111   .     S
C671   C672    1.528   .     S
C672   H698    1.111   .     S
C672   H697    1.111   .     S
C672   H1067   1.110   .     S
C673   C680    1.522   .     S
C673   H711    1.113   .     S
C673   C674    1.536   .     S
C673   H710    1.099   .     S
C674   H708    1.112   .     S
C674   C675    1.527   .     S
C674   H709    1.100   .     S
C675   H706    1.110   .     S
C675   H1072   1.108   .     S
C675   H1073   1.111   .     S
C676   H719    1.112   .     S
C676   H717    1.087   .     S
C676   C681    1.511   .     S
C676   C677    1.530   .     S
C677   H716    1.107   .     S
C677   C679    1.528   .     S
C677   H715    1.111   .     S
C678   C683    1.415   .     A
C678   N726    1.387   .     A
C679   H712    1.111   .     S
C679   H713    1.111   .     S
C680   C684    1.421   .     A
C680   N725    1.408   .     A
C681   N726    1.387   .     A
C682   H724    1.083   .     S
C683   H686    1.083   .     S
C684   H687    1.083   .     S
H689   C1037   1.108   .     S
H690   C1037   1.111   .     S
H714   C1047   1.110   .     S
N725   Zn736   2.040   .     S
N726   Zn735   2.040   .     S
O727   Zn735   2.001   .     S
O728   Zn736   2.001   .     S
O729   Zn735   2.001   .     S
O730   Zn736   2.001   .     S
O731   Zn735   1.941   .     S
O732   Zn736   1.941   .     S
O733   Zn735   1.941   .     S
O734   Zn736   1.941   .     S
C737   C754    1.438   .     S
C737   O819    1.300   .     A
C737   O822    1.300   .     A
C738   H780    1.083   .     S
C738   C742    1.398   .     A
C738   C773    1.415   .     A
C739   O826    1.289   .     A
C739   O823    1.286   .     A
C739   C743    1.361   .     S
C740   C744    1.361   .     S
C740   O825    1.286   .     A
C740   O824    1.289   .     A
C741   C774    1.385   .     A
C741   C776    1.385   .     A
C741   C926    1.517   1_545 S
C742   C775    1.398   .     A
C742   C925    1.517   .     S
C744   C7      1.163   1_556 S
C745   C750    1.380   .     A
C745   C756    1.399   .     A
C745   H777    1.083   .     S
C746   H788    1.083   .     S
C746   C751    1.381   .     A
C746   C757    1.399   .     A
C747   H799    1.083   .     S
C747   C757    1.399   .     A
C747   C752    1.380   .     A
C748   O821    1.300   .     A
C748   O820    1.300   .     A
C748   C755    1.438   .     S
C749   H810    1.083   .     S
C749   C756    1.399   .     A
C749   C753    1.381   .     A
C750   C754    1.399   .     A
C750   H812    1.083   .     S
C751   H813    1.084   .     S
C751   C755    1.399   .     A
C752   C755    1.399   .     A
C752   H814    1.083   .     S
C753   H815    1.084   .     S
C753   C754    1.399   .     A
C756   C849    1.444   1_455 S
C757   C848    1.444   .     S
C758   H786    1.099   .     S
C758   C760    1.536   .     S
C758   C759    1.522   .     S
C758   H787    1.113   .     S
C759   N817    1.408   .     A
C759   C774    1.421   .     A
C760   H784    1.112   .     S
C760   C761    1.527   .     S
C760   H785    1.100   .     S
C761   H783    1.110   .     S
C762   C770    1.511   .     S
C762   H795    1.112   .     S
C762   C763    1.530   .     S
C762   H794    1.087   .     S
C763   H793    1.107   .     S
C763   H792    1.111   .     S
C763   C764    1.528   .     S
C764   H790    1.111   .     S
C764   H789    1.111   .     S
C764   H55     1.110   1_556 S
C765   C772    1.522   .     S
C765   H803    1.113   .     S
C765   C766    1.536   .     S
C765   H802    1.099   .     S
C766   H800    1.112   .     S
C766   C767    1.527   .     S
C766   H801    1.100   .     S
C767   H798    1.110   .     S
C767   H60     1.108   1_556 S
C767   H61     1.111   1_556 S
C768   H811    1.112   .     S
C768   H809    1.087   .     S
C768   C773    1.511   .     S
C768   C769    1.530   .     S
C769   H808    1.107   .     S
C769   C771    1.528   .     S
C769   H807    1.111   .     S
C770   C775    1.415   .     A
C770   N818    1.387   .     A
C771   H804    1.111   .     S
C771   H805    1.111   .     S
C772   C776    1.421   .     A
C772   N817    1.408   .     A
C773   N818    1.387   .     A
C774   H816    1.083   .     S
C775   H778    1.083   .     S
C776   H779    1.083   .     S
H781   C25     1.108   1_556 S
H782   C25     1.111   1_556 S
H806   C35     1.110   1_556 S
N817   Zn828   2.040   .     S
N818   Zn827   2.040   .     S
O819   Zn827   2.001   .     S
O820   Zn828   2.001   .     S
O821   Zn827   2.001   .     S
O822   Zn828   2.001   .     S
O823   Zn827   1.941   .     S
O824   Zn828   1.941   .     S
O825   Zn827   1.941   .     S
O826   Zn828   1.941   .     S
C829   C846    1.438   .     S
C829   O911    1.300   .     A
C829   O914    1.300   .     A
C830   H872    1.083   .     S
C830   C834    1.398   .     A
C830   C865    1.415   .     A
C831   O918    1.289   .     A
C831   O915    1.286   .     A
C831   C835    1.361   .     S
C832   C836    1.361   .     S
C832   O917    1.286   .     A
C832   O916    1.289   .     A
C833   C866    1.385   .     A
C833   C868    1.385   .     A
C833   C1018   1.517   1_545 S
C834   C867    1.398   .     A
C834   C1017   1.517   .     S
C836   C99     1.163   1_556 S
C837   C842    1.380   .     A
C837   C848    1.399   .     A
C837   H869    1.083   .     S
C838   H880    1.083   .     S
C838   C843    1.381   .     A
C838   C849    1.399   .     A
C839   H891    1.083   .     S
C839   C849    1.399   .     A
C839   C844    1.380   .     A
C840   O913    1.300   .     A
C840   O912    1.300   .     A
C840   C847    1.438   .     S
C841   H902    1.083   .     S
C841   C848    1.399   .     A
C841   C845    1.381   .     A
C842   C846    1.399   .     A
C842   H904    1.083   .     S
C843   H905    1.084   .     S
C843   C847    1.399   .     A
C844   C847    1.399   .     A
C844   H906    1.083   .     S
C845   H907    1.084   .     S
C845   C846    1.399   .     A
C849   C756    1.444   1_655 S
C850   H878    1.099   .     S
C850   C852    1.536   .     S
C850   C851    1.522   .     S
C850   H879    1.113   .     S
C851   N909    1.408   .     A
C851   C866    1.421   .     A
C852   H876    1.112   .     S
C852   C853    1.527   .     S
C852   H877    1.100   .     S
C853   H875    1.110   .     S
C854   C862    1.511   .     S
C854   H887    1.112   .     S
C854   C855    1.530   .     S
C854   H886    1.087   .     S
C855   H885    1.107   .     S
C855   H884    1.111   .     S
C855   C856    1.528   .     S
C856   H882    1.111   .     S
C856   H881    1.111   .     S
C856   H147    1.110   1_556 S
C857   C864    1.522   .     S
C857   H895    1.113   .     S
C857   C858    1.536   .     S
C857   H894    1.099   .     S
C858   H892    1.112   .     S
C858   C859    1.527   .     S
C858   H893    1.100   .     S
C859   H890    1.110   .     S
C859   H152    1.108   1_556 S
C859   H153    1.111   1_556 S
C860   H903    1.112   .     S
C860   H901    1.087   .     S
C860   C865    1.511   .     S
C860   C861    1.530   .     S
C861   H900    1.107   .     S
C861   C863    1.528   .     S
C861   H899    1.111   .     S
C862   C867    1.415   .     A
C862   N910    1.387   .     A
C863   H896    1.111   .     S
C863   H897    1.111   .     S
C864   C868    1.421   .     A
C864   N909    1.408   .     A
C865   N910    1.387   .     A
C866   H908    1.083   .     S
C867   H870    1.083   .     S
C868   H871    1.083   .     S
H873   C117    1.108   1_556 S
H874   C117    1.111   1_556 S
H898   C127    1.110   1_556 S
N909   Zn920   2.040   .     S
N910   Zn919   2.040   .     S
O911   Zn919   2.001   .     S
O912   Zn920   2.001   .     S
O913   Zn919   2.001   .     S
O914   Zn920   2.001   .     S
O915   Zn919   1.941   .     S
O916   Zn920   1.941   .     S
O917   Zn919   1.941   .     S
O918   Zn920   1.941   .     S
C921   C938    1.438   .     S
C921   O1003   1.300   .     A
C921   O1006   1.300   .     A
C922   H964    1.083   .     S
C922   C926    1.398   .     A
C922   C957    1.415   .     A
C923   O1010   1.289   .     A
C923   O1007   1.286   .     A
C923   C927    1.361   .     S
C924   C928    1.361   .     S
C924   O1009   1.286   .     A
C924   O1008   1.289   .     A
C925   C958    1.385   .     A
C925   C960    1.385   .     A
C926   C959    1.398   .     A
C926   C741    1.517   1_565 S
C928   C191    1.163   1_556 S
C929   C934    1.380   .     A
C929   C940    1.399   .     A
C929   H961    1.083   .     S
C930   H972    1.083   .     S
C930   C935    1.381   .     A
C930   C941    1.399   .     A
C931   H983    1.083   .     S
C931   C941    1.399   .     A
C931   C936    1.380   .     A
C932   O1005   1.300   .     A
C932   O1004   1.300   .     A
C932   C939    1.438   .     S
C933   H994    1.083   .     S
C933   C940    1.399   .     A
C933   C937    1.381   .     A
C934   C938    1.399   .     A
C934   H996    1.083   .     S
C935   H997    1.084   .     S
C935   C939    1.399   .     A
C936   C939    1.399   .     A
C936   H998    1.083   .     S
C937   H999    1.084   .     S
C937   C938    1.399   .     A
C940   C1033   1.444   1_455 S
C941   C1032   1.444   .     S
C942   H970    1.099   .     S
C942   C944    1.536   .     S
C942   C943    1.522   .     S
C942   H971    1.113   .     S
C943   N1001   1.408   .     A
C943   C958    1.421   .     A
C944   H968    1.112   .     S
C944   C945    1.527   .     S
C944   H969    1.100   .     S
C945   H967    1.110   .     S
C946   C954    1.511   .     S
C946   H979    1.112   .     S
C946   C947    1.530   .     S
C946   H978    1.087   .     S
C947   H977    1.107   .     S
C947   H976    1.111   .     S
C947   C948    1.528   .     S
C948   H974    1.111   .     S
C948   H973    1.111   .     S
C948   H239    1.110   1_556 S
C949   C956    1.522   .     S
C949   H987    1.113   .     S
C949   C950    1.536   .     S
C949   H986    1.099   .     S
C950   H984    1.112   .     S
C950   C951    1.527   .     S
C950   H985    1.100   .     S
C951   H982    1.110   .     S
C951   H244    1.108   1_556 S
C951   H245    1.111   1_556 S
C952   H995    1.112   .     S
C952   H993    1.087   .     S
C952   C957    1.511   .     S
C952   C953    1.530   .     S
C953   H992    1.107   .     S
C953   C955    1.528   .     S
C953   H991    1.111   .     S
C954   C959    1.415   .     A
C954   N1002   1.387   .     A
C955   H988    1.111   .     S
C955   H989    1.111   .     S
C956   C960    1.421   .     A
C956   N1001   1.408   .     A
C957   N1002   1.387   .     A
C958   H1000   1.083   .     S
C959   H962    1.083   .     S
C960   H963    1.083   .     S
H965   C209    1.108   1_556 S
H966   C209    1.111   1_556 S
H990   C219    1.110   1_556 S
N1001  Zn1012  2.040   .     S
N1002  Zn1011  2.040   .     S
O1003  Zn1011  2.001   .     S
O1004  Zn1012  2.001   .     S
O1005  Zn1011  2.001   .     S
O1006  Zn1012  2.001   .     S
O1007  Zn1011  1.941   .     S
O1008  Zn1012  1.941   .     S
O1009  Zn1011  1.941   .     S
O1010  Zn1012  1.941   .     S
C1013  C1030   1.438   .     S
C1013  O1095   1.300   .     A
C1013  O1098   1.300   .     A
C1014  H1056   1.083   .     S
C1014  C1018   1.398   .     A
C1014  C1049   1.415   .     A
C1015  O1102   1.289   .     A
C1015  O1099   1.286   .     A
C1015  C1019   1.361   .     S
C1016  C1020   1.361   .     S
C1016  O1101   1.286   .     A
C1016  O1100   1.289   .     A
C1017  C1050   1.385   .     A
C1017  C1052   1.385   .     A
C1018  C1051   1.398   .     A
C1018  C833    1.517   1_565 S
C1020  C283    1.163   1_556 S
C1021  C1026   1.380   .     A
C1021  C1032   1.399   .     A
C1021  H1053   1.083   .     S
C1022  H1064   1.083   .     S
C1022  C1027   1.381   .     A
C1022  C1033   1.399   .     A
C1023  H1075   1.083   .     S
C1023  C1033   1.399   .     A
C1023  C1028   1.380   .     A
C1024  O1097   1.300   .     A
C1024  O1096   1.300   .     A
C1024  C1031   1.438   .     S
C1025  H1086   1.083   .     S
C1025  C1032   1.399   .     A
C1025  C1029   1.381   .     A
C1026  C1030   1.399   .     A
C1026  H1088   1.083   .     S
C1027  H1089   1.084   .     S
C1027  C1031   1.399   .     A
C1028  C1031   1.399   .     A
C1028  H1090   1.083   .     S
C1029  H1091   1.084   .     S
C1029  C1030   1.399   .     A
C1033  C940    1.444   1_655 S
C1034  H1062   1.099   .     S
C1034  C1036   1.536   .     S
C1034  C1035   1.522   .     S
C1034  H1063   1.113   .     S
C1035  N1093   1.408   .     A
C1035  C1050   1.421   .     A
C1036  H1060   1.112   .     S
C1036  C1037   1.527   .     S
C1036  H1061   1.100   .     S
C1037  H1059   1.110   .     S
C1038  C1046   1.511   .     S
C1038  H1071   1.112   .     S
C1038  C1039   1.530   .     S
C1038  H1070   1.087   .     S
C1039  H1069   1.107   .     S
C1039  H1068   1.111   .     S
C1039  C1040   1.528   .     S
C1040  H1066   1.111   .     S
C1040  H1065   1.111   .     S
C1040  H331    1.110   1_556 S
C1041  C1048   1.522   .     S
C1041  H1079   1.113   .     S
C1041  C1042   1.536   .     S
C1041  H1078   1.099   .     S
C1042  H1076   1.112   .     S
C1042  C1043   1.527   .     S
C1042  H1077   1.100   .     S
C1043  H1074   1.110   .     S
C1043  H336    1.108   1_556 S
C1043  H337    1.111   1_556 S
C1044  H1087   1.112   .     S
C1044  H1085   1.087   .     S
C1044  C1049   1.511   .     S
C1044  C1045   1.530   .     S
C1045  H1084   1.107   .     S
C1045  C1047   1.528   .     S
C1045  H1083   1.111   .     S
C1046  C1051   1.415   .     A
C1046  N1094   1.387   .     A
C1047  H1080   1.111   .     S
C1047  H1081   1.111   .     S
C1048  C1052   1.421   .     A
C1048  N1093   1.408   .     A
C1049  N1094   1.387   .     A
C1050  H1092   1.083   .     S
C1051  H1054   1.083   .     S
C1052  H1055   1.083   .     S
H1057  C301    1.108   1_556 S
H1058  C301    1.111   1_556 S
H1082  C311    1.110   1_556 S
N1093  Zn1104  2.040   .     S
N1094  Zn1103  2.040   .     S
O1095  Zn1103  2.001   .     S
O1096  Zn1104  2.001   .     S
O1097  Zn1103  2.001   .     S
O1098  Zn1104  2.001   .     S
O1099  Zn1103  1.941   .     S
O1100  Zn1104  1.941   .     S
O1101  Zn1103  1.941   .     S
O1102  Zn1104  1.941   .     S
