data_str_m2_o1_o2_pcu_sym.63
_audit_creation_date              2020-01-03
_audit_creation_method            'Materials Studio'
_symmetry_space_group_name_H-M    'P1'
_symmetry_Int_Tables_number       1
_symmetry_cell_setting            triclinic
loop_
_symmetry_equiv_pos_as_xyz
  x,y,z
_cell_length_a                    32.4975
_cell_length_b                    28.5146
_cell_length_c                    30.3337
_cell_angle_alpha                 90.2536
_cell_angle_beta                  90.1841
_cell_angle_gamma                 90.0050
loop_
_atom_site_label
_atom_site_type_symbol
_atom_site_fract_x
_atom_site_fract_y
_atom_site_fract_z
_atom_site_U_iso_or_equiv
_atom_site_adp_type
_atom_site_occupancy
O1     O     0.10655   0.20625   0.25000   0.00000  Uiso   1.00
O2     O     0.22679   0.12709   0.25001   0.00000  Uiso   1.00
O3     O     0.22679   0.20625   0.25001   0.00000  Uiso   1.00
O4     O     0.10655   0.12709   0.25000   0.00000  Uiso   1.00
N5     N     0.16667   0.28402   0.25000   0.00000  Uiso   1.00
N6     N     0.16667   0.04931   0.25000   0.00000  Uiso   1.00
C7     C     0.08734   0.16666   0.24996   0.00000  Uiso   1.00
C8     C     0.24599   0.16667   0.25004   0.00000  Uiso   1.00
O9     O     0.16666   0.20626   0.18573   0.00000  Uiso   1.00
O10    O     0.16667   0.12707   0.31427   0.00000  Uiso   1.00
O11    O     0.16667   0.20626   0.31427   0.00000  Uiso   1.00
O12    O     0.16666   0.12707   0.18573   0.00000  Uiso   1.00
C13    C     0.16809   0.16651   0.16473   0.00000  Uiso   1.00
C14    C     0.16657   0.16677   0.33494   0.00000  Uiso   1.00
Cu15   Cu    0.16667   0.21355   0.25000   0.00000  Uiso   1.00
Cu16   Cu    0.16667   0.11978   0.25000   0.00000  Uiso   1.00
H17    H     0.11925   0.04333   0.20208   0.00000  Uiso   1.00
H18    H     0.21398   0.28999   0.29806   0.00000  Uiso   1.00
H19    H     0.21405   0.04378   0.29797   0.00000  Uiso   1.00
H20    H     0.11940   0.28954   0.20189   0.00000  Uiso   1.00
C21    C     0.14035   0.02469   0.22337   0.00000  Uiso   1.00
C22    C     0.19295   0.30864   0.27668   0.00000  Uiso   1.00
C23    C     0.19297   0.02495   0.27665   0.00000  Uiso   1.00
C24    C     0.14040   0.30838   0.22330   0.00000  Uiso   1.00
C25    C     0.02128   0.12405   0.25041   0.00000  Uiso   1.00
C26    C     0.31205   0.20929   0.24993   0.00000  Uiso   1.00
C27    C     0.31204   0.12405   0.25047   0.00000  Uiso   1.00
C28    C     0.02129   0.20929   0.24990   0.00000  Uiso   1.00
C29    C     0.17500   0.20829   0.04647   0.00000  Uiso   1.00
C30    C     0.19088   0.13533   0.45241   0.00000  Uiso   1.00
C31    C     0.14155   0.19898   0.45233   0.00000  Uiso   1.00
C32    C     0.15978   0.12538   0.04599   0.00000  Uiso   1.00
H33    H     0.18144   0.24026   0.02855   0.00000  Uiso   1.00
H34    H     0.21064   0.11156   0.47053   0.00000  Uiso   1.00
H35    H     0.12186   0.22293   0.47039   0.00000  Uiso   1.00
H36    H     0.15355   0.09329   0.02785   0.00000  Uiso   1.00
C37    C     0.17802   0.20815   0.09236   0.00000  Uiso   1.00
C38    C     0.19215   0.13561   0.40649   0.00000  Uiso   1.00
C39    C     0.14064   0.19863   0.40633   0.00000  Uiso   1.00
C40    C     0.16184   0.12420   0.09179   0.00000  Uiso   1.00
C41    C     0.17001   0.16610   0.11593   0.00000  Uiso   1.00
C42    C     0.16644   0.16703   0.38310   0.00000  Uiso   1.00
H43    H     0.03729   0.09073   0.25060   0.00000  Uiso   1.00
H44    H     0.29604   0.24261   0.24973   0.00000  Uiso   1.00
H45    H     0.29602   0.09074   0.25073   0.00000  Uiso   1.00
H46    H     0.03731   0.24260   0.24969   0.00000  Uiso   1.00
C47    C     0.16619   0.16713   0.02338   0.00000  Uiso   1.00
C48    C     0.16606   0.16710   0.47525   0.00000  Uiso   1.00
C49    C     0.29060   0.16667   0.25015   0.00000  Uiso   1.00
C50    C     0.04273   0.16667   0.25008   0.00000  Uiso   1.00
N51    N     0.19139   0.25038   0.11395   0.00000  Uiso   1.00
O52    O     0.22447   0.24991   0.13824   0.00000  Uiso   1.00
O53    O     0.17575   0.29050   0.10239   0.00000  Uiso   1.00
N54    N     0.22094   0.10535   0.38438   0.00000  Uiso   1.00
O55    O     0.24462   0.12190   0.35363   0.00000  Uiso   1.00
O56    O     0.22823   0.06358   0.39966   0.00000  Uiso   1.00
N57    N     0.11221   0.22909   0.38398   0.00000  Uiso   1.00
O58    O     0.08883   0.21276   0.35257   0.00000  Uiso   1.00
O59    O     0.10488   0.27083   0.39959   0.00000  Uiso   1.00
N60    N     0.15643   0.07976   0.11280   0.00000  Uiso   1.00
O61    O     0.12268   0.05618   0.10615   0.00000  Uiso   1.00
O62    O     0.18830   0.05841   0.12930   0.00000  Uiso   1.00
O63    O     0.43988   0.20625   0.25000   0.00000  Uiso   1.00
O64    O     0.56012   0.12709   0.25001   0.00000  Uiso   1.00
O65    O     0.56012   0.20625   0.25001   0.00000  Uiso   1.00
O66    O     0.43988   0.12709   0.25000   0.00000  Uiso   1.00
N67    N     0.50000   0.28402   0.25000   0.00000  Uiso   1.00
N68    N     0.50000   0.04931   0.25000   0.00000  Uiso   1.00
C69    C     0.42067   0.16666   0.24996   0.00000  Uiso   1.00
C70    C     0.57933   0.16667   0.25004   0.00000  Uiso   1.00
O71    O     0.50000   0.20626   0.18573   0.00000  Uiso   1.00
O72    O     0.50000   0.12707   0.31427   0.00000  Uiso   1.00
O73    O     0.50000   0.20626   0.31427   0.00000  Uiso   1.00
O74    O     0.50000   0.12707   0.18573   0.00000  Uiso   1.00
C75    C     0.50142   0.16651   0.16473   0.00000  Uiso   1.00
C76    C     0.49990   0.16677   0.33494   0.00000  Uiso   1.00
Cu77   Cu    0.50000   0.21355   0.25000   0.00000  Uiso   1.00
Cu78   Cu    0.50000   0.11978   0.25000   0.00000  Uiso   1.00
H79    H     0.45258   0.04333   0.20208   0.00000  Uiso   1.00
H80    H     0.54731   0.28999   0.29806   0.00000  Uiso   1.00
H81    H     0.54738   0.04378   0.29797   0.00000  Uiso   1.00
H82    H     0.45273   0.28954   0.20189   0.00000  Uiso   1.00
C83    C     0.47368   0.02469   0.22337   0.00000  Uiso   1.00
C84    C     0.52628   0.30864   0.27668   0.00000  Uiso   1.00
C85    C     0.52631   0.02495   0.27665   0.00000  Uiso   1.00
C86    C     0.47373   0.30838   0.22330   0.00000  Uiso   1.00
C87    C     0.35461   0.12405   0.25041   0.00000  Uiso   1.00
C88    C     0.64539   0.20929   0.24993   0.00000  Uiso   1.00
C89    C     0.64537   0.12405   0.25047   0.00000  Uiso   1.00
C90    C     0.35462   0.20929   0.24990   0.00000  Uiso   1.00
C91    C     0.50833   0.20829   0.04647   0.00000  Uiso   1.00
C92    C     0.52422   0.13533   0.45241   0.00000  Uiso   1.00
C93    C     0.47488   0.19898   0.45233   0.00000  Uiso   1.00
C94    C     0.49312   0.12538   0.04599   0.00000  Uiso   1.00
H95    H     0.51477   0.24026   0.02855   0.00000  Uiso   1.00
H96    H     0.54397   0.11156   0.47053   0.00000  Uiso   1.00
H97    H     0.45519   0.22293   0.47039   0.00000  Uiso   1.00
H98    H     0.48688   0.09329   0.02785   0.00000  Uiso   1.00
C99    C     0.51135   0.20815   0.09236   0.00000  Uiso   1.00
C100   C     0.52549   0.13561   0.40649   0.00000  Uiso   1.00
C101   C     0.47397   0.19863   0.40633   0.00000  Uiso   1.00
C102   C     0.49517   0.12420   0.09179   0.00000  Uiso   1.00
C103   C     0.50334   0.16610   0.11593   0.00000  Uiso   1.00
C104   C     0.49977   0.16703   0.38310   0.00000  Uiso   1.00
H105   H     0.37062   0.09073   0.25060   0.00000  Uiso   1.00
H106   H     0.62937   0.24261   0.24973   0.00000  Uiso   1.00
H107   H     0.62935   0.09074   0.25073   0.00000  Uiso   1.00
H108   H     0.37064   0.24260   0.24969   0.00000  Uiso   1.00
C109   C     0.49952   0.16713   0.02338   0.00000  Uiso   1.00
C110   C     0.49939   0.16710   0.47525   0.00000  Uiso   1.00
C111   C     0.62393   0.16667   0.25015   0.00000  Uiso   1.00
C112   C     0.37607   0.16667   0.25008   0.00000  Uiso   1.00
N113   N     0.52472   0.25038   0.11395   0.00000  Uiso   1.00
O114   O     0.55780   0.24991   0.13824   0.00000  Uiso   1.00
O115   O     0.50908   0.29050   0.10239   0.00000  Uiso   1.00
N116   N     0.55427   0.10535   0.38438   0.00000  Uiso   1.00
O117   O     0.57795   0.12190   0.35363   0.00000  Uiso   1.00
O118   O     0.56157   0.06358   0.39966   0.00000  Uiso   1.00
N119   N     0.44555   0.22909   0.38398   0.00000  Uiso   1.00
O120   O     0.42216   0.21276   0.35257   0.00000  Uiso   1.00
O121   O     0.43822   0.27083   0.39959   0.00000  Uiso   1.00
N122   N     0.48977   0.07976   0.11280   0.00000  Uiso   1.00
O123   O     0.45601   0.05618   0.10615   0.00000  Uiso   1.00
O124   O     0.52163   0.05841   0.12930   0.00000  Uiso   1.00
O125   O     0.77321   0.20625   0.25000   0.00000  Uiso   1.00
O126   O     0.89345   0.12709   0.25001   0.00000  Uiso   1.00
O127   O     0.89345   0.20625   0.25001   0.00000  Uiso   1.00
O128   O     0.77321   0.12709   0.25000   0.00000  Uiso   1.00
N129   N     0.83333   0.28402   0.25000   0.00000  Uiso   1.00
N130   N     0.83333   0.04931   0.25000   0.00000  Uiso   1.00
C131   C     0.75401   0.16666   0.24996   0.00000  Uiso   1.00
C132   C     0.91266   0.16667   0.25004   0.00000  Uiso   1.00
O133   O     0.83333   0.20626   0.18573   0.00000  Uiso   1.00
O134   O     0.83334   0.12707   0.31427   0.00000  Uiso   1.00
O135   O     0.83334   0.20626   0.31427   0.00000  Uiso   1.00
O136   O     0.83333   0.12707   0.18573   0.00000  Uiso   1.00
C137   C     0.83475   0.16651   0.16473   0.00000  Uiso   1.00
C138   C     0.83323   0.16677   0.33494   0.00000  Uiso   1.00
Cu139  Cu    0.83333   0.21355   0.25000   0.00000  Uiso   1.00
Cu140  Cu    0.83333   0.11978   0.25000   0.00000  Uiso   1.00
H141   H     0.78591   0.04333   0.20208   0.00000  Uiso   1.00
H142   H     0.88064   0.28999   0.29806   0.00000  Uiso   1.00
H143   H     0.88071   0.04378   0.29797   0.00000  Uiso   1.00
H144   H     0.78607   0.28954   0.20189   0.00000  Uiso   1.00
C145   C     0.80701   0.02469   0.22337   0.00000  Uiso   1.00
C146   C     0.85961   0.30864   0.27668   0.00000  Uiso   1.00
C147   C     0.85964   0.02495   0.27665   0.00000  Uiso   1.00
C148   C     0.80707   0.30838   0.22330   0.00000  Uiso   1.00
C149   C     0.68794   0.12405   0.25041   0.00000  Uiso   1.00
C150   C     0.97872   0.20929   0.24993   0.00000  Uiso   1.00
C151   C     0.97871   0.12405   0.25047   0.00000  Uiso   1.00
C152   C     0.68795   0.20929   0.24990   0.00000  Uiso   1.00
C153   C     0.84166   0.20829   0.04647   0.00000  Uiso   1.00
C154   C     0.85755   0.13533   0.45241   0.00000  Uiso   1.00
C155   C     0.80821   0.19898   0.45233   0.00000  Uiso   1.00
C156   C     0.82645   0.12538   0.04599   0.00000  Uiso   1.00
H157   H     0.84810   0.24026   0.02855   0.00000  Uiso   1.00
H158   H     0.87730   0.11156   0.47053   0.00000  Uiso   1.00
H159   H     0.78853   0.22293   0.47039   0.00000  Uiso   1.00
H160   H     0.82021   0.09329   0.02785   0.00000  Uiso   1.00
C161   C     0.84468   0.20815   0.09236   0.00000  Uiso   1.00
C162   C     0.85882   0.13561   0.40649   0.00000  Uiso   1.00
C163   C     0.80730   0.19863   0.40633   0.00000  Uiso   1.00
C164   C     0.82850   0.12420   0.09179   0.00000  Uiso   1.00
C165   C     0.83667   0.16610   0.11593   0.00000  Uiso   1.00
C166   C     0.83311   0.16703   0.38310   0.00000  Uiso   1.00
H167   H     0.70395   0.09073   0.25060   0.00000  Uiso   1.00
H168   H     0.96271   0.24261   0.24973   0.00000  Uiso   1.00
H169   H     0.96269   0.09074   0.25073   0.00000  Uiso   1.00
H170   H     0.70398   0.24260   0.24969   0.00000  Uiso   1.00
C171   C     0.83285   0.16713   0.02338   0.00000  Uiso   1.00
C172   C     0.83272   0.16710   0.47525   0.00000  Uiso   1.00
C173   C     0.95726   0.16667   0.25015   0.00000  Uiso   1.00
C174   C     0.70940   0.16667   0.25008   0.00000  Uiso   1.00
N175   N     0.85805   0.25038   0.11395   0.00000  Uiso   1.00
O176   O     0.89114   0.24991   0.13824   0.00000  Uiso   1.00
O177   O     0.84242   0.29050   0.10239   0.00000  Uiso   1.00
N178   N     0.88761   0.10535   0.38438   0.00000  Uiso   1.00
O179   O     0.91129   0.12190   0.35363   0.00000  Uiso   1.00
O180   O     0.89490   0.06358   0.39966   0.00000  Uiso   1.00
N181   N     0.77888   0.22909   0.38398   0.00000  Uiso   1.00
O182   O     0.75550   0.21276   0.35257   0.00000  Uiso   1.00
O183   O     0.77155   0.27083   0.39959   0.00000  Uiso   1.00
N184   N     0.82310   0.07976   0.11280   0.00000  Uiso   1.00
O185   O     0.78934   0.05618   0.10615   0.00000  Uiso   1.00
O186   O     0.85496   0.05841   0.12930   0.00000  Uiso   1.00
O187   O     0.10655   0.53958   0.25000   0.00000  Uiso   1.00
O188   O     0.22679   0.46042   0.25001   0.00000  Uiso   1.00
O189   O     0.22679   0.53958   0.25001   0.00000  Uiso   1.00
O190   O     0.10655   0.46042   0.25000   0.00000  Uiso   1.00
N191   N     0.16667   0.61736   0.25000   0.00000  Uiso   1.00
N192   N     0.16667   0.38264   0.25000   0.00000  Uiso   1.00
C193   C     0.08734   0.50000   0.24996   0.00000  Uiso   1.00
C194   C     0.24599   0.50000   0.25004   0.00000  Uiso   1.00
O195   O     0.16666   0.53959   0.18573   0.00000  Uiso   1.00
O196   O     0.16667   0.46041   0.31427   0.00000  Uiso   1.00
O197   O     0.16667   0.53959   0.31427   0.00000  Uiso   1.00
O198   O     0.16666   0.46041   0.18573   0.00000  Uiso   1.00
C199   C     0.16809   0.49984   0.16473   0.00000  Uiso   1.00
C200   C     0.16657   0.50011   0.33494   0.00000  Uiso   1.00
Cu201  Cu    0.16667   0.54689   0.25000   0.00000  Uiso   1.00
Cu202  Cu    0.16667   0.45311   0.25000   0.00000  Uiso   1.00
H203   H     0.11925   0.37667   0.20208   0.00000  Uiso   1.00
H204   H     0.21398   0.62333   0.29806   0.00000  Uiso   1.00
H205   H     0.21405   0.37711   0.29797   0.00000  Uiso   1.00
H206   H     0.11940   0.62288   0.20189   0.00000  Uiso   1.00
C207   C     0.14035   0.35802   0.22337   0.00000  Uiso   1.00
C208   C     0.19295   0.64197   0.27668   0.00000  Uiso   1.00
C209   C     0.19297   0.35828   0.27665   0.00000  Uiso   1.00
C210   C     0.14040   0.64172   0.22330   0.00000  Uiso   1.00
C211   C     0.02128   0.45738   0.25041   0.00000  Uiso   1.00
C212   C     0.31205   0.54262   0.24993   0.00000  Uiso   1.00
C213   C     0.31204   0.45739   0.25047   0.00000  Uiso   1.00
C214   C     0.02129   0.54262   0.24990   0.00000  Uiso   1.00
C215   C     0.17500   0.54163   0.04647   0.00000  Uiso   1.00
C216   C     0.19088   0.46867   0.45241   0.00000  Uiso   1.00
C217   C     0.14155   0.53232   0.45233   0.00000  Uiso   1.00
C218   C     0.15978   0.45871   0.04599   0.00000  Uiso   1.00
H219   H     0.18144   0.57359   0.02855   0.00000  Uiso   1.00
H220   H     0.21064   0.44489   0.47053   0.00000  Uiso   1.00
H221   H     0.12186   0.55626   0.47039   0.00000  Uiso   1.00
H222   H     0.15355   0.42662   0.02785   0.00000  Uiso   1.00
C223   C     0.17802   0.54148   0.09236   0.00000  Uiso   1.00
C224   C     0.19215   0.46894   0.40649   0.00000  Uiso   1.00
C225   C     0.14064   0.53196   0.40633   0.00000  Uiso   1.00
C226   C     0.16184   0.45753   0.09179   0.00000  Uiso   1.00
C227   C     0.17001   0.49944   0.11593   0.00000  Uiso   1.00
C228   C     0.16644   0.50036   0.38310   0.00000  Uiso   1.00
H229   H     0.03729   0.42406   0.25060   0.00000  Uiso   1.00
H230   H     0.29604   0.57594   0.24973   0.00000  Uiso   1.00
H231   H     0.29602   0.42407   0.25073   0.00000  Uiso   1.00
H232   H     0.03731   0.57594   0.24969   0.00000  Uiso   1.00
C233   C     0.16619   0.50046   0.02338   0.00000  Uiso   1.00
C234   C     0.16606   0.50043   0.47525   0.00000  Uiso   1.00
C235   C     0.29060   0.50001   0.25015   0.00000  Uiso   1.00
C236   C     0.04273   0.50000   0.25008   0.00000  Uiso   1.00
N237   N     0.19139   0.58372   0.11395   0.00000  Uiso   1.00
O238   O     0.22447   0.58324   0.13824   0.00000  Uiso   1.00
O239   O     0.17575   0.62383   0.10239   0.00000  Uiso   1.00
N240   N     0.22094   0.43868   0.38438   0.00000  Uiso   1.00
O241   O     0.24462   0.45523   0.35363   0.00000  Uiso   1.00
O242   O     0.22823   0.39692   0.39966   0.00000  Uiso   1.00
N243   N     0.11221   0.56242   0.38398   0.00000  Uiso   1.00
O244   O     0.08883   0.54609   0.35257   0.00000  Uiso   1.00
O245   O     0.10488   0.60416   0.39959   0.00000  Uiso   1.00
N246   N     0.15643   0.41309   0.11280   0.00000  Uiso   1.00
O247   O     0.12268   0.38951   0.10615   0.00000  Uiso   1.00
O248   O     0.18830   0.39174   0.12930   0.00000  Uiso   1.00
O249   O     0.43988   0.53958   0.25000   0.00000  Uiso   1.00
O250   O     0.56012   0.46042   0.25001   0.00000  Uiso   1.00
O251   O     0.56012   0.53958   0.25001   0.00000  Uiso   1.00
O252   O     0.43988   0.46042   0.25000   0.00000  Uiso   1.00
N253   N     0.50000   0.61736   0.25000   0.00000  Uiso   1.00
N254   N     0.50000   0.38264   0.25000   0.00000  Uiso   1.00
C255   C     0.42067   0.50000   0.24996   0.00000  Uiso   1.00
C256   C     0.57933   0.50000   0.25004   0.00000  Uiso   1.00
O257   O     0.50000   0.53959   0.18573   0.00000  Uiso   1.00
O258   O     0.50000   0.46041   0.31427   0.00000  Uiso   1.00
O259   O     0.50000   0.53959   0.31427   0.00000  Uiso   1.00
O260   O     0.50000   0.46041   0.18573   0.00000  Uiso   1.00
C261   C     0.50142   0.49984   0.16473   0.00000  Uiso   1.00
C262   C     0.49990   0.50011   0.33494   0.00000  Uiso   1.00
Cu263  Cu    0.50000   0.54689   0.25000   0.00000  Uiso   1.00
Cu264  Cu    0.50000   0.45311   0.25000   0.00000  Uiso   1.00
H265   H     0.45258   0.37667   0.20208   0.00000  Uiso   1.00
H266   H     0.54731   0.62333   0.29806   0.00000  Uiso   1.00
H267   H     0.54738   0.37711   0.29797   0.00000  Uiso   1.00
H268   H     0.45273   0.62288   0.20189   0.00000  Uiso   1.00
C269   C     0.47368   0.35802   0.22337   0.00000  Uiso   1.00
C270   C     0.52628   0.64197   0.27668   0.00000  Uiso   1.00
C271   C     0.52631   0.35828   0.27665   0.00000  Uiso   1.00
C272   C     0.47373   0.64172   0.22330   0.00000  Uiso   1.00
C273   C     0.35461   0.45738   0.25041   0.00000  Uiso   1.00
C274   C     0.64539   0.54262   0.24993   0.00000  Uiso   1.00
C275   C     0.64537   0.45739   0.25047   0.00000  Uiso   1.00
C276   C     0.35462   0.54262   0.24990   0.00000  Uiso   1.00
C277   C     0.50833   0.54163   0.04647   0.00000  Uiso   1.00
C278   C     0.52422   0.46867   0.45241   0.00000  Uiso   1.00
C279   C     0.47488   0.53232   0.45233   0.00000  Uiso   1.00
C280   C     0.49312   0.45871   0.04599   0.00000  Uiso   1.00
H281   H     0.51477   0.57359   0.02855   0.00000  Uiso   1.00
H282   H     0.54397   0.44489   0.47053   0.00000  Uiso   1.00
H283   H     0.45519   0.55626   0.47039   0.00000  Uiso   1.00
H284   H     0.48688   0.42662   0.02785   0.00000  Uiso   1.00
C285   C     0.51135   0.54148   0.09236   0.00000  Uiso   1.00
C286   C     0.52549   0.46894   0.40649   0.00000  Uiso   1.00
C287   C     0.47397   0.53196   0.40633   0.00000  Uiso   1.00
C288   C     0.49517   0.45753   0.09179   0.00000  Uiso   1.00
C289   C     0.50334   0.49944   0.11593   0.00000  Uiso   1.00
C290   C     0.49977   0.50036   0.38310   0.00000  Uiso   1.00
H291   H     0.37062   0.42406   0.25060   0.00000  Uiso   1.00
H292   H     0.62937   0.57594   0.24973   0.00000  Uiso   1.00
H293   H     0.62935   0.42407   0.25073   0.00000  Uiso   1.00
H294   H     0.37064   0.57594   0.24969   0.00000  Uiso   1.00
C295   C     0.49952   0.50046   0.02338   0.00000  Uiso   1.00
C296   C     0.49939   0.50043   0.47525   0.00000  Uiso   1.00
C297   C     0.62393   0.50001   0.25015   0.00000  Uiso   1.00
C298   C     0.37607   0.50000   0.25008   0.00000  Uiso   1.00
N299   N     0.52472   0.58372   0.11395   0.00000  Uiso   1.00
O300   O     0.55780   0.58324   0.13824   0.00000  Uiso   1.00
O301   O     0.50908   0.62383   0.10239   0.00000  Uiso   1.00
N302   N     0.55427   0.43868   0.38438   0.00000  Uiso   1.00
O303   O     0.57795   0.45523   0.35363   0.00000  Uiso   1.00
O304   O     0.56157   0.39692   0.39966   0.00000  Uiso   1.00
N305   N     0.44555   0.56242   0.38398   0.00000  Uiso   1.00
O306   O     0.42216   0.54609   0.35257   0.00000  Uiso   1.00
O307   O     0.43822   0.60416   0.39959   0.00000  Uiso   1.00
N308   N     0.48977   0.41309   0.11280   0.00000  Uiso   1.00
O309   O     0.45601   0.38951   0.10615   0.00000  Uiso   1.00
O310   O     0.52163   0.39174   0.12930   0.00000  Uiso   1.00
O311   O     0.77321   0.53958   0.25000   0.00000  Uiso   1.00
O312   O     0.89345   0.46042   0.25001   0.00000  Uiso   1.00
O313   O     0.89345   0.53958   0.25001   0.00000  Uiso   1.00
O314   O     0.77321   0.46042   0.25000   0.00000  Uiso   1.00
N315   N     0.83333   0.61736   0.25000   0.00000  Uiso   1.00
N316   N     0.83333   0.38264   0.25000   0.00000  Uiso   1.00
C317   C     0.75401   0.50000   0.24996   0.00000  Uiso   1.00
C318   C     0.91266   0.50000   0.25004   0.00000  Uiso   1.00
O319   O     0.83333   0.53959   0.18573   0.00000  Uiso   1.00
O320   O     0.83334   0.46041   0.31427   0.00000  Uiso   1.00
O321   O     0.83334   0.53959   0.31427   0.00000  Uiso   1.00
O322   O     0.83333   0.46041   0.18573   0.00000  Uiso   1.00
C323   C     0.83475   0.49984   0.16473   0.00000  Uiso   1.00
C324   C     0.83323   0.50011   0.33494   0.00000  Uiso   1.00
Cu325  Cu    0.83333   0.54689   0.25000   0.00000  Uiso   1.00
Cu326  Cu    0.83333   0.45311   0.25000   0.00000  Uiso   1.00
H327   H     0.78591   0.37667   0.20208   0.00000  Uiso   1.00
H328   H     0.88064   0.62333   0.29806   0.00000  Uiso   1.00
H329   H     0.88071   0.37711   0.29797   0.00000  Uiso   1.00
H330   H     0.78607   0.62288   0.20189   0.00000  Uiso   1.00
C331   C     0.80701   0.35802   0.22337   0.00000  Uiso   1.00
C332   C     0.85961   0.64197   0.27668   0.00000  Uiso   1.00
C333   C     0.85964   0.35828   0.27665   0.00000  Uiso   1.00
C334   C     0.80707   0.64172   0.22330   0.00000  Uiso   1.00
C335   C     0.68794   0.45738   0.25041   0.00000  Uiso   1.00
C336   C     0.97872   0.54262   0.24993   0.00000  Uiso   1.00
C337   C     0.97871   0.45739   0.25047   0.00000  Uiso   1.00
C338   C     0.68795   0.54262   0.24990   0.00000  Uiso   1.00
C339   C     0.84166   0.54163   0.04647   0.00000  Uiso   1.00
C340   C     0.85755   0.46867   0.45241   0.00000  Uiso   1.00
C341   C     0.80821   0.53232   0.45233   0.00000  Uiso   1.00
C342   C     0.82645   0.45871   0.04599   0.00000  Uiso   1.00
H343   H     0.84810   0.57359   0.02855   0.00000  Uiso   1.00
H344   H     0.87730   0.44489   0.47053   0.00000  Uiso   1.00
H345   H     0.78853   0.55626   0.47039   0.00000  Uiso   1.00
H346   H     0.82021   0.42662   0.02785   0.00000  Uiso   1.00
C347   C     0.84468   0.54148   0.09236   0.00000  Uiso   1.00
C348   C     0.85882   0.46894   0.40649   0.00000  Uiso   1.00
C349   C     0.80730   0.53196   0.40633   0.00000  Uiso   1.00
C350   C     0.82850   0.45753   0.09179   0.00000  Uiso   1.00
C351   C     0.83667   0.49944   0.11593   0.00000  Uiso   1.00
C352   C     0.83311   0.50036   0.38310   0.00000  Uiso   1.00
H353   H     0.70395   0.42406   0.25060   0.00000  Uiso   1.00
H354   H     0.96271   0.57594   0.24973   0.00000  Uiso   1.00
H355   H     0.96269   0.42407   0.25073   0.00000  Uiso   1.00
H356   H     0.70398   0.57594   0.24969   0.00000  Uiso   1.00
C357   C     0.83285   0.50046   0.02338   0.00000  Uiso   1.00
C358   C     0.83272   0.50043   0.47525   0.00000  Uiso   1.00
C359   C     0.95726   0.50001   0.25015   0.00000  Uiso   1.00
C360   C     0.70940   0.50000   0.25008   0.00000  Uiso   1.00
N361   N     0.85805   0.58372   0.11395   0.00000  Uiso   1.00
O362   O     0.89114   0.58324   0.13824   0.00000  Uiso   1.00
O363   O     0.84242   0.62383   0.10239   0.00000  Uiso   1.00
N364   N     0.88761   0.43868   0.38438   0.00000  Uiso   1.00
O365   O     0.91129   0.45523   0.35363   0.00000  Uiso   1.00
O366   O     0.89490   0.39692   0.39966   0.00000  Uiso   1.00
N367   N     0.77888   0.56242   0.38398   0.00000  Uiso   1.00
O368   O     0.75550   0.54609   0.35257   0.00000  Uiso   1.00
O369   O     0.77155   0.60416   0.39959   0.00000  Uiso   1.00
N370   N     0.82310   0.41309   0.11280   0.00000  Uiso   1.00
O371   O     0.78934   0.38951   0.10615   0.00000  Uiso   1.00
O372   O     0.85496   0.39174   0.12930   0.00000  Uiso   1.00
O373   O     0.10655   0.87291   0.25000   0.00000  Uiso   1.00
O374   O     0.22679   0.79375   0.25001   0.00000  Uiso   1.00
O375   O     0.22679   0.87291   0.25001   0.00000  Uiso   1.00
O376   O     0.10655   0.79375   0.25000   0.00000  Uiso   1.00
N377   N     0.16667   0.95069   0.25000   0.00000  Uiso   1.00
N378   N     0.16667   0.71598   0.25000   0.00000  Uiso   1.00
C379   C     0.08734   0.83333   0.24996   0.00000  Uiso   1.00
C380   C     0.24599   0.83334   0.25004   0.00000  Uiso   1.00
O381   O     0.16666   0.87293   0.18573   0.00000  Uiso   1.00
O382   O     0.16667   0.79374   0.31427   0.00000  Uiso   1.00
O383   O     0.16667   0.87293   0.31427   0.00000  Uiso   1.00
O384   O     0.16666   0.79374   0.18573   0.00000  Uiso   1.00
C385   C     0.16809   0.83317   0.16473   0.00000  Uiso   1.00
C386   C     0.16657   0.83344   0.33494   0.00000  Uiso   1.00
Cu387  Cu    0.16667   0.88022   0.25000   0.00000  Uiso   1.00
Cu388  Cu    0.16667   0.78645   0.25000   0.00000  Uiso   1.00
H389   H     0.11925   0.71000   0.20208   0.00000  Uiso   1.00
H390   H     0.21398   0.95666   0.29806   0.00000  Uiso   1.00
H391   H     0.21405   0.71044   0.29797   0.00000  Uiso   1.00
H392   H     0.11940   0.95621   0.20189   0.00000  Uiso   1.00
C393   C     0.14035   0.69136   0.22337   0.00000  Uiso   1.00
C394   C     0.19295   0.97530   0.27668   0.00000  Uiso   1.00
C395   C     0.19297   0.69161   0.27665   0.00000  Uiso   1.00
C396   C     0.14040   0.97505   0.22330   0.00000  Uiso   1.00
C397   C     0.02128   0.79072   0.25041   0.00000  Uiso   1.00
C398   C     0.31205   0.87596   0.24993   0.00000  Uiso   1.00
C399   C     0.31204   0.79072   0.25047   0.00000  Uiso   1.00
C400   C     0.02129   0.87595   0.24990   0.00000  Uiso   1.00
C401   C     0.17500   0.87496   0.04647   0.00000  Uiso   1.00
C402   C     0.19088   0.80200   0.45241   0.00000  Uiso   1.00
C403   C     0.14155   0.86565   0.45233   0.00000  Uiso   1.00
C404   C     0.15978   0.79204   0.04599   0.00000  Uiso   1.00
H405   H     0.18144   0.90693   0.02855   0.00000  Uiso   1.00
H406   H     0.21064   0.77822   0.47053   0.00000  Uiso   1.00
H407   H     0.12186   0.88960   0.47039   0.00000  Uiso   1.00
H408   H     0.15355   0.75995   0.02785   0.00000  Uiso   1.00
C409   C     0.17802   0.87481   0.09236   0.00000  Uiso   1.00
C410   C     0.19215   0.80227   0.40649   0.00000  Uiso   1.00
C411   C     0.14064   0.86529   0.40633   0.00000  Uiso   1.00
C412   C     0.16184   0.79086   0.09179   0.00000  Uiso   1.00
C413   C     0.17001   0.83277   0.11593   0.00000  Uiso   1.00
C414   C     0.16644   0.83369   0.38310   0.00000  Uiso   1.00
H415   H     0.03729   0.75740   0.25060   0.00000  Uiso   1.00
H416   H     0.29604   0.90928   0.24973   0.00000  Uiso   1.00
H417   H     0.29602   0.75740   0.25073   0.00000  Uiso   1.00
H418   H     0.03731   0.90927   0.24969   0.00000  Uiso   1.00
C419   C     0.16619   0.83379   0.02338   0.00000  Uiso   1.00
C420   C     0.16606   0.83376   0.47525   0.00000  Uiso   1.00
C421   C     0.29060   0.83334   0.25015   0.00000  Uiso   1.00
C422   C     0.04273   0.83333   0.25008   0.00000  Uiso   1.00
N423   N     0.19139   0.91705   0.11395   0.00000  Uiso   1.00
O424   O     0.22447   0.91658   0.13824   0.00000  Uiso   1.00
O425   O     0.17575   0.95717   0.10239   0.00000  Uiso   1.00
N426   N     0.22094   0.77202   0.38438   0.00000  Uiso   1.00
O427   O     0.24462   0.78857   0.35363   0.00000  Uiso   1.00
O428   O     0.22823   0.73025   0.39966   0.00000  Uiso   1.00
N429   N     0.11221   0.89575   0.38398   0.00000  Uiso   1.00
O430   O     0.08883   0.87943   0.35257   0.00000  Uiso   1.00
O431   O     0.10488   0.93750   0.39959   0.00000  Uiso   1.00
N432   N     0.15643   0.74642   0.11280   0.00000  Uiso   1.00
O433   O     0.12268   0.72285   0.10615   0.00000  Uiso   1.00
O434   O     0.18830   0.72507   0.12930   0.00000  Uiso   1.00
O435   O     0.43988   0.87291   0.25000   0.00000  Uiso   1.00
O436   O     0.56012   0.79375   0.25001   0.00000  Uiso   1.00
O437   O     0.56012   0.87291   0.25001   0.00000  Uiso   1.00
O438   O     0.43988   0.79375   0.25000   0.00000  Uiso   1.00
N439   N     0.50000   0.95069   0.25000   0.00000  Uiso   1.00
N440   N     0.50000   0.71598   0.25000   0.00000  Uiso   1.00
C441   C     0.42067   0.83333   0.24996   0.00000  Uiso   1.00
C442   C     0.57933   0.83334   0.25004   0.00000  Uiso   1.00
O443   O     0.50000   0.87293   0.18573   0.00000  Uiso   1.00
O444   O     0.50000   0.79374   0.31427   0.00000  Uiso   1.00
O445   O     0.50000   0.87293   0.31427   0.00000  Uiso   1.00
O446   O     0.50000   0.79374   0.18573   0.00000  Uiso   1.00
C447   C     0.50142   0.83317   0.16473   0.00000  Uiso   1.00
C448   C     0.49990   0.83344   0.33494   0.00000  Uiso   1.00
Cu449  Cu    0.50000   0.88022   0.25000   0.00000  Uiso   1.00
Cu450  Cu    0.50000   0.78645   0.25000   0.00000  Uiso   1.00
H451   H     0.45258   0.71000   0.20208   0.00000  Uiso   1.00
H452   H     0.54731   0.95666   0.29806   0.00000  Uiso   1.00
H453   H     0.54738   0.71044   0.29797   0.00000  Uiso   1.00
H454   H     0.45273   0.95621   0.20189   0.00000  Uiso   1.00
C455   C     0.47368   0.69136   0.22337   0.00000  Uiso   1.00
C456   C     0.52628   0.97530   0.27668   0.00000  Uiso   1.00
C457   C     0.52631   0.69161   0.27665   0.00000  Uiso   1.00
C458   C     0.47373   0.97505   0.22330   0.00000  Uiso   1.00
C459   C     0.35461   0.79072   0.25041   0.00000  Uiso   1.00
C460   C     0.64539   0.87596   0.24993   0.00000  Uiso   1.00
C461   C     0.64537   0.79072   0.25047   0.00000  Uiso   1.00
C462   C     0.35462   0.87595   0.24990   0.00000  Uiso   1.00
C463   C     0.50833   0.87496   0.04647   0.00000  Uiso   1.00
C464   C     0.52422   0.80200   0.45241   0.00000  Uiso   1.00
C465   C     0.47488   0.86565   0.45233   0.00000  Uiso   1.00
C466   C     0.49312   0.79204   0.04599   0.00000  Uiso   1.00
H467   H     0.51477   0.90693   0.02855   0.00000  Uiso   1.00
H468   H     0.54397   0.77822   0.47053   0.00000  Uiso   1.00
H469   H     0.45519   0.88960   0.47039   0.00000  Uiso   1.00
H470   H     0.48688   0.75995   0.02785   0.00000  Uiso   1.00
C471   C     0.51135   0.87481   0.09236   0.00000  Uiso   1.00
C472   C     0.52549   0.80227   0.40649   0.00000  Uiso   1.00
C473   C     0.47397   0.86529   0.40633   0.00000  Uiso   1.00
C474   C     0.49517   0.79086   0.09179   0.00000  Uiso   1.00
C475   C     0.50334   0.83277   0.11593   0.00000  Uiso   1.00
C476   C     0.49977   0.83369   0.38310   0.00000  Uiso   1.00
H477   H     0.37062   0.75740   0.25060   0.00000  Uiso   1.00
H478   H     0.62937   0.90928   0.24973   0.00000  Uiso   1.00
H479   H     0.62935   0.75740   0.25073   0.00000  Uiso   1.00
H480   H     0.37064   0.90927   0.24969   0.00000  Uiso   1.00
C481   C     0.49952   0.83379   0.02338   0.00000  Uiso   1.00
C482   C     0.49939   0.83376   0.47525   0.00000  Uiso   1.00
C483   C     0.62393   0.83334   0.25015   0.00000  Uiso   1.00
C484   C     0.37607   0.83333   0.25008   0.00000  Uiso   1.00
N485   N     0.52472   0.91705   0.11395   0.00000  Uiso   1.00
O486   O     0.55780   0.91658   0.13824   0.00000  Uiso   1.00
O487   O     0.50908   0.95717   0.10239   0.00000  Uiso   1.00
N488   N     0.55427   0.77202   0.38438   0.00000  Uiso   1.00
O489   O     0.57795   0.78857   0.35363   0.00000  Uiso   1.00
O490   O     0.56157   0.73025   0.39966   0.00000  Uiso   1.00
N491   N     0.44555   0.89575   0.38398   0.00000  Uiso   1.00
O492   O     0.42216   0.87943   0.35257   0.00000  Uiso   1.00
O493   O     0.43822   0.93750   0.39959   0.00000  Uiso   1.00
N494   N     0.48977   0.74642   0.11280   0.00000  Uiso   1.00
O495   O     0.45601   0.72285   0.10615   0.00000  Uiso   1.00
O496   O     0.52163   0.72507   0.12930   0.00000  Uiso   1.00
O497   O     0.77321   0.87291   0.25000   0.00000  Uiso   1.00
O498   O     0.89345   0.79375   0.25001   0.00000  Uiso   1.00
O499   O     0.89345   0.87291   0.25001   0.00000  Uiso   1.00
O500   O     0.77321   0.79375   0.25000   0.00000  Uiso   1.00
N501   N     0.83333   0.95069   0.25000   0.00000  Uiso   1.00
N502   N     0.83333   0.71598   0.25000   0.00000  Uiso   1.00
C503   C     0.75401   0.83333   0.24996   0.00000  Uiso   1.00
C504   C     0.91266   0.83334   0.25004   0.00000  Uiso   1.00
O505   O     0.83333   0.87293   0.18573   0.00000  Uiso   1.00
O506   O     0.83334   0.79374   0.31427   0.00000  Uiso   1.00
O507   O     0.83334   0.87293   0.31427   0.00000  Uiso   1.00
O508   O     0.83333   0.79374   0.18573   0.00000  Uiso   1.00
C509   C     0.83475   0.83317   0.16473   0.00000  Uiso   1.00
C510   C     0.83323   0.83344   0.33494   0.00000  Uiso   1.00
Cu511  Cu    0.83333   0.88022   0.25000   0.00000  Uiso   1.00
Cu512  Cu    0.83333   0.78645   0.25000   0.00000  Uiso   1.00
H513   H     0.78591   0.71000   0.20208   0.00000  Uiso   1.00
H514   H     0.88064   0.95666   0.29806   0.00000  Uiso   1.00
H515   H     0.88071   0.71044   0.29797   0.00000  Uiso   1.00
H516   H     0.78607   0.95621   0.20189   0.00000  Uiso   1.00
C517   C     0.80701   0.69136   0.22337   0.00000  Uiso   1.00
C518   C     0.85961   0.97530   0.27668   0.00000  Uiso   1.00
C519   C     0.85964   0.69161   0.27665   0.00000  Uiso   1.00
C520   C     0.80707   0.97505   0.22330   0.00000  Uiso   1.00
C521   C     0.68794   0.79072   0.25041   0.00000  Uiso   1.00
C522   C     0.97872   0.87596   0.24993   0.00000  Uiso   1.00
C523   C     0.97871   0.79072   0.25047   0.00000  Uiso   1.00
C524   C     0.68795   0.87595   0.24990   0.00000  Uiso   1.00
C525   C     0.84166   0.87496   0.04647   0.00000  Uiso   1.00
C526   C     0.85755   0.80200   0.45241   0.00000  Uiso   1.00
C527   C     0.80821   0.86565   0.45233   0.00000  Uiso   1.00
C528   C     0.82645   0.79204   0.04599   0.00000  Uiso   1.00
H529   H     0.84810   0.90693   0.02855   0.00000  Uiso   1.00
H530   H     0.87730   0.77822   0.47053   0.00000  Uiso   1.00
H531   H     0.78853   0.88960   0.47039   0.00000  Uiso   1.00
H532   H     0.82021   0.75995   0.02785   0.00000  Uiso   1.00
C533   C     0.84468   0.87481   0.09236   0.00000  Uiso   1.00
C534   C     0.85882   0.80227   0.40649   0.00000  Uiso   1.00
C535   C     0.80730   0.86529   0.40633   0.00000  Uiso   1.00
C536   C     0.82850   0.79086   0.09179   0.00000  Uiso   1.00
C537   C     0.83667   0.83277   0.11593   0.00000  Uiso   1.00
C538   C     0.83311   0.83369   0.38310   0.00000  Uiso   1.00
H539   H     0.70395   0.75740   0.25060   0.00000  Uiso   1.00
H540   H     0.96271   0.90928   0.24973   0.00000  Uiso   1.00
H541   H     0.96269   0.75740   0.25073   0.00000  Uiso   1.00
H542   H     0.70398   0.90927   0.24969   0.00000  Uiso   1.00
C543   C     0.83285   0.83379   0.02338   0.00000  Uiso   1.00
C544   C     0.83272   0.83376   0.47525   0.00000  Uiso   1.00
C545   C     0.95726   0.83334   0.25015   0.00000  Uiso   1.00
C546   C     0.70940   0.83333   0.25008   0.00000  Uiso   1.00
N547   N     0.85805   0.91705   0.11395   0.00000  Uiso   1.00
O548   O     0.89114   0.91658   0.13824   0.00000  Uiso   1.00
O549   O     0.84242   0.95717   0.10239   0.00000  Uiso   1.00
N550   N     0.88761   0.77202   0.38438   0.00000  Uiso   1.00
O551   O     0.91129   0.78857   0.35363   0.00000  Uiso   1.00
O552   O     0.89490   0.73025   0.39966   0.00000  Uiso   1.00
N553   N     0.77888   0.89575   0.38398   0.00000  Uiso   1.00
O554   O     0.75550   0.87943   0.35257   0.00000  Uiso   1.00
O555   O     0.77155   0.93750   0.39959   0.00000  Uiso   1.00
N556   N     0.82310   0.74642   0.11280   0.00000  Uiso   1.00
O557   O     0.78934   0.72285   0.10615   0.00000  Uiso   1.00
O558   O     0.85496   0.72507   0.12930   0.00000  Uiso   1.00
O559   O     0.10655   0.20625   0.75000   0.00000  Uiso   1.00
O560   O     0.22679   0.12709   0.75001   0.00000  Uiso   1.00
O561   O     0.22679   0.20625   0.75001   0.00000  Uiso   1.00
O562   O     0.10655   0.12709   0.75000   0.00000  Uiso   1.00
N563   N     0.16667   0.28402   0.75000   0.00000  Uiso   1.00
N564   N     0.16667   0.04931   0.75000   0.00000  Uiso   1.00
C565   C     0.08734   0.16666   0.74996   0.00000  Uiso   1.00
C566   C     0.24599   0.16667   0.75004   0.00000  Uiso   1.00
O567   O     0.16666   0.20626   0.68573   0.00000  Uiso   1.00
O568   O     0.16667   0.12707   0.81427   0.00000  Uiso   1.00
O569   O     0.16667   0.20626   0.81427   0.00000  Uiso   1.00
O570   O     0.16666   0.12707   0.68573   0.00000  Uiso   1.00
C571   C     0.16809   0.16651   0.66473   0.00000  Uiso   1.00
C572   C     0.16657   0.16677   0.83494   0.00000  Uiso   1.00
Cu573  Cu    0.16667   0.21355   0.75000   0.00000  Uiso   1.00
Cu574  Cu    0.16667   0.11978   0.75000   0.00000  Uiso   1.00
H575   H     0.11925   0.04333   0.70208   0.00000  Uiso   1.00
H576   H     0.21398   0.28999   0.79806   0.00000  Uiso   1.00
H577   H     0.21405   0.04378   0.79797   0.00000  Uiso   1.00
H578   H     0.11940   0.28954   0.70189   0.00000  Uiso   1.00
C579   C     0.14035   0.02469   0.72337   0.00000  Uiso   1.00
C580   C     0.19295   0.30864   0.77668   0.00000  Uiso   1.00
C581   C     0.19297   0.02495   0.77665   0.00000  Uiso   1.00
C582   C     0.14040   0.30838   0.72330   0.00000  Uiso   1.00
C583   C     0.02128   0.12405   0.75041   0.00000  Uiso   1.00
C584   C     0.31205   0.20929   0.74993   0.00000  Uiso   1.00
C585   C     0.31204   0.12405   0.75047   0.00000  Uiso   1.00
C586   C     0.02129   0.20929   0.74990   0.00000  Uiso   1.00
C587   C     0.17500   0.20829   0.54647   0.00000  Uiso   1.00
C588   C     0.19088   0.13533   0.95241   0.00000  Uiso   1.00
C589   C     0.14155   0.19898   0.95233   0.00000  Uiso   1.00
C590   C     0.15978   0.12538   0.54599   0.00000  Uiso   1.00
H591   H     0.18144   0.24026   0.52855   0.00000  Uiso   1.00
H592   H     0.21064   0.11156   0.97053   0.00000  Uiso   1.00
H593   H     0.12186   0.22293   0.97039   0.00000  Uiso   1.00
H594   H     0.15355   0.09329   0.52785   0.00000  Uiso   1.00
C595   C     0.17802   0.20815   0.59236   0.00000  Uiso   1.00
C596   C     0.19215   0.13561   0.90649   0.00000  Uiso   1.00
C597   C     0.14064   0.19863   0.90633   0.00000  Uiso   1.00
C598   C     0.16184   0.12420   0.59179   0.00000  Uiso   1.00
C599   C     0.17001   0.16610   0.61593   0.00000  Uiso   1.00
C600   C     0.16644   0.16703   0.88310   0.00000  Uiso   1.00
H601   H     0.03729   0.09073   0.75060   0.00000  Uiso   1.00
H602   H     0.29604   0.24261   0.74973   0.00000  Uiso   1.00
H603   H     0.29602   0.09074   0.75073   0.00000  Uiso   1.00
H604   H     0.03731   0.24260   0.74969   0.00000  Uiso   1.00
C605   C     0.16619   0.16713   0.52338   0.00000  Uiso   1.00
C606   C     0.16606   0.16710   0.97525   0.00000  Uiso   1.00
C607   C     0.29060   0.16667   0.75015   0.00000  Uiso   1.00
C608   C     0.04273   0.16667   0.75008   0.00000  Uiso   1.00
N609   N     0.19139   0.25038   0.61395   0.00000  Uiso   1.00
O610   O     0.22447   0.24991   0.63824   0.00000  Uiso   1.00
O611   O     0.17575   0.29050   0.60239   0.00000  Uiso   1.00
N612   N     0.22094   0.10535   0.88438   0.00000  Uiso   1.00
O613   O     0.24462   0.12190   0.85363   0.00000  Uiso   1.00
O614   O     0.22823   0.06358   0.89966   0.00000  Uiso   1.00
N615   N     0.11221   0.22909   0.88398   0.00000  Uiso   1.00
O616   O     0.08883   0.21276   0.85257   0.00000  Uiso   1.00
O617   O     0.10488   0.27083   0.89959   0.00000  Uiso   1.00
N618   N     0.15643   0.07976   0.61280   0.00000  Uiso   1.00
O619   O     0.12268   0.05618   0.60615   0.00000  Uiso   1.00
O620   O     0.18830   0.05841   0.62930   0.00000  Uiso   1.00
O621   O     0.43988   0.20625   0.75000   0.00000  Uiso   1.00
O622   O     0.56012   0.12709   0.75001   0.00000  Uiso   1.00
O623   O     0.56012   0.20625   0.75001   0.00000  Uiso   1.00
O624   O     0.43988   0.12709   0.75000   0.00000  Uiso   1.00
N625   N     0.50000   0.28402   0.75000   0.00000  Uiso   1.00
N626   N     0.50000   0.04931   0.75000   0.00000  Uiso   1.00
C627   C     0.42067   0.16666   0.74996   0.00000  Uiso   1.00
C628   C     0.57933   0.16667   0.75004   0.00000  Uiso   1.00
O629   O     0.50000   0.20626   0.68573   0.00000  Uiso   1.00
O630   O     0.50000   0.12707   0.81427   0.00000  Uiso   1.00
O631   O     0.50000   0.20626   0.81427   0.00000  Uiso   1.00
O632   O     0.50000   0.12707   0.68573   0.00000  Uiso   1.00
C633   C     0.50142   0.16651   0.66473   0.00000  Uiso   1.00
C634   C     0.49990   0.16677   0.83494   0.00000  Uiso   1.00
Cu635  Cu    0.50000   0.21355   0.75000   0.00000  Uiso   1.00
Cu636  Cu    0.50000   0.11978   0.75000   0.00000  Uiso   1.00
H637   H     0.45258   0.04333   0.70208   0.00000  Uiso   1.00
H638   H     0.54731   0.28999   0.79806   0.00000  Uiso   1.00
H639   H     0.54738   0.04378   0.79797   0.00000  Uiso   1.00
H640   H     0.45273   0.28954   0.70189   0.00000  Uiso   1.00
C641   C     0.47368   0.02469   0.72337   0.00000  Uiso   1.00
C642   C     0.52628   0.30864   0.77668   0.00000  Uiso   1.00
C643   C     0.52631   0.02495   0.77665   0.00000  Uiso   1.00
C644   C     0.47373   0.30838   0.72330   0.00000  Uiso   1.00
C645   C     0.35461   0.12405   0.75041   0.00000  Uiso   1.00
C646   C     0.64539   0.20929   0.74993   0.00000  Uiso   1.00
C647   C     0.64537   0.12405   0.75047   0.00000  Uiso   1.00
C648   C     0.35462   0.20929   0.74990   0.00000  Uiso   1.00
C649   C     0.50833   0.20829   0.54647   0.00000  Uiso   1.00
C650   C     0.52422   0.13533   0.95241   0.00000  Uiso   1.00
C651   C     0.47488   0.19898   0.95233   0.00000  Uiso   1.00
C652   C     0.49312   0.12538   0.54599   0.00000  Uiso   1.00
H653   H     0.51477   0.24026   0.52855   0.00000  Uiso   1.00
H654   H     0.54397   0.11156   0.97053   0.00000  Uiso   1.00
H655   H     0.45519   0.22293   0.97039   0.00000  Uiso   1.00
H656   H     0.48688   0.09329   0.52785   0.00000  Uiso   1.00
C657   C     0.51135   0.20815   0.59236   0.00000  Uiso   1.00
C658   C     0.52549   0.13561   0.90649   0.00000  Uiso   1.00
C659   C     0.47397   0.19863   0.90633   0.00000  Uiso   1.00
C660   C     0.49517   0.12420   0.59179   0.00000  Uiso   1.00
C661   C     0.50334   0.16610   0.61593   0.00000  Uiso   1.00
C662   C     0.49977   0.16703   0.88310   0.00000  Uiso   1.00
H663   H     0.37062   0.09073   0.75060   0.00000  Uiso   1.00
H664   H     0.62937   0.24261   0.74973   0.00000  Uiso   1.00
H665   H     0.62935   0.09074   0.75073   0.00000  Uiso   1.00
H666   H     0.37064   0.24260   0.74969   0.00000  Uiso   1.00
C667   C     0.49952   0.16713   0.52338   0.00000  Uiso   1.00
C668   C     0.49939   0.16710   0.97525   0.00000  Uiso   1.00
C669   C     0.62393   0.16667   0.75015   0.00000  Uiso   1.00
C670   C     0.37607   0.16667   0.75008   0.00000  Uiso   1.00
N671   N     0.52472   0.25038   0.61395   0.00000  Uiso   1.00
O672   O     0.55780   0.24991   0.63824   0.00000  Uiso   1.00
O673   O     0.50908   0.29050   0.60239   0.00000  Uiso   1.00
N674   N     0.55427   0.10535   0.88438   0.00000  Uiso   1.00
O675   O     0.57795   0.12190   0.85363   0.00000  Uiso   1.00
O676   O     0.56157   0.06358   0.89966   0.00000  Uiso   1.00
N677   N     0.44555   0.22909   0.88398   0.00000  Uiso   1.00
O678   O     0.42216   0.21276   0.85257   0.00000  Uiso   1.00
O679   O     0.43822   0.27083   0.89959   0.00000  Uiso   1.00
N680   N     0.48977   0.07976   0.61280   0.00000  Uiso   1.00
O681   O     0.45601   0.05618   0.60615   0.00000  Uiso   1.00
O682   O     0.52163   0.05841   0.62930   0.00000  Uiso   1.00
O683   O     0.77321   0.20625   0.75000   0.00000  Uiso   1.00
O684   O     0.89345   0.12709   0.75001   0.00000  Uiso   1.00
O685   O     0.89345   0.20625   0.75001   0.00000  Uiso   1.00
O686   O     0.77321   0.12709   0.75000   0.00000  Uiso   1.00
N687   N     0.83333   0.28402   0.75000   0.00000  Uiso   1.00
N688   N     0.83333   0.04931   0.75000   0.00000  Uiso   1.00
C689   C     0.75401   0.16666   0.74996   0.00000  Uiso   1.00
C690   C     0.91266   0.16667   0.75004   0.00000  Uiso   1.00
O691   O     0.83333   0.20626   0.68573   0.00000  Uiso   1.00
O692   O     0.83334   0.12707   0.81427   0.00000  Uiso   1.00
O693   O     0.83334   0.20626   0.81427   0.00000  Uiso   1.00
O694   O     0.83333   0.12707   0.68573   0.00000  Uiso   1.00
C695   C     0.83475   0.16651   0.66473   0.00000  Uiso   1.00
C696   C     0.83323   0.16677   0.83494   0.00000  Uiso   1.00
Cu697  Cu    0.83333   0.21355   0.75000   0.00000  Uiso   1.00
Cu698  Cu    0.83333   0.11978   0.75000   0.00000  Uiso   1.00
H699   H     0.78591   0.04333   0.70208   0.00000  Uiso   1.00
H700   H     0.88064   0.28999   0.79806   0.00000  Uiso   1.00
H701   H     0.88071   0.04378   0.79797   0.00000  Uiso   1.00
H702   H     0.78607   0.28954   0.70189   0.00000  Uiso   1.00
C703   C     0.80701   0.02469   0.72337   0.00000  Uiso   1.00
C704   C     0.85961   0.30864   0.77668   0.00000  Uiso   1.00
C705   C     0.85964   0.02495   0.77665   0.00000  Uiso   1.00
C706   C     0.80707   0.30838   0.72330   0.00000  Uiso   1.00
C707   C     0.68794   0.12405   0.75041   0.00000  Uiso   1.00
C708   C     0.97872   0.20929   0.74993   0.00000  Uiso   1.00
C709   C     0.97871   0.12405   0.75047   0.00000  Uiso   1.00
C710   C     0.68795   0.20929   0.74990   0.00000  Uiso   1.00
C711   C     0.84166   0.20829   0.54647   0.00000  Uiso   1.00
C712   C     0.85755   0.13533   0.95241   0.00000  Uiso   1.00
C713   C     0.80821   0.19898   0.95233   0.00000  Uiso   1.00
C714   C     0.82645   0.12538   0.54599   0.00000  Uiso   1.00
H715   H     0.84810   0.24026   0.52855   0.00000  Uiso   1.00
H716   H     0.87730   0.11156   0.97053   0.00000  Uiso   1.00
H717   H     0.78853   0.22293   0.97039   0.00000  Uiso   1.00
H718   H     0.82021   0.09329   0.52785   0.00000  Uiso   1.00
C719   C     0.84468   0.20815   0.59236   0.00000  Uiso   1.00
C720   C     0.85882   0.13561   0.90649   0.00000  Uiso   1.00
C721   C     0.80730   0.19863   0.90633   0.00000  Uiso   1.00
C722   C     0.82850   0.12420   0.59179   0.00000  Uiso   1.00
C723   C     0.83667   0.16610   0.61593   0.00000  Uiso   1.00
C724   C     0.83311   0.16703   0.88310   0.00000  Uiso   1.00
H725   H     0.70395   0.09073   0.75060   0.00000  Uiso   1.00
H726   H     0.96271   0.24261   0.74973   0.00000  Uiso   1.00
H727   H     0.96269   0.09074   0.75073   0.00000  Uiso   1.00
H728   H     0.70398   0.24260   0.74969   0.00000  Uiso   1.00
C729   C     0.83285   0.16713   0.52338   0.00000  Uiso   1.00
C730   C     0.83272   0.16710   0.97525   0.00000  Uiso   1.00
C731   C     0.95726   0.16667   0.75015   0.00000  Uiso   1.00
C732   C     0.70940   0.16667   0.75008   0.00000  Uiso   1.00
N733   N     0.85805   0.25038   0.61395   0.00000  Uiso   1.00
O734   O     0.89114   0.24991   0.63824   0.00000  Uiso   1.00
O735   O     0.84242   0.29050   0.60239   0.00000  Uiso   1.00
N736   N     0.88761   0.10535   0.88438   0.00000  Uiso   1.00
O737   O     0.91129   0.12190   0.85363   0.00000  Uiso   1.00
O738   O     0.89490   0.06358   0.89966   0.00000  Uiso   1.00
N739   N     0.77888   0.22909   0.88398   0.00000  Uiso   1.00
O740   O     0.75550   0.21276   0.85257   0.00000  Uiso   1.00
O741   O     0.77155   0.27083   0.89959   0.00000  Uiso   1.00
N742   N     0.82310   0.07976   0.61280   0.00000  Uiso   1.00
O743   O     0.78934   0.05618   0.60615   0.00000  Uiso   1.00
O744   O     0.85496   0.05841   0.62930   0.00000  Uiso   1.00
O745   O     0.10655   0.53958   0.75000   0.00000  Uiso   1.00
O746   O     0.22679   0.46042   0.75001   0.00000  Uiso   1.00
O747   O     0.22679   0.53958   0.75001   0.00000  Uiso   1.00
O748   O     0.10655   0.46042   0.75000   0.00000  Uiso   1.00
N749   N     0.16667   0.61736   0.75000   0.00000  Uiso   1.00
N750   N     0.16667   0.38264   0.75000   0.00000  Uiso   1.00
C751   C     0.08734   0.50000   0.74996   0.00000  Uiso   1.00
C752   C     0.24599   0.50000   0.75004   0.00000  Uiso   1.00
O753   O     0.16666   0.53959   0.68573   0.00000  Uiso   1.00
O754   O     0.16667   0.46041   0.81427   0.00000  Uiso   1.00
O755   O     0.16667   0.53959   0.81427   0.00000  Uiso   1.00
O756   O     0.16666   0.46041   0.68573   0.00000  Uiso   1.00
C757   C     0.16809   0.49984   0.66473   0.00000  Uiso   1.00
C758   C     0.16657   0.50011   0.83494   0.00000  Uiso   1.00
Cu759  Cu    0.16667   0.54689   0.75000   0.00000  Uiso   1.00
Cu760  Cu    0.16667   0.45311   0.75000   0.00000  Uiso   1.00
H761   H     0.11925   0.37667   0.70208   0.00000  Uiso   1.00
H762   H     0.21398   0.62333   0.79806   0.00000  Uiso   1.00
H763   H     0.21405   0.37711   0.79797   0.00000  Uiso   1.00
H764   H     0.11940   0.62288   0.70189   0.00000  Uiso   1.00
C765   C     0.14035   0.35802   0.72337   0.00000  Uiso   1.00
C766   C     0.19295   0.64197   0.77668   0.00000  Uiso   1.00
C767   C     0.19297   0.35828   0.77665   0.00000  Uiso   1.00
C768   C     0.14040   0.64172   0.72330   0.00000  Uiso   1.00
C769   C     0.02128   0.45738   0.75041   0.00000  Uiso   1.00
C770   C     0.31205   0.54262   0.74993   0.00000  Uiso   1.00
C771   C     0.31204   0.45739   0.75047   0.00000  Uiso   1.00
C772   C     0.02129   0.54262   0.74990   0.00000  Uiso   1.00
C773   C     0.17500   0.54163   0.54647   0.00000  Uiso   1.00
C774   C     0.19088   0.46867   0.95241   0.00000  Uiso   1.00
C775   C     0.14155   0.53232   0.95233   0.00000  Uiso   1.00
C776   C     0.15978   0.45871   0.54599   0.00000  Uiso   1.00
H777   H     0.18144   0.57359   0.52855   0.00000  Uiso   1.00
H778   H     0.21064   0.44489   0.97053   0.00000  Uiso   1.00
H779   H     0.12186   0.55626   0.97039   0.00000  Uiso   1.00
H780   H     0.15355   0.42662   0.52785   0.00000  Uiso   1.00
C781   C     0.17802   0.54148   0.59236   0.00000  Uiso   1.00
C782   C     0.19215   0.46894   0.90649   0.00000  Uiso   1.00
C783   C     0.14064   0.53196   0.90633   0.00000  Uiso   1.00
C784   C     0.16184   0.45753   0.59179   0.00000  Uiso   1.00
C785   C     0.17001   0.49944   0.61593   0.00000  Uiso   1.00
C786   C     0.16644   0.50036   0.88310   0.00000  Uiso   1.00
H787   H     0.03729   0.42406   0.75060   0.00000  Uiso   1.00
H788   H     0.29604   0.57594   0.74973   0.00000  Uiso   1.00
H789   H     0.29602   0.42407   0.75073   0.00000  Uiso   1.00
H790   H     0.03731   0.57594   0.74969   0.00000  Uiso   1.00
C791   C     0.16619   0.50046   0.52338   0.00000  Uiso   1.00
C792   C     0.16606   0.50043   0.97525   0.00000  Uiso   1.00
C793   C     0.29060   0.50001   0.75015   0.00000  Uiso   1.00
C794   C     0.04273   0.50000   0.75008   0.00000  Uiso   1.00
N795   N     0.19139   0.58372   0.61395   0.00000  Uiso   1.00
O796   O     0.22447   0.58324   0.63824   0.00000  Uiso   1.00
O797   O     0.17575   0.62383   0.60239   0.00000  Uiso   1.00
N798   N     0.22094   0.43868   0.88438   0.00000  Uiso   1.00
O799   O     0.24462   0.45523   0.85363   0.00000  Uiso   1.00
O800   O     0.22823   0.39692   0.89966   0.00000  Uiso   1.00
N801   N     0.11221   0.56242   0.88398   0.00000  Uiso   1.00
O802   O     0.08883   0.54609   0.85257   0.00000  Uiso   1.00
O803   O     0.10488   0.60416   0.89959   0.00000  Uiso   1.00
N804   N     0.15643   0.41309   0.61280   0.00000  Uiso   1.00
O805   O     0.12268   0.38951   0.60615   0.00000  Uiso   1.00
O806   O     0.18830   0.39174   0.62930   0.00000  Uiso   1.00
O807   O     0.43988   0.53958   0.75000   0.00000  Uiso   1.00
O808   O     0.56012   0.46042   0.75001   0.00000  Uiso   1.00
O809   O     0.56012   0.53958   0.75001   0.00000  Uiso   1.00
O810   O     0.43988   0.46042   0.75000   0.00000  Uiso   1.00
N811   N     0.50000   0.61736   0.75000   0.00000  Uiso   1.00
N812   N     0.50000   0.38264   0.75000   0.00000  Uiso   1.00
C813   C     0.42067   0.50000   0.74996   0.00000  Uiso   1.00
C814   C     0.57933   0.50000   0.75004   0.00000  Uiso   1.00
O815   O     0.50000   0.53959   0.68573   0.00000  Uiso   1.00
O816   O     0.50000   0.46041   0.81427   0.00000  Uiso   1.00
O817   O     0.50000   0.53959   0.81427   0.00000  Uiso   1.00
O818   O     0.50000   0.46041   0.68573   0.00000  Uiso   1.00
C819   C     0.50142   0.49984   0.66473   0.00000  Uiso   1.00
C820   C     0.49990   0.50011   0.83494   0.00000  Uiso   1.00
Cu821  Cu    0.50000   0.54689   0.75000   0.00000  Uiso   1.00
Cu822  Cu    0.50000   0.45311   0.75000   0.00000  Uiso   1.00
H823   H     0.45258   0.37667   0.70208   0.00000  Uiso   1.00
H824   H     0.54731   0.62333   0.79806   0.00000  Uiso   1.00
H825   H     0.54738   0.37711   0.79797   0.00000  Uiso   1.00
H826   H     0.45273   0.62288   0.70189   0.00000  Uiso   1.00
C827   C     0.47368   0.35802   0.72337   0.00000  Uiso   1.00
C828   C     0.52628   0.64197   0.77668   0.00000  Uiso   1.00
C829   C     0.52631   0.35828   0.77665   0.00000  Uiso   1.00
C830   C     0.47373   0.64172   0.72330   0.00000  Uiso   1.00
C831   C     0.35461   0.45738   0.75041   0.00000  Uiso   1.00
C832   C     0.64539   0.54262   0.74993   0.00000  Uiso   1.00
C833   C     0.64537   0.45739   0.75047   0.00000  Uiso   1.00
C834   C     0.35462   0.54262   0.74990   0.00000  Uiso   1.00
C835   C     0.50833   0.54163   0.54647   0.00000  Uiso   1.00
C836   C     0.52422   0.46867   0.95241   0.00000  Uiso   1.00
C837   C     0.47488   0.53232   0.95233   0.00000  Uiso   1.00
C838   C     0.49312   0.45871   0.54599   0.00000  Uiso   1.00
H839   H     0.51477   0.57359   0.52855   0.00000  Uiso   1.00
H840   H     0.54397   0.44489   0.97053   0.00000  Uiso   1.00
H841   H     0.45519   0.55626   0.97039   0.00000  Uiso   1.00
H842   H     0.48688   0.42662   0.52785   0.00000  Uiso   1.00
C843   C     0.51135   0.54148   0.59236   0.00000  Uiso   1.00
C844   C     0.52549   0.46894   0.90649   0.00000  Uiso   1.00
C845   C     0.47397   0.53196   0.90633   0.00000  Uiso   1.00
C846   C     0.49517   0.45753   0.59179   0.00000  Uiso   1.00
C847   C     0.50334   0.49944   0.61593   0.00000  Uiso   1.00
C848   C     0.49977   0.50036   0.88310   0.00000  Uiso   1.00
H849   H     0.37062   0.42406   0.75060   0.00000  Uiso   1.00
H850   H     0.62937   0.57594   0.74973   0.00000  Uiso   1.00
H851   H     0.62935   0.42407   0.75073   0.00000  Uiso   1.00
H852   H     0.37064   0.57594   0.74969   0.00000  Uiso   1.00
C853   C     0.49952   0.50046   0.52338   0.00000  Uiso   1.00
C854   C     0.49939   0.50043   0.97525   0.00000  Uiso   1.00
C855   C     0.62393   0.50001   0.75015   0.00000  Uiso   1.00
C856   C     0.37607   0.50000   0.75008   0.00000  Uiso   1.00
N857   N     0.52472   0.58372   0.61395   0.00000  Uiso   1.00
O858   O     0.55780   0.58324   0.63824   0.00000  Uiso   1.00
O859   O     0.50908   0.62383   0.60239   0.00000  Uiso   1.00
N860   N     0.55427   0.43868   0.88438   0.00000  Uiso   1.00
O861   O     0.57795   0.45523   0.85363   0.00000  Uiso   1.00
O862   O     0.56157   0.39692   0.89966   0.00000  Uiso   1.00
N863   N     0.44555   0.56242   0.88398   0.00000  Uiso   1.00
O864   O     0.42216   0.54609   0.85257   0.00000  Uiso   1.00
O865   O     0.43822   0.60416   0.89959   0.00000  Uiso   1.00
N866   N     0.48977   0.41309   0.61280   0.00000  Uiso   1.00
O867   O     0.45601   0.38951   0.60615   0.00000  Uiso   1.00
O868   O     0.52163   0.39174   0.62930   0.00000  Uiso   1.00
O869   O     0.77321   0.53958   0.75000   0.00000  Uiso   1.00
O870   O     0.89345   0.46042   0.75001   0.00000  Uiso   1.00
O871   O     0.89345   0.53958   0.75001   0.00000  Uiso   1.00
O872   O     0.77321   0.46042   0.75000   0.00000  Uiso   1.00
N873   N     0.83333   0.61736   0.75000   0.00000  Uiso   1.00
N874   N     0.83333   0.38264   0.75000   0.00000  Uiso   1.00
C875   C     0.75401   0.50000   0.74996   0.00000  Uiso   1.00
C876   C     0.91266   0.50000   0.75004   0.00000  Uiso   1.00
O877   O     0.83333   0.53959   0.68573   0.00000  Uiso   1.00
O878   O     0.83334   0.46041   0.81427   0.00000  Uiso   1.00
O879   O     0.83334   0.53959   0.81427   0.00000  Uiso   1.00
O880   O     0.83333   0.46041   0.68573   0.00000  Uiso   1.00
C881   C     0.83475   0.49984   0.66473   0.00000  Uiso   1.00
C882   C     0.83323   0.50011   0.83494   0.00000  Uiso   1.00
Cu883  Cu    0.83333   0.54689   0.75000   0.00000  Uiso   1.00
Cu884  Cu    0.83333   0.45311   0.75000   0.00000  Uiso   1.00
H885   H     0.78591   0.37667   0.70208   0.00000  Uiso   1.00
H886   H     0.88064   0.62333   0.79806   0.00000  Uiso   1.00
H887   H     0.88071   0.37711   0.79797   0.00000  Uiso   1.00
H888   H     0.78607   0.62288   0.70189   0.00000  Uiso   1.00
C889   C     0.80701   0.35802   0.72337   0.00000  Uiso   1.00
C890   C     0.85961   0.64197   0.77668   0.00000  Uiso   1.00
C891   C     0.85964   0.35828   0.77665   0.00000  Uiso   1.00
C892   C     0.80707   0.64172   0.72330   0.00000  Uiso   1.00
C893   C     0.68794   0.45738   0.75041   0.00000  Uiso   1.00
C894   C     0.97872   0.54262   0.74993   0.00000  Uiso   1.00
C895   C     0.97871   0.45739   0.75047   0.00000  Uiso   1.00
C896   C     0.68795   0.54262   0.74990   0.00000  Uiso   1.00
C897   C     0.84166   0.54163   0.54647   0.00000  Uiso   1.00
C898   C     0.85755   0.46867   0.95241   0.00000  Uiso   1.00
C899   C     0.80821   0.53232   0.95233   0.00000  Uiso   1.00
C900   C     0.82645   0.45871   0.54599   0.00000  Uiso   1.00
H901   H     0.84810   0.57359   0.52855   0.00000  Uiso   1.00
H902   H     0.87730   0.44489   0.97053   0.00000  Uiso   1.00
H903   H     0.78853   0.55626   0.97039   0.00000  Uiso   1.00
H904   H     0.82021   0.42662   0.52785   0.00000  Uiso   1.00
C905   C     0.84468   0.54148   0.59236   0.00000  Uiso   1.00
C906   C     0.85882   0.46894   0.90649   0.00000  Uiso   1.00
C907   C     0.80730   0.53196   0.90633   0.00000  Uiso   1.00
C908   C     0.82850   0.45753   0.59179   0.00000  Uiso   1.00
C909   C     0.83667   0.49944   0.61593   0.00000  Uiso   1.00
C910   C     0.83311   0.50036   0.88310   0.00000  Uiso   1.00
H911   H     0.70395   0.42406   0.75060   0.00000  Uiso   1.00
H912   H     0.96271   0.57594   0.74973   0.00000  Uiso   1.00
H913   H     0.96269   0.42407   0.75073   0.00000  Uiso   1.00
H914   H     0.70398   0.57594   0.74969   0.00000  Uiso   1.00
C915   C     0.83285   0.50046   0.52338   0.00000  Uiso   1.00
C916   C     0.83272   0.50043   0.97525   0.00000  Uiso   1.00
C917   C     0.95726   0.50001   0.75015   0.00000  Uiso   1.00
C918   C     0.70940   0.50000   0.75008   0.00000  Uiso   1.00
N919   N     0.85805   0.58372   0.61395   0.00000  Uiso   1.00
O920   O     0.89114   0.58324   0.63824   0.00000  Uiso   1.00
O921   O     0.84242   0.62383   0.60239   0.00000  Uiso   1.00
N922   N     0.88761   0.43868   0.88438   0.00000  Uiso   1.00
O923   O     0.91129   0.45523   0.85363   0.00000  Uiso   1.00
O924   O     0.89490   0.39692   0.89966   0.00000  Uiso   1.00
N925   N     0.77888   0.56242   0.88398   0.00000  Uiso   1.00
O926   O     0.75550   0.54609   0.85257   0.00000  Uiso   1.00
O927   O     0.77155   0.60416   0.89959   0.00000  Uiso   1.00
N928   N     0.82310   0.41309   0.61280   0.00000  Uiso   1.00
O929   O     0.78934   0.38951   0.60615   0.00000  Uiso   1.00
O930   O     0.85496   0.39174   0.62930   0.00000  Uiso   1.00
O931   O     0.10655   0.87291   0.75000   0.00000  Uiso   1.00
O932   O     0.22679   0.79375   0.75001   0.00000  Uiso   1.00
O933   O     0.22679   0.87291   0.75001   0.00000  Uiso   1.00
O934   O     0.10655   0.79375   0.75000   0.00000  Uiso   1.00
N935   N     0.16667   0.95069   0.75000   0.00000  Uiso   1.00
N936   N     0.16667   0.71598   0.75000   0.00000  Uiso   1.00
C937   C     0.08734   0.83333   0.74996   0.00000  Uiso   1.00
C938   C     0.24599   0.83334   0.75004   0.00000  Uiso   1.00
O939   O     0.16666   0.87293   0.68573   0.00000  Uiso   1.00
O940   O     0.16667   0.79374   0.81427   0.00000  Uiso   1.00
O941   O     0.16667   0.87293   0.81427   0.00000  Uiso   1.00
O942   O     0.16666   0.79374   0.68573   0.00000  Uiso   1.00
C943   C     0.16809   0.83317   0.66473   0.00000  Uiso   1.00
C944   C     0.16657   0.83344   0.83494   0.00000  Uiso   1.00
Cu945  Cu    0.16667   0.88022   0.75000   0.00000  Uiso   1.00
Cu946  Cu    0.16667   0.78645   0.75000   0.00000  Uiso   1.00
H947   H     0.11925   0.71000   0.70208   0.00000  Uiso   1.00
H948   H     0.21398   0.95666   0.79806   0.00000  Uiso   1.00
H949   H     0.21405   0.71044   0.79797   0.00000  Uiso   1.00
H950   H     0.11940   0.95621   0.70189   0.00000  Uiso   1.00
C951   C     0.14035   0.69136   0.72337   0.00000  Uiso   1.00
C952   C     0.19295   0.97530   0.77668   0.00000  Uiso   1.00
C953   C     0.19297   0.69161   0.77665   0.00000  Uiso   1.00
C954   C     0.14040   0.97505   0.72330   0.00000  Uiso   1.00
C955   C     0.02128   0.79072   0.75041   0.00000  Uiso   1.00
C956   C     0.31205   0.87596   0.74993   0.00000  Uiso   1.00
C957   C     0.31204   0.79072   0.75047   0.00000  Uiso   1.00
C958   C     0.02129   0.87595   0.74990   0.00000  Uiso   1.00
C959   C     0.17500   0.87496   0.54647   0.00000  Uiso   1.00
C960   C     0.19088   0.80200   0.95241   0.00000  Uiso   1.00
C961   C     0.14155   0.86565   0.95233   0.00000  Uiso   1.00
C962   C     0.15978   0.79204   0.54599   0.00000  Uiso   1.00
H963   H     0.18144   0.90693   0.52855   0.00000  Uiso   1.00
H964   H     0.21064   0.77822   0.97053   0.00000  Uiso   1.00
H965   H     0.12186   0.88960   0.97039   0.00000  Uiso   1.00
H966   H     0.15355   0.75995   0.52785   0.00000  Uiso   1.00
C967   C     0.17802   0.87481   0.59236   0.00000  Uiso   1.00
C968   C     0.19215   0.80227   0.90649   0.00000  Uiso   1.00
C969   C     0.14064   0.86529   0.90633   0.00000  Uiso   1.00
C970   C     0.16184   0.79086   0.59179   0.00000  Uiso   1.00
C971   C     0.17001   0.83277   0.61593   0.00000  Uiso   1.00
C972   C     0.16644   0.83369   0.88310   0.00000  Uiso   1.00
H973   H     0.03729   0.75740   0.75060   0.00000  Uiso   1.00
H974   H     0.29604   0.90928   0.74973   0.00000  Uiso   1.00
H975   H     0.29602   0.75740   0.75073   0.00000  Uiso   1.00
H976   H     0.03731   0.90927   0.74969   0.00000  Uiso   1.00
C977   C     0.16619   0.83379   0.52338   0.00000  Uiso   1.00
C978   C     0.16606   0.83376   0.97525   0.00000  Uiso   1.00
C979   C     0.29060   0.83334   0.75015   0.00000  Uiso   1.00
C980   C     0.04273   0.83333   0.75008   0.00000  Uiso   1.00
N981   N     0.19139   0.91705   0.61395   0.00000  Uiso   1.00
O982   O     0.22447   0.91658   0.63824   0.00000  Uiso   1.00
O983   O     0.17575   0.95717   0.60239   0.00000  Uiso   1.00
N984   N     0.22094   0.77202   0.88438   0.00000  Uiso   1.00
O985   O     0.24462   0.78857   0.85363   0.00000  Uiso   1.00
O986   O     0.22823   0.73025   0.89966   0.00000  Uiso   1.00
N987   N     0.11221   0.89575   0.88398   0.00000  Uiso   1.00
O988   O     0.08883   0.87943   0.85257   0.00000  Uiso   1.00
O989   O     0.10488   0.93750   0.89959   0.00000  Uiso   1.00
N990   N     0.15643   0.74642   0.61280   0.00000  Uiso   1.00
O991   O     0.12268   0.72285   0.60615   0.00000  Uiso   1.00
O992   O     0.18830   0.72507   0.62930   0.00000  Uiso   1.00
O993   O     0.43988   0.87291   0.75000   0.00000  Uiso   1.00
O994   O     0.56012   0.79375   0.75001   0.00000  Uiso   1.00
O995   O     0.56012   0.87291   0.75001   0.00000  Uiso   1.00
O996   O     0.43988   0.79375   0.75000   0.00000  Uiso   1.00
N997   N     0.50000   0.95069   0.75000   0.00000  Uiso   1.00
N998   N     0.50000   0.71598   0.75000   0.00000  Uiso   1.00
C999   C     0.42067   0.83333   0.74996   0.00000  Uiso   1.00
C1000  C     0.57933   0.83334   0.75004   0.00000  Uiso   1.00
O1001  O     0.50000   0.87293   0.68573   0.00000  Uiso   1.00
O1002  O     0.50000   0.79374   0.81427   0.00000  Uiso   1.00
O1003  O     0.50000   0.87293   0.81427   0.00000  Uiso   1.00
O1004  O     0.50000   0.79374   0.68573   0.00000  Uiso   1.00
C1005  C     0.50142   0.83317   0.66473   0.00000  Uiso   1.00
C1006  C     0.49990   0.83344   0.83494   0.00000  Uiso   1.00
Cu1007 Cu    0.50000   0.88022   0.75000   0.00000  Uiso   1.00
Cu1008 Cu    0.50000   0.78645   0.75000   0.00000  Uiso   1.00
H1009  H     0.45258   0.71000   0.70208   0.00000  Uiso   1.00
H1010  H     0.54731   0.95666   0.79806   0.00000  Uiso   1.00
H1011  H     0.54738   0.71044   0.79797   0.00000  Uiso   1.00
H1012  H     0.45273   0.95621   0.70189   0.00000  Uiso   1.00
C1013  C     0.47368   0.69136   0.72337   0.00000  Uiso   1.00
C1014  C     0.52628   0.97530   0.77668   0.00000  Uiso   1.00
C1015  C     0.52631   0.69161   0.77665   0.00000  Uiso   1.00
C1016  C     0.47373   0.97505   0.72330   0.00000  Uiso   1.00
C1017  C     0.35461   0.79072   0.75041   0.00000  Uiso   1.00
C1018  C     0.64539   0.87596   0.74993   0.00000  Uiso   1.00
C1019  C     0.64537   0.79072   0.75047   0.00000  Uiso   1.00
C1020  C     0.35462   0.87595   0.74990   0.00000  Uiso   1.00
C1021  C     0.50833   0.87496   0.54647   0.00000  Uiso   1.00
C1022  C     0.52422   0.80200   0.95241   0.00000  Uiso   1.00
C1023  C     0.47488   0.86565   0.95233   0.00000  Uiso   1.00
C1024  C     0.49312   0.79204   0.54599   0.00000  Uiso   1.00
H1025  H     0.51477   0.90693   0.52855   0.00000  Uiso   1.00
H1026  H     0.54397   0.77822   0.97053   0.00000  Uiso   1.00
H1027  H     0.45519   0.88960   0.97039   0.00000  Uiso   1.00
H1028  H     0.48688   0.75995   0.52785   0.00000  Uiso   1.00
C1029  C     0.51135   0.87481   0.59236   0.00000  Uiso   1.00
C1030  C     0.52549   0.80227   0.90649   0.00000  Uiso   1.00
C1031  C     0.47397   0.86529   0.90633   0.00000  Uiso   1.00
C1032  C     0.49517   0.79086   0.59179   0.00000  Uiso   1.00
C1033  C     0.50334   0.83277   0.61593   0.00000  Uiso   1.00
C1034  C     0.49977   0.83369   0.88310   0.00000  Uiso   1.00
H1035  H     0.37062   0.75740   0.75060   0.00000  Uiso   1.00
H1036  H     0.62937   0.90928   0.74973   0.00000  Uiso   1.00
H1037  H     0.62935   0.75740   0.75073   0.00000  Uiso   1.00
H1038  H     0.37064   0.90927   0.74969   0.00000  Uiso   1.00
C1039  C     0.49952   0.83379   0.52338   0.00000  Uiso   1.00
C1040  C     0.49939   0.83376   0.97525   0.00000  Uiso   1.00
C1041  C     0.62393   0.83334   0.75015   0.00000  Uiso   1.00
C1042  C     0.37607   0.83333   0.75008   0.00000  Uiso   1.00
N1043  N     0.52472   0.91705   0.61395   0.00000  Uiso   1.00
O1044  O     0.55780   0.91658   0.63824   0.00000  Uiso   1.00
O1045  O     0.50908   0.95717   0.60239   0.00000  Uiso   1.00
N1046  N     0.55427   0.77202   0.88438   0.00000  Uiso   1.00
O1047  O     0.57795   0.78857   0.85363   0.00000  Uiso   1.00
O1048  O     0.56157   0.73025   0.89966   0.00000  Uiso   1.00
N1049  N     0.44555   0.89575   0.88398   0.00000  Uiso   1.00
O1050  O     0.42216   0.87943   0.85257   0.00000  Uiso   1.00
O1051  O     0.43822   0.93750   0.89959   0.00000  Uiso   1.00
N1052  N     0.48977   0.74642   0.61280   0.00000  Uiso   1.00
O1053  O     0.45601   0.72285   0.60615   0.00000  Uiso   1.00
O1054  O     0.52163   0.72507   0.62930   0.00000  Uiso   1.00
O1055  O     0.77321   0.87291   0.75000   0.00000  Uiso   1.00
O1056  O     0.89345   0.79375   0.75001   0.00000  Uiso   1.00
O1057  O     0.89345   0.87291   0.75001   0.00000  Uiso   1.00
O1058  O     0.77321   0.79375   0.75000   0.00000  Uiso   1.00
N1059  N     0.83333   0.95069   0.75000   0.00000  Uiso   1.00
N1060  N     0.83333   0.71598   0.75000   0.00000  Uiso   1.00
C1061  C     0.75401   0.83333   0.74996   0.00000  Uiso   1.00
C1062  C     0.91266   0.83334   0.75004   0.00000  Uiso   1.00
O1063  O     0.83333   0.87293   0.68573   0.00000  Uiso   1.00
O1064  O     0.83334   0.79374   0.81427   0.00000  Uiso   1.00
O1065  O     0.83334   0.87293   0.81427   0.00000  Uiso   1.00
O1066  O     0.83333   0.79374   0.68573   0.00000  Uiso   1.00
C1067  C     0.83475   0.83317   0.66473   0.00000  Uiso   1.00
C1068  C     0.83323   0.83344   0.83494   0.00000  Uiso   1.00
Cu1069 Cu    0.83333   0.88022   0.75000   0.00000  Uiso   1.00
Cu1070 Cu    0.83333   0.78645   0.75000   0.00000  Uiso   1.00
H1071  H     0.78591   0.71000   0.70208   0.00000  Uiso   1.00
H1072  H     0.88064   0.95666   0.79806   0.00000  Uiso   1.00
H1073  H     0.88071   0.71044   0.79797   0.00000  Uiso   1.00
H1074  H     0.78607   0.95621   0.70189   0.00000  Uiso   1.00
C1075  C     0.80701   0.69136   0.72337   0.00000  Uiso   1.00
C1076  C     0.85961   0.97530   0.77668   0.00000  Uiso   1.00
C1077  C     0.85964   0.69161   0.77665   0.00000  Uiso   1.00
C1078  C     0.80707   0.97505   0.72330   0.00000  Uiso   1.00
C1079  C     0.68794   0.79072   0.75041   0.00000  Uiso   1.00
C1080  C     0.97872   0.87596   0.74993   0.00000  Uiso   1.00
C1081  C     0.97871   0.79072   0.75047   0.00000  Uiso   1.00
C1082  C     0.68795   0.87595   0.74990   0.00000  Uiso   1.00
C1083  C     0.84166   0.87496   0.54647   0.00000  Uiso   1.00
C1084  C     0.85755   0.80200   0.95241   0.00000  Uiso   1.00
C1085  C     0.80821   0.86565   0.95233   0.00000  Uiso   1.00
C1086  C     0.82645   0.79204   0.54599   0.00000  Uiso   1.00
H1087  H     0.84810   0.90693   0.52855   0.00000  Uiso   1.00
H1088  H     0.87730   0.77822   0.97053   0.00000  Uiso   1.00
H1089  H     0.78853   0.88960   0.97039   0.00000  Uiso   1.00
H1090  H     0.82021   0.75995   0.52785   0.00000  Uiso   1.00
C1091  C     0.84468   0.87481   0.59236   0.00000  Uiso   1.00
C1092  C     0.85882   0.80227   0.90649   0.00000  Uiso   1.00
C1093  C     0.80730   0.86529   0.90633   0.00000  Uiso   1.00
C1094  C     0.82850   0.79086   0.59179   0.00000  Uiso   1.00
C1095  C     0.83667   0.83277   0.61593   0.00000  Uiso   1.00
C1096  C     0.83311   0.83369   0.88310   0.00000  Uiso   1.00
H1097  H     0.70395   0.75740   0.75060   0.00000  Uiso   1.00
H1098  H     0.96271   0.90928   0.74973   0.00000  Uiso   1.00
H1099  H     0.96269   0.75740   0.75073   0.00000  Uiso   1.00
H1100  H     0.70398   0.90927   0.74969   0.00000  Uiso   1.00
C1101  C     0.83285   0.83379   0.52338   0.00000  Uiso   1.00
C1102  C     0.83272   0.83376   0.97525   0.00000  Uiso   1.00
C1103  C     0.95726   0.83334   0.75015   0.00000  Uiso   1.00
C1104  C     0.70940   0.83333   0.75008   0.00000  Uiso   1.00
N1105  N     0.85805   0.91705   0.61395   0.00000  Uiso   1.00
O1106  O     0.89114   0.91658   0.63824   0.00000  Uiso   1.00
O1107  O     0.84242   0.95717   0.60239   0.00000  Uiso   1.00
N1108  N     0.88761   0.77202   0.88438   0.00000  Uiso   1.00
O1109  O     0.91129   0.78857   0.85363   0.00000  Uiso   1.00
O1110  O     0.89490   0.73025   0.89966   0.00000  Uiso   1.00
N1111  N     0.77888   0.89575   0.88398   0.00000  Uiso   1.00
O1112  O     0.75550   0.87943   0.85257   0.00000  Uiso   1.00
O1113  O     0.77155   0.93750   0.89959   0.00000  Uiso   1.00
N1114  N     0.82310   0.74642   0.61280   0.00000  Uiso   1.00
O1115  O     0.78934   0.72285   0.60615   0.00000  Uiso   1.00
O1116  O     0.85496   0.72507   0.62930   0.00000  Uiso   1.00
loop_
_geom_bond_atom_site_label_1
_geom_bond_atom_site_label_2
_geom_bond_distance
_geom_bond_site_symmetry_2
_ccdc_geom_bond_type
O1     Cu15    1.965   .     S
O1     C7      1.290   .     A
O2     Cu16    1.965   .     S
O2     C8      1.290   .     A
O3     Cu15    1.965   .     S
O3     C8      1.290   .     A
O4     Cu16    1.965   .     S
O4     C7      1.290   .     A
N5     C24     1.367   .     A
N5     Cu15    2.009   .     S
N5     C22     1.367   .     A
N6     C23     1.367   .     A
N6     Cu16    2.009   .     S
N6     C21     1.367   .     A
C7     C50     1.450   .     S
C8     C49     1.450   .     S
O9     Cu15    1.960   .     S
O9     C13     1.299   .     A
O10    Cu16    1.960   .     S
O10    C14     1.292   .     A
O11    Cu15    1.962   .     S
O11    C14     1.291   .     A
O12    C13     1.296   .     A
O12    Cu16    1.962   .     S
C13    C41     1.482   .     S
C14    C42     1.461   .     S
Cu15   Cu16    2.674   .     S
H17    C21     1.082   .     S
H18    C22     1.082   .     S
H19    C23     1.081   .     S
H20    C24     1.082   .     S
C21    C396    1.415   1_545 S
C22    C209    1.416   .     S
C23    C394    1.416   1_545 S
C24    C207    1.415   .     S
C25    H43     1.083   .     S
C25    C50     1.401   .     A
C25    C151    1.383   1_455 S
C26    H44     1.083   .     S
C26    C49     1.401   .     A
C26    C90     1.383   .     S
C27    H45     1.083   .     S
C27    C49     1.401   .     A
C27    C87     1.383   .     S
C28    H46     1.083   .     S
C28    C50     1.401   .     A
C28    C150    1.383   1_455 S
C29    C47     1.394   .     A
C29    H33     1.084   .     S
C29    C37     1.395   .     A
C30    C48     1.396   .     A
C30    H34     1.084   .     S
C30    C38     1.394   .     A
C31    C39     1.395   .     A
C31    C48     1.395   .     A
C31    H35     1.084   .     S
C32    H36     1.084   .     S
C32    C47     1.393   .     A
C32    C40     1.391   .     A
C37    C41     1.423   .     A
C37    N51     1.435   .     S
C38    N54     1.438   .     S
C38    C42     1.416   .     A
C39    C42     1.418   .     A
C39    N57     1.438   .     S
C40    N60     1.432   .     S
C40    C41     1.423   .     A
C47    C606    1.460   1_554 S
C48    C605    1.460   .     S
N51    O52     1.302   .     A
N51    O53     1.301   .     A
N54    O56     1.301   .     A
N54    O55     1.301   .     A
N57    O58     1.301   .     A
N57    O59     1.301   .     A
N60    O62     1.301   .     A
N60    O61     1.301   .     A
O63    Cu77    1.965   .     S
O63    C69     1.290   .     A
O64    Cu78    1.965   .     S
O64    C70     1.290   .     A
O65    Cu77    1.965   .     S
O65    C70     1.290   .     A
O66    Cu78    1.965   .     S
O66    C69     1.290   .     A
N67    C86     1.367   .     A
N67    Cu77    2.009   .     S
N67    C84     1.367   .     A
N68    C85     1.367   .     A
N68    Cu78    2.009   .     S
N68    C83     1.367   .     A
C69    C112    1.450   .     S
C70    C111    1.450   .     S
O71    Cu77    1.960   .     S
O71    C75     1.299   .     A
O72    Cu78    1.960   .     S
O72    C76     1.292   .     A
O73    Cu77    1.962   .     S
O73    C76     1.291   .     A
O74    C75     1.296   .     A
O74    Cu78    1.962   .     S
C75    C103    1.482   .     S
C76    C104    1.461   .     S
Cu77   Cu78    2.674   .     S
H79    C83     1.082   .     S
H80    C84     1.082   .     S
H81    C85     1.081   .     S
H82    C86     1.082   .     S
C83    C458    1.415   1_545 S
C84    C271    1.416   .     S
C85    C456    1.416   1_545 S
C86    C269    1.415   .     S
C87    H105    1.083   .     S
C87    C112    1.401   .     A
C88    H106    1.083   .     S
C88    C111    1.401   .     A
C88    C152    1.383   .     S
C89    H107    1.083   .     S
C89    C111    1.401   .     A
C89    C149    1.383   .     S
C90    H108    1.083   .     S
C90    C112    1.401   .     A
C91    C109    1.394   .     A
C91    H95     1.084   .     S
C91    C99     1.395   .     A
C92    C110    1.396   .     A
C92    H96     1.084   .     S
C92    C100    1.394   .     A
C93    C101    1.395   .     A
C93    C110    1.395   .     A
C93    H97     1.084   .     S
C94    H98     1.084   .     S
C94    C109    1.393   .     A
C94    C102    1.391   .     A
C99    C103    1.423   .     A
C99    N113    1.435   .     S
C100   N116    1.438   .     S
C100   C104    1.416   .     A
C101   C104    1.418   .     A
C101   N119    1.438   .     S
C102   N122    1.432   .     S
C102   C103    1.423   .     A
C109   C668    1.460   1_554 S
C110   C667    1.460   .     S
N113   O114    1.302   .     A
N113   O115    1.301   .     A
N116   O118    1.301   .     A
N116   O117    1.301   .     A
N119   O120    1.301   .     A
N119   O121    1.301   .     A
N122   O124    1.301   .     A
N122   O123    1.301   .     A
O125   Cu139   1.965   .     S
O125   C131    1.290   .     A
O126   Cu140   1.965   .     S
O126   C132    1.290   .     A
O127   Cu139   1.965   .     S
O127   C132    1.290   .     A
O128   Cu140   1.965   .     S
O128   C131    1.290   .     A
N129   C148    1.367   .     A
N129   Cu139   2.009   .     S
N129   C146    1.367   .     A
N130   C147    1.367   .     A
N130   Cu140   2.009   .     S
N130   C145    1.367   .     A
C131   C174    1.450   .     S
C132   C173    1.450   .     S
O133   Cu139   1.960   .     S
O133   C137    1.299   .     A
O134   Cu140   1.960   .     S
O134   C138    1.292   .     A
O135   Cu139   1.962   .     S
O135   C138    1.291   .     A
O136   C137    1.296   .     A
O136   Cu140   1.962   .     S
C137   C165    1.482   .     S
C138   C166    1.461   .     S
Cu139  Cu140   2.674   .     S
H141   C145    1.082   .     S
H142   C146    1.082   .     S
H143   C147    1.081   .     S
H144   C148    1.082   .     S
C145   C520    1.415   1_545 S
C146   C333    1.416   .     S
C147   C518    1.416   1_545 S
C148   C331    1.415   .     S
C149   H167    1.083   .     S
C149   C174    1.401   .     A
C150   H168    1.083   .     S
C150   C173    1.401   .     A
C150   C28     1.383   1_655 S
C151   H169    1.083   .     S
C151   C173    1.401   .     A
C151   C25     1.383   1_655 S
C152   H170    1.083   .     S
C152   C174    1.401   .     A
C153   C171    1.394   .     A
C153   H157    1.084   .     S
C153   C161    1.395   .     A
C154   C172    1.396   .     A
C154   H158    1.084   .     S
C154   C162    1.394   .     A
C155   C163    1.395   .     A
C155   C172    1.395   .     A
C155   H159    1.084   .     S
C156   H160    1.084   .     S
C156   C171    1.393   .     A
C156   C164    1.391   .     A
C161   C165    1.423   .     A
C161   N175    1.435   .     S
C162   N178    1.438   .     S
C162   C166    1.416   .     A
C163   C166    1.418   .     A
C163   N181    1.438   .     S
C164   N184    1.432   .     S
C164   C165    1.423   .     A
C171   C730    1.460   1_554 S
C172   C729    1.460   .     S
N175   O176    1.302   .     A
N175   O177    1.301   .     A
N178   O180    1.301   .     A
N178   O179    1.301   .     A
N181   O182    1.301   .     A
N181   O183    1.301   .     A
N184   O186    1.301   .     A
N184   O185    1.301   .     A
O187   Cu201   1.965   .     S
O187   C193    1.290   .     A
O188   Cu202   1.965   .     S
O188   C194    1.290   .     A
O189   Cu201   1.965   .     S
O189   C194    1.290   .     A
O190   Cu202   1.965   .     S
O190   C193    1.290   .     A
N191   C210    1.367   .     A
N191   Cu201   2.009   .     S
N191   C208    1.367   .     A
N192   C209    1.367   .     A
N192   Cu202   2.009   .     S
N192   C207    1.367   .     A
C193   C236    1.450   .     S
C194   C235    1.450   .     S
O195   Cu201   1.960   .     S
O195   C199    1.299   .     A
O196   Cu202   1.960   .     S
O196   C200    1.292   .     A
O197   Cu201   1.962   .     S
O197   C200    1.291   .     A
O198   C199    1.296   .     A
O198   Cu202   1.962   .     S
C199   C227    1.482   .     S
C200   C228    1.461   .     S
Cu201  Cu202   2.674   .     S
H203   C207    1.082   .     S
H204   C208    1.082   .     S
H205   C209    1.081   .     S
H206   C210    1.082   .     S
C208   C395    1.416   .     S
C210   C393    1.415   .     S
C211   H229    1.083   .     S
C211   C236    1.401   .     A
C211   C337    1.383   1_455 S
C212   H230    1.083   .     S
C212   C235    1.401   .     A
C212   C276    1.383   .     S
C213   H231    1.083   .     S
C213   C235    1.401   .     A
C213   C273    1.383   .     S
C214   H232    1.083   .     S
C214   C236    1.401   .     A
C214   C336    1.383   1_455 S
C215   C233    1.394   .     A
C215   H219    1.084   .     S
C215   C223    1.395   .     A
C216   C234    1.396   .     A
C216   H220    1.084   .     S
C216   C224    1.394   .     A
C217   C225    1.395   .     A
C217   C234    1.395   .     A
C217   H221    1.084   .     S
C218   H222    1.084   .     S
C218   C233    1.393   .     A
C218   C226    1.391   .     A
C223   C227    1.423   .     A
C223   N237    1.435   .     S
C224   N240    1.438   .     S
C224   C228    1.416   .     A
C225   C228    1.418   .     A
C225   N243    1.438   .     S
C226   N246    1.432   .     S
C226   C227    1.423   .     A
C233   C792    1.460   1_554 S
C234   C791    1.460   .     S
N237   O238    1.302   .     A
N237   O239    1.301   .     A
N240   O242    1.301   .     A
N240   O241    1.301   .     A
N243   O244    1.301   .     A
N243   O245    1.301   .     A
N246   O248    1.301   .     A
N246   O247    1.301   .     A
O249   Cu263   1.965   .     S
O249   C255    1.290   .     A
O250   Cu264   1.965   .     S
O250   C256    1.290   .     A
O251   Cu263   1.965   .     S
O251   C256    1.290   .     A
O252   Cu264   1.965   .     S
O252   C255    1.290   .     A
N253   C272    1.367   .     A
N253   Cu263   2.009   .     S
N253   C270    1.367   .     A
N254   C271    1.367   .     A
N254   Cu264   2.009   .     S
N254   C269    1.367   .     A
C255   C298    1.450   .     S
C256   C297    1.450   .     S
O257   Cu263   1.960   .     S
O257   C261    1.299   .     A
O258   Cu264   1.960   .     S
O258   C262    1.292   .     A
O259   Cu263   1.962   .     S
O259   C262    1.291   .     A
O260   C261    1.296   .     A
O260   Cu264   1.962   .     S
C261   C289    1.482   .     S
C262   C290    1.461   .     S
Cu263  Cu264   2.674   .     S
H265   C269    1.082   .     S
H266   C270    1.082   .     S
H267   C271    1.081   .     S
H268   C272    1.082   .     S
C270   C457    1.416   .     S
C272   C455    1.415   .     S
C273   H291    1.083   .     S
C273   C298    1.401   .     A
C274   H292    1.083   .     S
C274   C297    1.401   .     A
C274   C338    1.383   .     S
C275   H293    1.083   .     S
C275   C297    1.401   .     A
C275   C335    1.383   .     S
C276   H294    1.083   .     S
C276   C298    1.401   .     A
C277   C295    1.394   .     A
C277   H281    1.084   .     S
C277   C285    1.395   .     A
C278   C296    1.396   .     A
C278   H282    1.084   .     S
C278   C286    1.394   .     A
C279   C287    1.395   .     A
C279   C296    1.395   .     A
C279   H283    1.084   .     S
C280   H284    1.084   .     S
C280   C295    1.393   .     A
C280   C288    1.391   .     A
C285   C289    1.423   .     A
C285   N299    1.435   .     S
C286   N302    1.438   .     S
C286   C290    1.416   .     A
C287   C290    1.418   .     A
C287   N305    1.438   .     S
C288   N308    1.432   .     S
C288   C289    1.423   .     A
C295   C854    1.460   1_554 S
C296   C853    1.460   .     S
N299   O300    1.302   .     A
N299   O301    1.301   .     A
N302   O304    1.301   .     A
N302   O303    1.301   .     A
N305   O306    1.301   .     A
N305   O307    1.301   .     A
N308   O310    1.301   .     A
N308   O309    1.301   .     A
O311   Cu325   1.965   .     S
O311   C317    1.290   .     A
O312   Cu326   1.965   .     S
O312   C318    1.290   .     A
O313   Cu325   1.965   .     S
O313   C318    1.290   .     A
O314   Cu326   1.965   .     S
O314   C317    1.290   .     A
N315   C334    1.367   .     A
N315   Cu325   2.009   .     S
N315   C332    1.367   .     A
N316   C333    1.367   .     A
N316   Cu326   2.009   .     S
N316   C331    1.367   .     A
C317   C360    1.450   .     S
C318   C359    1.450   .     S
O319   Cu325   1.960   .     S
O319   C323    1.299   .     A
O320   Cu326   1.960   .     S
O320   C324    1.292   .     A
O321   Cu325   1.962   .     S
O321   C324    1.291   .     A
O322   C323    1.296   .     A
O322   Cu326   1.962   .     S
C323   C351    1.482   .     S
C324   C352    1.461   .     S
Cu325  Cu326   2.674   .     S
H327   C331    1.082   .     S
H328   C332    1.082   .     S
H329   C333    1.081   .     S
H330   C334    1.082   .     S
C332   C519    1.416   .     S
C334   C517    1.415   .     S
C335   H353    1.083   .     S
C335   C360    1.401   .     A
C336   H354    1.083   .     S
C336   C359    1.401   .     A
C336   C214    1.383   1_655 S
C337   H355    1.083   .     S
C337   C359    1.401   .     A
C337   C211    1.383   1_655 S
C338   H356    1.083   .     S
C338   C360    1.401   .     A
C339   C357    1.394   .     A
C339   H343    1.084   .     S
C339   C347    1.395   .     A
C340   C358    1.396   .     A
C340   H344    1.084   .     S
C340   C348    1.394   .     A
C341   C349    1.395   .     A
C341   C358    1.395   .     A
C341   H345    1.084   .     S
C342   H346    1.084   .     S
C342   C357    1.393   .     A
C342   C350    1.391   .     A
C347   C351    1.423   .     A
C347   N361    1.435   .     S
C348   N364    1.438   .     S
C348   C352    1.416   .     A
C349   C352    1.418   .     A
C349   N367    1.438   .     S
C350   N370    1.432   .     S
C350   C351    1.423   .     A
C357   C916    1.460   1_554 S
C358   C915    1.460   .     S
N361   O362    1.302   .     A
N361   O363    1.301   .     A
N364   O366    1.301   .     A
N364   O365    1.301   .     A
N367   O368    1.301   .     A
N367   O369    1.301   .     A
N370   O372    1.301   .     A
N370   O371    1.301   .     A
O373   Cu387   1.965   .     S
O373   C379    1.290   .     A
O374   Cu388   1.965   .     S
O374   C380    1.290   .     A
O375   Cu387   1.965   .     S
O375   C380    1.290   .     A
O376   Cu388   1.965   .     S
O376   C379    1.290   .     A
N377   C396    1.367   .     A
N377   Cu387   2.009   .     S
N377   C394    1.367   .     A
N378   C395    1.367   .     A
N378   Cu388   2.009   .     S
N378   C393    1.367   .     A
C379   C422    1.450   .     S
C380   C421    1.450   .     S
O381   Cu387   1.960   .     S
O381   C385    1.299   .     A
O382   Cu388   1.960   .     S
O382   C386    1.292   .     A
O383   Cu387   1.962   .     S
O383   C386    1.291   .     A
O384   C385    1.296   .     A
O384   Cu388   1.962   .     S
C385   C413    1.482   .     S
C386   C414    1.461   .     S
Cu387  Cu388   2.674   .     S
H389   C393    1.082   .     S
H390   C394    1.082   .     S
H391   C395    1.081   .     S
H392   C396    1.082   .     S
C394   C23     1.416   1_565 S
C396   C21     1.415   1_565 S
C397   H415    1.083   .     S
C397   C422    1.401   .     A
C397   C523    1.383   1_455 S
C398   H416    1.083   .     S
C398   C421    1.401   .     A
C398   C462    1.383   .     S
C399   H417    1.083   .     S
C399   C421    1.401   .     A
C399   C459    1.383   .     S
C400   H418    1.083   .     S
C400   C422    1.401   .     A
C400   C522    1.383   1_455 S
C401   C419    1.394   .     A
C401   H405    1.084   .     S
C401   C409    1.395   .     A
C402   C420    1.396   .     A
C402   H406    1.084   .     S
C402   C410    1.394   .     A
C403   C411    1.395   .     A
C403   C420    1.395   .     A
C403   H407    1.084   .     S
C404   H408    1.084   .     S
C404   C419    1.393   .     A
C404   C412    1.391   .     A
C409   C413    1.423   .     A
C409   N423    1.435   .     S
C410   N426    1.438   .     S
C410   C414    1.416   .     A
C411   C414    1.418   .     A
C411   N429    1.438   .     S
C412   N432    1.432   .     S
C412   C413    1.423   .     A
C419   C978    1.460   1_554 S
C420   C977    1.460   .     S
N423   O424    1.302   .     A
N423   O425    1.301   .     A
N426   O428    1.301   .     A
N426   O427    1.301   .     A
N429   O430    1.301   .     A
N429   O431    1.301   .     A
N432   O434    1.301   .     A
N432   O433    1.301   .     A
O435   Cu449   1.965   .     S
O435   C441    1.290   .     A
O436   Cu450   1.965   .     S
O436   C442    1.290   .     A
O437   Cu449   1.965   .     S
O437   C442    1.290   .     A
O438   Cu450   1.965   .     S
O438   C441    1.290   .     A
N439   C458    1.367   .     A
N439   Cu449   2.009   .     S
N439   C456    1.367   .     A
N440   C457    1.367   .     A
N440   Cu450   2.009   .     S
N440   C455    1.367   .     A
C441   C484    1.450   .     S
C442   C483    1.450   .     S
O443   Cu449   1.960   .     S
O443   C447    1.299   .     A
O444   Cu450   1.960   .     S
O444   C448    1.292   .     A
O445   Cu449   1.962   .     S
O445   C448    1.291   .     A
O446   C447    1.296   .     A
O446   Cu450   1.962   .     S
C447   C475    1.482   .     S
C448   C476    1.461   .     S
Cu449  Cu450   2.674   .     S
H451   C455    1.082   .     S
H452   C456    1.082   .     S
H453   C457    1.081   .     S
H454   C458    1.082   .     S
C456   C85     1.416   1_565 S
C458   C83     1.415   1_565 S
C459   H477    1.083   .     S
C459   C484    1.401   .     A
C460   H478    1.083   .     S
C460   C483    1.401   .     A
C460   C524    1.383   .     S
C461   H479    1.083   .     S
C461   C483    1.401   .     A
C461   C521    1.383   .     S
C462   H480    1.083   .     S
C462   C484    1.401   .     A
C463   C481    1.394   .     A
C463   H467    1.084   .     S
C463   C471    1.395   .     A
C464   C482    1.396   .     A
C464   H468    1.084   .     S
C464   C472    1.394   .     A
C465   C473    1.395   .     A
C465   C482    1.395   .     A
C465   H469    1.084   .     S
C466   H470    1.084   .     S
C466   C481    1.393   .     A
C466   C474    1.391   .     A
C471   C475    1.423   .     A
C471   N485    1.435   .     S
C472   N488    1.438   .     S
C472   C476    1.416   .     A
C473   C476    1.418   .     A
C473   N491    1.438   .     S
C474   N494    1.432   .     S
C474   C475    1.423   .     A
C481   C1040   1.460   1_554 S
C482   C1039   1.460   .     S
N485   O486    1.302   .     A
N485   O487    1.301   .     A
N488   O490    1.301   .     A
N488   O489    1.301   .     A
N491   O492    1.301   .     A
N491   O493    1.301   .     A
N494   O496    1.301   .     A
N494   O495    1.301   .     A
O497   Cu511   1.965   .     S
O497   C503    1.290   .     A
O498   Cu512   1.965   .     S
O498   C504    1.290   .     A
O499   Cu511   1.965   .     S
O499   C504    1.290   .     A
O500   Cu512   1.965   .     S
O500   C503    1.290   .     A
N501   C520    1.367   .     A
N501   Cu511   2.009   .     S
N501   C518    1.367   .     A
N502   C519    1.367   .     A
N502   Cu512   2.009   .     S
N502   C517    1.367   .     A
C503   C546    1.450   .     S
C504   C545    1.450   .     S
O505   Cu511   1.960   .     S
O505   C509    1.299   .     A
O506   Cu512   1.960   .     S
O506   C510    1.292   .     A
O507   Cu511   1.962   .     S
O507   C510    1.291   .     A
O508   C509    1.296   .     A
O508   Cu512   1.962   .     S
C509   C537    1.482   .     S
C510   C538    1.461   .     S
Cu511  Cu512   2.674   .     S
H513   C517    1.082   .     S
H514   C518    1.082   .     S
H515   C519    1.081   .     S
H516   C520    1.082   .     S
C518   C147    1.416   1_565 S
C520   C145    1.415   1_565 S
C521   H539    1.083   .     S
C521   C546    1.401   .     A
C522   H540    1.083   .     S
C522   C545    1.401   .     A
C522   C400    1.383   1_655 S
C523   H541    1.083   .     S
C523   C545    1.401   .     A
C523   C397    1.383   1_655 S
C524   H542    1.083   .     S
C524   C546    1.401   .     A
C525   C543    1.394   .     A
C525   H529    1.084   .     S
C525   C533    1.395   .     A
C526   C544    1.396   .     A
C526   H530    1.084   .     S
C526   C534    1.394   .     A
C527   C535    1.395   .     A
C527   C544    1.395   .     A
C527   H531    1.084   .     S
C528   H532    1.084   .     S
C528   C543    1.393   .     A
C528   C536    1.391   .     A
C533   C537    1.423   .     A
C533   N547    1.435   .     S
C534   N550    1.438   .     S
C534   C538    1.416   .     A
C535   C538    1.418   .     A
C535   N553    1.438   .     S
C536   N556    1.432   .     S
C536   C537    1.423   .     A
C543   C1102   1.460   1_554 S
C544   C1101   1.460   .     S
N547   O548    1.302   .     A
N547   O549    1.301   .     A
N550   O552    1.301   .     A
N550   O551    1.301   .     A
N553   O554    1.301   .     A
N553   O555    1.301   .     A
N556   O558    1.301   .     A
N556   O557    1.301   .     A
O559   Cu573   1.965   .     S
O559   C565    1.290   .     A
O560   Cu574   1.965   .     S
O560   C566    1.290   .     A
O561   Cu573   1.965   .     S
O561   C566    1.290   .     A
O562   Cu574   1.965   .     S
O562   C565    1.290   .     A
N563   C582    1.367   .     A
N563   Cu573   2.009   .     S
N563   C580    1.367   .     A
N564   C581    1.367   .     A
N564   Cu574   2.009   .     S
N564   C579    1.367   .     A
C565   C608    1.450   .     S
C566   C607    1.450   .     S
O567   Cu573   1.960   .     S
O567   C571    1.299   .     A
O568   Cu574   1.960   .     S
O568   C572    1.292   .     A
O569   Cu573   1.962   .     S
O569   C572    1.291   .     A
O570   C571    1.296   .     A
O570   Cu574   1.962   .     S
C571   C599    1.482   .     S
C572   C600    1.461   .     S
Cu573  Cu574   2.674   .     S
H575   C579    1.082   .     S
H576   C580    1.082   .     S
H577   C581    1.081   .     S
H578   C582    1.082   .     S
C579   C954    1.415   1_545 S
C580   C767    1.416   .     S
C581   C952    1.416   1_545 S
C582   C765    1.415   .     S
C583   H601    1.083   .     S
C583   C608    1.401   .     A
C583   C709    1.383   1_455 S
C584   H602    1.083   .     S
C584   C607    1.401   .     A
C584   C648    1.383   .     S
C585   H603    1.083   .     S
C585   C607    1.401   .     A
C585   C645    1.383   .     S
C586   H604    1.083   .     S
C586   C608    1.401   .     A
C586   C708    1.383   1_455 S
C587   C605    1.394   .     A
C587   H591    1.084   .     S
C587   C595    1.395   .     A
C588   C606    1.396   .     A
C588   H592    1.084   .     S
C588   C596    1.394   .     A
C589   C597    1.395   .     A
C589   C606    1.395   .     A
C589   H593    1.084   .     S
C590   H594    1.084   .     S
C590   C605    1.393   .     A
C590   C598    1.391   .     A
C595   C599    1.423   .     A
C595   N609    1.435   .     S
C596   N612    1.438   .     S
C596   C600    1.416   .     A
C597   C600    1.418   .     A
C597   N615    1.438   .     S
C598   N618    1.432   .     S
C598   C599    1.423   .     A
C606   C47     1.460   1_556 S
N609   O610    1.302   .     A
N609   O611    1.301   .     A
N612   O614    1.301   .     A
N612   O613    1.301   .     A
N615   O616    1.301   .     A
N615   O617    1.301   .     A
N618   O620    1.301   .     A
N618   O619    1.301   .     A
O621   Cu635   1.965   .     S
O621   C627    1.290   .     A
O622   Cu636   1.965   .     S
O622   C628    1.290   .     A
O623   Cu635   1.965   .     S
O623   C628    1.290   .     A
O624   Cu636   1.965   .     S
O624   C627    1.290   .     A
N625   C644    1.367   .     A
N625   Cu635   2.009   .     S
N625   C642    1.367   .     A
N626   C643    1.367   .     A
N626   Cu636   2.009   .     S
N626   C641    1.367   .     A
C627   C670    1.450   .     S
C628   C669    1.450   .     S
O629   Cu635   1.960   .     S
O629   C633    1.299   .     A
O630   Cu636   1.960   .     S
O630   C634    1.292   .     A
O631   Cu635   1.962   .     S
O631   C634    1.291   .     A
O632   C633    1.296   .     A
O632   Cu636   1.962   .     S
C633   C661    1.482   .     S
C634   C662    1.461   .     S
Cu635  Cu636   2.674   .     S
H637   C641    1.082   .     S
H638   C642    1.082   .     S
H639   C643    1.081   .     S
H640   C644    1.082   .     S
C641   C1016   1.415   1_545 S
C642   C829    1.416   .     S
C643   C1014   1.416   1_545 S
C644   C827    1.415   .     S
C645   H663    1.083   .     S
C645   C670    1.401   .     A
C646   H664    1.083   .     S
C646   C669    1.401   .     A
C646   C710    1.383   .     S
C647   H665    1.083   .     S
C647   C669    1.401   .     A
C647   C707    1.383   .     S
C648   H666    1.083   .     S
C648   C670    1.401   .     A
C649   C667    1.394   .     A
C649   H653    1.084   .     S
C649   C657    1.395   .     A
C650   C668    1.396   .     A
C650   H654    1.084   .     S
C650   C658    1.394   .     A
C651   C659    1.395   .     A
C651   C668    1.395   .     A
C651   H655    1.084   .     S
C652   H656    1.084   .     S
C652   C667    1.393   .     A
C652   C660    1.391   .     A
C657   C661    1.423   .     A
C657   N671    1.435   .     S
C658   N674    1.438   .     S
C658   C662    1.416   .     A
C659   C662    1.418   .     A
C659   N677    1.438   .     S
C660   N680    1.432   .     S
C660   C661    1.423   .     A
C668   C109    1.460   1_556 S
N671   O672    1.302   .     A
N671   O673    1.301   .     A
N674   O676    1.301   .     A
N674   O675    1.301   .     A
N677   O678    1.301   .     A
N677   O679    1.301   .     A
N680   O682    1.301   .     A
N680   O681    1.301   .     A
O683   Cu697   1.965   .     S
O683   C689    1.290   .     A
O684   Cu698   1.965   .     S
O684   C690    1.290   .     A
O685   Cu697   1.965   .     S
O685   C690    1.290   .     A
O686   Cu698   1.965   .     S
O686   C689    1.290   .     A
N687   C706    1.367   .     A
N687   Cu697   2.009   .     S
N687   C704    1.367   .     A
N688   C705    1.367   .     A
N688   Cu698   2.009   .     S
N688   C703    1.367   .     A
C689   C732    1.450   .     S
C690   C731    1.450   .     S
O691   Cu697   1.960   .     S
O691   C695    1.299   .     A
O692   Cu698   1.960   .     S
O692   C696    1.292   .     A
O693   Cu697   1.962   .     S
O693   C696    1.291   .     A
O694   C695    1.296   .     A
O694   Cu698   1.962   .     S
C695   C723    1.482   .     S
C696   C724    1.461   .     S
Cu697  Cu698   2.674   .     S
H699   C703    1.082   .     S
H700   C704    1.082   .     S
H701   C705    1.081   .     S
H702   C706    1.082   .     S
C703   C1078   1.415   1_545 S
C704   C891    1.416   .     S
C705   C1076   1.416   1_545 S
C706   C889    1.415   .     S
C707   H725    1.083   .     S
C707   C732    1.401   .     A
C708   H726    1.083   .     S
C708   C731    1.401   .     A
C708   C586    1.383   1_655 S
C709   H727    1.083   .     S
C709   C731    1.401   .     A
C709   C583    1.383   1_655 S
C710   H728    1.083   .     S
C710   C732    1.401   .     A
C711   C729    1.394   .     A
C711   H715    1.084   .     S
C711   C719    1.395   .     A
C712   C730    1.396   .     A
C712   H716    1.084   .     S
C712   C720    1.394   .     A
C713   C721    1.395   .     A
C713   C730    1.395   .     A
C713   H717    1.084   .     S
C714   H718    1.084   .     S
C714   C729    1.393   .     A
C714   C722    1.391   .     A
C719   C723    1.423   .     A
C719   N733    1.435   .     S
C720   N736    1.438   .     S
C720   C724    1.416   .     A
C721   C724    1.418   .     A
C721   N739    1.438   .     S
C722   N742    1.432   .     S
C722   C723    1.423   .     A
C730   C171    1.460   1_556 S
N733   O734    1.302   .     A
N733   O735    1.301   .     A
N736   O738    1.301   .     A
N736   O737    1.301   .     A
N739   O740    1.301   .     A
N739   O741    1.301   .     A
N742   O744    1.301   .     A
N742   O743    1.301   .     A
O745   Cu759   1.965   .     S
O745   C751    1.290   .     A
O746   Cu760   1.965   .     S
O746   C752    1.290   .     A
O747   Cu759   1.965   .     S
O747   C752    1.290   .     A
O748   Cu760   1.965   .     S
O748   C751    1.290   .     A
N749   C768    1.367   .     A
N749   Cu759   2.009   .     S
N749   C766    1.367   .     A
N750   C767    1.367   .     A
N750   Cu760   2.009   .     S
N750   C765    1.367   .     A
C751   C794    1.450   .     S
C752   C793    1.450   .     S
O753   Cu759   1.960   .     S
O753   C757    1.299   .     A
O754   Cu760   1.960   .     S
O754   C758    1.292   .     A
O755   Cu759   1.962   .     S
O755   C758    1.291   .     A
O756   C757    1.296   .     A
O756   Cu760   1.962   .     S
C757   C785    1.482   .     S
C758   C786    1.461   .     S
Cu759  Cu760   2.674   .     S
H761   C765    1.082   .     S
H762   C766    1.082   .     S
H763   C767    1.081   .     S
H764   C768    1.082   .     S
C766   C953    1.416   .     S
C768   C951    1.415   .     S
C769   H787    1.083   .     S
C769   C794    1.401   .     A
C769   C895    1.383   1_455 S
C770   H788    1.083   .     S
C770   C793    1.401   .     A
C770   C834    1.383   .     S
C771   H789    1.083   .     S
C771   C793    1.401   .     A
C771   C831    1.383   .     S
C772   H790    1.083   .     S
C772   C794    1.401   .     A
C772   C894    1.383   1_455 S
C773   C791    1.394   .     A
C773   H777    1.084   .     S
C773   C781    1.395   .     A
C774   C792    1.396   .     A
C774   H778    1.084   .     S
C774   C782    1.394   .     A
C775   C783    1.395   .     A
C775   C792    1.395   .     A
C775   H779    1.084   .     S
C776   H780    1.084   .     S
C776   C791    1.393   .     A
C776   C784    1.391   .     A
C781   C785    1.423   .     A
C781   N795    1.435   .     S
C782   N798    1.438   .     S
C782   C786    1.416   .     A
C783   C786    1.418   .     A
C783   N801    1.438   .     S
C784   N804    1.432   .     S
C784   C785    1.423   .     A
C792   C233    1.460   1_556 S
N795   O796    1.302   .     A
N795   O797    1.301   .     A
N798   O800    1.301   .     A
N798   O799    1.301   .     A
N801   O802    1.301   .     A
N801   O803    1.301   .     A
N804   O806    1.301   .     A
N804   O805    1.301   .     A
O807   Cu821   1.965   .     S
O807   C813    1.290   .     A
O808   Cu822   1.965   .     S
O808   C814    1.290   .     A
O809   Cu821   1.965   .     S
O809   C814    1.290   .     A
O810   Cu822   1.965   .     S
O810   C813    1.290   .     A
N811   C830    1.367   .     A
N811   Cu821   2.009   .     S
N811   C828    1.367   .     A
N812   C829    1.367   .     A
N812   Cu822   2.009   .     S
N812   C827    1.367   .     A
C813   C856    1.450   .     S
C814   C855    1.450   .     S
O815   Cu821   1.960   .     S
O815   C819    1.299   .     A
O816   Cu822   1.960   .     S
O816   C820    1.292   .     A
O817   Cu821   1.962   .     S
O817   C820    1.291   .     A
O818   C819    1.296   .     A
O818   Cu822   1.962   .     S
C819   C847    1.482   .     S
C820   C848    1.461   .     S
Cu821  Cu822   2.674   .     S
H823   C827    1.082   .     S
H824   C828    1.082   .     S
H825   C829    1.081   .     S
H826   C830    1.082   .     S
C828   C1015   1.416   .     S
C830   C1013   1.415   .     S
C831   H849    1.083   .     S
C831   C856    1.401   .     A
C832   H850    1.083   .     S
C832   C855    1.401   .     A
C832   C896    1.383   .     S
C833   H851    1.083   .     S
C833   C855    1.401   .     A
C833   C893    1.383   .     S
C834   H852    1.083   .     S
C834   C856    1.401   .     A
C835   C853    1.394   .     A
C835   H839    1.084   .     S
C835   C843    1.395   .     A
C836   C854    1.396   .     A
C836   H840    1.084   .     S
C836   C844    1.394   .     A
C837   C845    1.395   .     A
C837   C854    1.395   .     A
C837   H841    1.084   .     S
C838   H842    1.084   .     S
C838   C853    1.393   .     A
C838   C846    1.391   .     A
C843   C847    1.423   .     A
C843   N857    1.435   .     S
C844   N860    1.438   .     S
C844   C848    1.416   .     A
C845   C848    1.418   .     A
C845   N863    1.438   .     S
C846   N866    1.432   .     S
C846   C847    1.423   .     A
C854   C295    1.460   1_556 S
N857   O858    1.302   .     A
N857   O859    1.301   .     A
N860   O862    1.301   .     A
N860   O861    1.301   .     A
N863   O864    1.301   .     A
N863   O865    1.301   .     A
N866   O868    1.301   .     A
N866   O867    1.301   .     A
O869   Cu883   1.965   .     S
O869   C875    1.290   .     A
O870   Cu884   1.965   .     S
O870   C876    1.290   .     A
O871   Cu883   1.965   .     S
O871   C876    1.290   .     A
O872   Cu884   1.965   .     S
O872   C875    1.290   .     A
N873   C892    1.367   .     A
N873   Cu883   2.009   .     S
N873   C890    1.367   .     A
N874   C891    1.367   .     A
N874   Cu884   2.009   .     S
N874   C889    1.367   .     A
C875   C918    1.450   .     S
C876   C917    1.450   .     S
O877   Cu883   1.960   .     S
O877   C881    1.299   .     A
O878   Cu884   1.960   .     S
O878   C882    1.292   .     A
O879   Cu883   1.962   .     S
O879   C882    1.291   .     A
O880   C881    1.296   .     A
O880   Cu884   1.962   .     S
C881   C909    1.482   .     S
C882   C910    1.461   .     S
Cu883  Cu884   2.674   .     S
H885   C889    1.082   .     S
H886   C890    1.082   .     S
H887   C891    1.081   .     S
H888   C892    1.082   .     S
C890   C1077   1.416   .     S
C892   C1075   1.415   .     S
C893   H911    1.083   .     S
C893   C918    1.401   .     A
C894   H912    1.083   .     S
C894   C917    1.401   .     A
C894   C772    1.383   1_655 S
C895   H913    1.083   .     S
C895   C917    1.401   .     A
C895   C769    1.383   1_655 S
C896   H914    1.083   .     S
C896   C918    1.401   .     A
C897   C915    1.394   .     A
C897   H901    1.084   .     S
C897   C905    1.395   .     A
C898   C916    1.396   .     A
C898   H902    1.084   .     S
C898   C906    1.394   .     A
C899   C907    1.395   .     A
C899   C916    1.395   .     A
C899   H903    1.084   .     S
C900   H904    1.084   .     S
C900   C915    1.393   .     A
C900   C908    1.391   .     A
C905   C909    1.423   .     A
C905   N919    1.435   .     S
C906   N922    1.438   .     S
C906   C910    1.416   .     A
C907   C910    1.418   .     A
C907   N925    1.438   .     S
C908   N928    1.432   .     S
C908   C909    1.423   .     A
C916   C357    1.460   1_556 S
N919   O920    1.302   .     A
N919   O921    1.301   .     A
N922   O924    1.301   .     A
N922   O923    1.301   .     A
N925   O926    1.301   .     A
N925   O927    1.301   .     A
N928   O930    1.301   .     A
N928   O929    1.301   .     A
O931   Cu945   1.965   .     S
O931   C937    1.290   .     A
O932   Cu946   1.965   .     S
O932   C938    1.290   .     A
O933   Cu945   1.965   .     S
O933   C938    1.290   .     A
O934   Cu946   1.965   .     S
O934   C937    1.290   .     A
N935   C954    1.367   .     A
N935   Cu945   2.009   .     S
N935   C952    1.367   .     A
N936   C953    1.367   .     A
N936   Cu946   2.009   .     S
N936   C951    1.367   .     A
C937   C980    1.450   .     S
C938   C979    1.450   .     S
O939   Cu945   1.960   .     S
O939   C943    1.299   .     A
O940   Cu946   1.960   .     S
O940   C944    1.292   .     A
O941   Cu945   1.962   .     S
O941   C944    1.291   .     A
O942   C943    1.296   .     A
O942   Cu946   1.962   .     S
C943   C971    1.482   .     S
C944   C972    1.461   .     S
Cu945  Cu946   2.674   .     S
H947   C951    1.082   .     S
H948   C952    1.082   .     S
H949   C953    1.081   .     S
H950   C954    1.082   .     S
C952   C581    1.416   1_565 S
C954   C579    1.415   1_565 S
C955   H973    1.083   .     S
C955   C980    1.401   .     A
C955   C1081   1.383   1_455 S
C956   H974    1.083   .     S
C956   C979    1.401   .     A
C956   C1020   1.383   .     S
C957   H975    1.083   .     S
C957   C979    1.401   .     A
C957   C1017   1.383   .     S
C958   H976    1.083   .     S
C958   C980    1.401   .     A
C958   C1080   1.383   1_455 S
C959   C977    1.394   .     A
C959   H963    1.084   .     S
C959   C967    1.395   .     A
C960   C978    1.396   .     A
C960   H964    1.084   .     S
C960   C968    1.394   .     A
C961   C969    1.395   .     A
C961   C978    1.395   .     A
C961   H965    1.084   .     S
C962   H966    1.084   .     S
C962   C977    1.393   .     A
C962   C970    1.391   .     A
C967   C971    1.423   .     A
C967   N981    1.435   .     S
C968   N984    1.438   .     S
C968   C972    1.416   .     A
C969   C972    1.418   .     A
C969   N987    1.438   .     S
C970   N990    1.432   .     S
C970   C971    1.423   .     A
C978   C419    1.460   1_556 S
N981   O982    1.302   .     A
N981   O983    1.301   .     A
N984   O986    1.301   .     A
N984   O985    1.301   .     A
N987   O988    1.301   .     A
N987   O989    1.301   .     A
N990   O992    1.301   .     A
N990   O991    1.301   .     A
O993   Cu1007  1.965   .     S
O993   C999    1.290   .     A
O994   Cu1008  1.965   .     S
O994   C1000   1.290   .     A
O995   Cu1007  1.965   .     S
O995   C1000   1.290   .     A
O996   Cu1008  1.965   .     S
O996   C999    1.290   .     A
N997   C1016   1.367   .     A
N997   Cu1007  2.009   .     S
N997   C1014   1.367   .     A
N998   C1015   1.367   .     A
N998   Cu1008  2.009   .     S
N998   C1013   1.367   .     A
C999   C1042   1.450   .     S
C1000  C1041   1.450   .     S
O1001  Cu1007  1.960   .     S
O1001  C1005   1.299   .     A
O1002  Cu1008  1.960   .     S
O1002  C1006   1.292   .     A
O1003  Cu1007  1.962   .     S
O1003  C1006   1.291   .     A
O1004  C1005   1.296   .     A
O1004  Cu1008  1.962   .     S
C1005  C1033   1.482   .     S
C1006  C1034   1.461   .     S
Cu1007 Cu1008  2.674   .     S
H1009  C1013   1.082   .     S
H1010  C1014   1.082   .     S
H1011  C1015   1.081   .     S
H1012  C1016   1.082   .     S
C1014  C643    1.416   1_565 S
C1016  C641    1.415   1_565 S
C1017  H1035   1.083   .     S
C1017  C1042   1.401   .     A
C1018  H1036   1.083   .     S
C1018  C1041   1.401   .     A
C1018  C1082   1.383   .     S
C1019  H1037   1.083   .     S
C1019  C1041   1.401   .     A
C1019  C1079   1.383   .     S
C1020  H1038   1.083   .     S
C1020  C1042   1.401   .     A
C1021  C1039   1.394   .     A
C1021  H1025   1.084   .     S
C1021  C1029   1.395   .     A
C1022  C1040   1.396   .     A
C1022  H1026   1.084   .     S
C1022  C1030   1.394   .     A
C1023  C1031   1.395   .     A
C1023  C1040   1.395   .     A
C1023  H1027   1.084   .     S
C1024  H1028   1.084   .     S
C1024  C1039   1.393   .     A
C1024  C1032   1.391   .     A
C1029  C1033   1.423   .     A
C1029  N1043   1.435   .     S
C1030  N1046   1.438   .     S
C1030  C1034   1.416   .     A
C1031  C1034   1.418   .     A
C1031  N1049   1.438   .     S
C1032  N1052   1.432   .     S
C1032  C1033   1.423   .     A
C1040  C481    1.460   1_556 S
N1043  O1044   1.302   .     A
N1043  O1045   1.301   .     A
N1046  O1048   1.301   .     A
N1046  O1047   1.301   .     A
N1049  O1050   1.301   .     A
N1049  O1051   1.301   .     A
N1052  O1054   1.301   .     A
N1052  O1053   1.301   .     A
O1055  Cu1069  1.965   .     S
O1055  C1061   1.290   .     A
O1056  Cu1070  1.965   .     S
O1056  C1062   1.290   .     A
O1057  Cu1069  1.965   .     S
O1057  C1062   1.290   .     A
O1058  Cu1070  1.965   .     S
O1058  C1061   1.290   .     A
N1059  C1078   1.367   .     A
N1059  Cu1069  2.009   .     S
N1059  C1076   1.367   .     A
N1060  C1077   1.367   .     A
N1060  Cu1070  2.009   .     S
N1060  C1075   1.367   .     A
C1061  C1104   1.450   .     S
C1062  C1103   1.450   .     S
O1063  Cu1069  1.960   .     S
O1063  C1067   1.299   .     A
O1064  Cu1070  1.960   .     S
O1064  C1068   1.292   .     A
O1065  Cu1069  1.962   .     S
O1065  C1068   1.291   .     A
O1066  C1067   1.296   .     A
O1066  Cu1070  1.962   .     S
C1067  C1095   1.482   .     S
C1068  C1096   1.461   .     S
Cu1069 Cu1070  2.674   .     S
H1071  C1075   1.082   .     S
H1072  C1076   1.082   .     S
H1073  C1077   1.081   .     S
H1074  C1078   1.082   .     S
C1076  C705    1.416   1_565 S
C1078  C703    1.415   1_565 S
C1079  H1097   1.083   .     S
C1079  C1104   1.401   .     A
C1080  H1098   1.083   .     S
C1080  C1103   1.401   .     A
C1080  C958    1.383   1_655 S
C1081  H1099   1.083   .     S
C1081  C1103   1.401   .     A
C1081  C955    1.383   1_655 S
C1082  H1100   1.083   .     S
C1082  C1104   1.401   .     A
C1083  C1101   1.394   .     A
C1083  H1087   1.084   .     S
C1083  C1091   1.395   .     A
C1084  C1102   1.396   .     A
C1084  H1088   1.084   .     S
C1084  C1092   1.394   .     A
C1085  C1093   1.395   .     A
C1085  C1102   1.395   .     A
C1085  H1089   1.084   .     S
C1086  H1090   1.084   .     S
C1086  C1101   1.393   .     A
C1086  C1094   1.391   .     A
C1091  C1095   1.423   .     A
C1091  N1105   1.435   .     S
C1092  N1108   1.438   .     S
C1092  C1096   1.416   .     A
C1093  C1096   1.418   .     A
C1093  N1111   1.438   .     S
C1094  N1114   1.432   .     S
C1094  C1095   1.423   .     A
C1102  C543    1.460   1_556 S
N1105  O1106   1.302   .     A
N1105  O1107   1.301   .     A
N1108  O1110   1.301   .     A
N1108  O1109   1.301   .     A
N1111  O1112   1.301   .     A
N1111  O1113   1.301   .     A
N1114  O1116   1.301   .     A
N1114  O1115   1.301   .     A
